# total energy = -340860.244225223 ev
CRYSTAL
PRIMVEC
9.36498739209031 0.00000000000000 0.00000000000000
0.00000000000000 9.36498739209031 0.00000000000000
0.00000000000000 0.00000000000000 13.70660567575616
PRIMCOORD
 96 1
Ni 8.52850651732705 0.542626086690126 9.85879077055303 2.128207758936264 -2.8452565489397 -0.21570732770177045
Ni 1.6394721141886752 6.230694534957393 11.297039278385464 -0.3791225308680438 0.6194759392532686 0.7389774717557274
Ni 0.7123243367310019 5.924047395014321 4.285383479218544 0.8086134868863106 0.1800157878374319 -0.7085680062259345
Ni 9.153226081562405 4.752393849989957 6.048341377751691 -1.0262614832542196 -0.6815649952745294 -0.4969587598529377
Ni 6.719387660526943 5.799287035915811 11.778346238572862 -0.4104928176492092 0.1817080879381903 -0.2847296205077548
Ni 8.91641365095709 5.0508466261579805 12.52313617633125 0.3183583643057937 -0.6164289248968288 0.04276541599198442
Ni 6.108200502754382 4.270003360786816 7.699767898064765 2.4144594725155 0.8788639956724412 2.566427867297412
Ni 8.276335507760502 1.0663348992938544 -0.1264132793342768 -0.5336062358726423 -1.4993868881329855 0.32661597632889555
Ni 2.663795681031252 8.626586027974003 11.12233450620271 2.525500018734799 -1.7425402278608506 3.3204743175711204
Ni 5.001811553328091 7.70711285750336 5.912248447676968 0.5332912757353848 0.6882480637216598 -0.9280610262223824
Ni 1.9968306596653331 9.33783807367387 9.263924912422933 0.20309426692345026 0.41649454375859885 -4.104658724880788
Ni 7.081925043909432 7.910342444111734 3.8994467388893863 -3.9741785818796402 -0.8353233920773292 -0.170264621987939
Ni 3.120507375410184 6.197842159959827 5.101009243443317 0.32544586728019437 -1.3504647363765643 0.44278433069306317
Ni 8.522690860293558 6.1148590086333074 7.962482010188972 -0.6126817991495707 -0.6105794080945871 1.6779931972174005
Ni 7.906868033871113 8.479368429638274 1.9223790116520356 0.8145990150457841 1.7762396769958246 -1.3735923235329635
Ni 6.886524586576417 1.3708280921874851 8.106196166823848 1.7185870594793626 0.369957319429008 -0.6369928650911094
Ni 3.936310137892498 4.419215701390071 9.302042283208305 -0.2813555618291993 -2.121004556319605 -0.029783659020335803
Ni 8.61665914157223 3.45816198787804 7.871401890953988 -1.92501013366573 -0.9966097218260579 0.5297356971736426
Ni 3.5757206718416783 3.4011385809908736 4.308095446106828 -0.42155087523558366 1.3433445803920154 0.6745649098076125
Ni 5.25461001703513 2.858072339903688 0.23444777134451625 -0.4589961645662353 -0.599541919333503 0.22577628190199828
Ni 6.0744209940268385 8.896138453730826 0.1123929570398481 0.42623156854070465 0.5173272962069607 0.1653502154054572
Ni 4.837961737775807 0.33705244379272925 7.7946857890426235 -0.9817513166569865 -1.1050645095960516 0.24301424304683952
Ni 4.151629922939258 5.965543653171166 7.560426253940254 -0.7120893891156317 0.12589972271931865 -0.32477326669320195
Ni 1.8945556347655566 5.1076452733530315 2.2564777384908785 -2.260455021140165 1.1376056767568665 1.6577714708538867
P 5.854334430509794 1.5073415101862073 12.021679509745683 -0.10648095187307467 -1.5026465327208636 1.1048925027945617
P 0.9232903392417391 6.666850082494918 6.38777159178726 1.3478620086463948 -0.7007868196186189 0.4447841347319114
P 7.237112246328093 5.017582191724869 9.687431171787933 2.4094157394440052 -2.8305894338458284 1.0664239144057182
P 9.044742070167935 1.6862314951358948 6.379890018583739 -0.9813751642644906 -0.41482692624818884 0.05156475945116926
P 7.283422107891081 6.72321794028008 0.022414160296229807 -0.7187806850928783 -0.3249074782782211 -0.06519829107420384
P 6.5725727566395875 1.2872643116563334 1.7122286995239344 -0.5766760704789229 0.30542982916958367 -0.7291761693945894
P 9.287716662332087 2.23377420009105 11.749904772533066 -0.6240828418976606 0.24472042710466888 0.8881611047036511
P 0.568675735006326 8.63963145510388 11.080076874588825 -0.7994930126422812 0.6847482780985175 3.0624180925894935
Ni 5.706901437469122 3.5594255941632964 11.455487369337236 2.3315241691728494 0.5634485160450554 -0.5947658381010983
Ni 6.204313366095323 6.688342728053473 9.306662031379998 -1.2700357443955352 0.9031547498990059 -0.9704993978922514
Ni 7.564025218510256 3.1420843058532832 13.423920578402477 0.41568773158658734 1.2266278097235455 -0.5731989105636
Ni 5.008573074065903 2.817596865348534 6.721924635551698 -2.435605767575812 -1.9112501037671599 -2.070067917370738
Ni 5.552491528985692 5.80395079952721 3.805104794622573 -0.18062411084539215 -0.27824864076910144 0.5566685170087445
Ni 8.018442491032173 9.258928691766945 5.47397922253484 -0.5631312419149527 0.9928024322648257 1.3872412817749655
Ni 0.45054765982266104 0.5915422241829383 4.215206011350312 -2.4354029075363863 0.7368959066363502 2.3586724474528666
Ni 1.987016153109618 6.207488096746455 8.891557102006537 1.7401354750741 1.0536082506982887 0.34874340435555423
Ni 4.0510125007688345 2.0308911180080207 10.663560641648619 0.4190350507922654 -0.09613046187668606 -0.06547751287751949
Ni 4.727876313575012 5.553137713100526 13.462833036598711 0.7296559372444853 -0.6001106473527794 -1.283579544518241
Ni 1.7353414878631568 5.08820355998503 13.653053719527176 0.276414158663524 0.5380706994018991 -0.8969902729595068
Ni 1.8975243356989169 1.4284040333177688 11.03337836605822 -1.7871977186692252 -0.36557667386280907 0.45433835407924983
Ni 7.016014264196527 2.1313961603323865 5.604027989889087 0.2414648962818487 0.6348403375244809 0.1885539072154301
Ni 6.632649149344657 4.582129018225207 1.3998286479614195 -0.05004600881379768 0.5741149946199661 0.4005413628634521
Ni 1.7484899298519205 0.7918246493284468 6.166834687435043 1.0642685586256122 -0.8328772445296817 1.373513133555596
Ni 3.127643495634855 2.0921287691223545 8.091776896075915 1.1719782406994654 0.20842184978395073 -0.5017050162886715
Ni 7.384123814946048 8.19189141843523 12.070296904147725 0.5246294862953287 1.0563122798930131 -1.4588202795645329
Ni 8.406696129187559 4.271042874362851 3.7005643793260146 0.20838328323653146 -0.019601576281011404 0.034181016757083064
Ni 6.376413735345683 2.8812975080889687 3.419920999262002 -0.7268521492471031 0.6497493934258294 -0.1548745126851139
Ni 1.2624377306647294 4.4790766993901965 7.865987991870152 1.4342503035346525 -1.4180420692059061 -1.1915386793298963
Ni 2.8187300287962835 7.95638072104675 7.108546892941809 -0.25180458764495983 0.28039679746035584 0.7710584114506721
Ni 9.209181879912022 7.416049056213637 13.146019266582275 1.6652166142780223 0.6810487177597432 -0.5784894695385779
Ni 2.5929776480404905 1.1270200161650707 3.9464196415441153 1.431364497346425 -0.05467142340095101 -0.27003010951405104
Ni 6.377537533806262 8.988374212382773 9.786818034644023 -1.5765369522524268 0.9940535310631075 0.46487884859925743
P 2.6261016076660293 1.0103603709698945 1.200649418304712 0.6143990389509935 1.1090564043642641 -0.6880917406494537
P 6.795712305974537 4.524702916889667 5.236635797156901 0.2570627507201057 -0.9892316841944319 -0.1184898034084927
P 1.4774203761733162 2.89563530344851 3.244737676234788 -0.12041067458028941 0.5742080685544048 -0.13772191216522733
P 5.980087478248481 0.36440382532576543 4.647937719577942 -0.0850171255723439 0.09665162448747872 0.17680473709930195
P 9.077669365062873 7.735029884261554 3.9957909174134616 1.6827561658236827 1.5751943221816034 -1.091602984774507
P 1.3771400935410654 7.2124261401440615 0.8729610251847498 1.900095372701921 -0.061873597576345044 0.5173424657156123
P 3.853102226873863 4.181710261734065 11.895976096439005 -1.7126341843300377 1.589153869685489 0.6838010836938998
P 4.009844017162991 8.160528076397929 9.391204453070571 0.3716293078147922 0.19111189775059345 -0.7911718943710955
Ni 8.971348665705014 6.371440927157626 1.738162221999208 -0.380702473760654 -0.228674943606032 0.785468416228415
Ni 1.935855228191801 8.19732311099469 4.859731586954638 -0.35694136678531435 -0.34532692247483754 -1.2276387674865632
Ni 0.914909612221978 0.16783368109503338 2.265989755960955 0.25271141572994543 -0.8353413897994582 -3.6682440451594953
Ni 1.157774634036224 2.9498679441585742 5.469292046455512 0.9327232075847421 0.8430577846071095 -0.6280042884392539
Ni 4.307800449010926 1.988758040723514 2.630256852474017 0.7353167350746884 -0.8337640180100092 -1.952283367559386
Ni 5.195573137906095 8.97182628005076 2.3259968477609556 0.7003214499464261 1.415620090027975 1.720674538136011
Ni 0.37591714055438785 7.67612411495292 9.347041046567286 -1.2453886352708163 -1.1560736536540672 0.24395269570070893
Ni 0.9237361126311017 1.7148415309447784 8.129949520285601 -1.914977689130392 0.15455209634868866 1.3593838932430653
Ni 0.125575112982429 8.467053471507771 7.237512131280314 1.1463050043030774 1.3672064746112778 -1.028929774115002
Ni 0.2612026031947289 4.838692206775183 10.020871540028622 -1.5542058928553943 -0.4666984183064995 -0.1716023669627561
Ni 2.9511509474010675 3.475674513888715 1.288390919613063 0.9034900217512375 -2.4317187738165797 -0.31962360417146246
Ni 1.176233023751219 2.5109590903926335 13.691569102267339 -0.7860751965744784 1.8160107862461756 1.044295200827479
Ni 7.883080966455545 2.4991030166335344 10.106332666960716 -1.0977641192798966 3.607576037855477 0.7288285562471836
Ni 1.7585104661254083 3.624989869350856 11.654561711137623 -0.20611557024827729 1.5540061181397622 0.07409250824004013
Ni 4.113617440010205 5.363225138250002 1.9036827512628847 0.8119908879989758 0.529432821221243 1.2604689266427067
Ni 6.068343117352546 6.968093624840043 1.758160215605195 -0.35160529928438156 -1.2544078080502912 -0.4089365289056828
Ni 3.09277764839542 7.204512725984157 13.053279671620503 -0.33519883290190017 0.3743917010512778 0.7301956117980392
Ni 3.04544700323074 8.30623791179905 1.8648517684550436 -0.656004887417238 -0.6099204343543496 -0.4519603407653765
Ni 3.95537725177364 6.3128254724513075 10.531524624016583 0.10768422815255649 0.016409294595958836 0.9864839462459656
Ni 8.445055116641957 2.100398052794775 2.427370960894836 1.3633678175914778 -0.047693192310904964 -0.5825014189114485
Ni 3.9888196209630093 0.3571646902422083 13.15869758621503 -0.8481053743333459 0.4304265804586587 -0.21107137159165587
Ni 1.0923321036818938 0.3983172533698604 13.220788387660686 0.9766980705037953 -2.842003589220041 -0.662545259638917
Ni 5.155416072914771 8.037556429849174 11.608426038336024 -1.1920212753932697 0.04887949930952227 0.0830340337040441
Ni 8.114162024911913 6.805077293146022 5.813875812931548 -1.2518217924906698 0.4757903533054386 -0.8884562673465667
P 4.059721938838314 7.634468652014158 3.734940437736381 0.1367873161660999 -0.986762910938965 -0.1988923130269607
P 7.72446617873212 8.273694581378143 8.351311595055401 -0.47076076130133115 0.2897715538070364 0.542187292673434
P 2.9854174354615273 4.1990823129371675 6.410182006088621 0.9188176532472434 0.12265859007420167 -0.49961265253601694
P 6.153545770638708 6.116507246375488 6.857661696113904 0.868370552340285 1.989497771826154 -0.8609115249590786
P 3.9173647688445863 1.0341380733982923 5.901241778254323 -0.06631029319146 -0.1863674410870726 -0.5636806866605195
P 5.2544227172917 2.4300830611796975 8.914858126587905 -0.012305813950546548 0.16638328465566185 0.16125701917269003
P 2.000632844456956 3.191400328298318 9.53081955482049 -0.5795294807673179 0.3483317707394324 0.33095497002388163
P 8.832119401426562 4.256995393605625 1.5357295957991268 -0.02262673626058039 -1.6191133921620566 -1.1676377043425825
