# total energy = -381167.29223256 ev
CRYSTAL
PRIMVEC
9.25116322967606 0.00000000000000 0.00000000000000
0.00000000000000 9.25116322967606 0.00000000000000
0.00000000000000 0.00000000000000 13.54001250853702
PRIMCOORD
 96 1
Ni 2.275841671565917 6.4713459776134545 12.553960849942083 0.5519109477191011 1.5463372887405948 -0.42070343963362383
Ni 7.705932218411705 2.7671709528715183 7.747703070811462 1.2698717080138453 -0.739022980281682 -0.3653380754894418
Ni 6.3939784991807915 4.1973730410282135 12.423720198068526 -1.8579007416117426 1.9203605507088606 0.4609324623569997
Ni 8.461086173870445 0.035736318598294264 3.239583455521242 -0.4214143496577194 1.8660609088250315 -0.17728913293488824
Ni 9.230570181235462 8.575227026304045 9.130274619752756 -0.01787790872168534 -0.49776557202494914 -0.1840259374380895
Ni 0.30703500755781116 4.292465748287492 9.286376898549488 -1.263449092316953 -1.3625779747003306 -0.5955443681383357
Ni 0.8859395008489399 6.414044272314888 3.505617307463417 -0.3493242165596887 -0.7960567332672226 -1.0246553151093643
Ni 5.759283940669523 4.314354000585912 5.210725113138866 -2.1403459369606948 0.947814811810542 -1.0534673542450503
Ni 2.1983354256841934 0.5007192120253378 8.575458305385812 -0.3066534171640396 -0.8826782272122089 0.21014474601232838
Ni 4.26150210482054 6.056061258392809 6.3435504081923355 -0.5066770155819662 0.6275386616567451 -1.552920084164435
Ni 2.1580373584771286 3.1944544308542304 3.1521821654052036 0.30471454827011396 0.8454172859782214 1.1871783454786717
Ni 1.5085686922225916 8.32813770650756 2.7927633709435162 -0.89885226586891 2.850705744979729 -0.35874499565295637
Ni -0.14623683828488357 4.061325433969652 1.4829697983363042 -0.04552909478005062 -0.3041296223009214 -0.31515322710493465
Ni 7.856744682050266 5.778961164946251 4.992500347863217 0.1866525764276592 0.9656335851595177 -0.5762250989844333
Ni 6.2834178469329425 7.967027799399994 0.22449612885684003 1.5670174427977657 0.005955189142170389 0.33771362890395384
Ni 5.503433769255708 1.9982605176292838 12.760406109025183 -0.4972906892710596 -0.2678876092497515 -1.2222903586904563
Ni 0.5118696391154836 0.31985249426933277 6.953893129626203 -0.34889098567701204 0.015946496026927375 0.05186352163851068
Ni 6.703762952462647 4.6073845971845735 9.407073125276689 -0.7721737560020379 0.8016889918523354 -1.3848200739279828
Ni 1.3688113686924896 6.107710502932993 5.655053859447798 -1.9441972481171421 -0.33011447640045727 1.3957117811398223
Ni 2.1129934445122074 4.79535898368144 0.8524845191131944 1.1425810184842708 0.7077347116913617 1.4960076872481074
Ni 2.7238847599280254 8.19592933220633 7.009258566452218 -2.9669072665746774 -1.2231812459358418 0.040006879410240774
Ni 4.705150890629077 6.568658964057695 13.007470450680835 -0.9214473775606066 0.018552051970574503 -2.308263655983012
Ni 8.258827991283656 1.1148576857491632 5.369102252983858 0.3883131962283764 1.3393349450119902 -0.1219404809612545
Ni 3.5214182943297314 5.318392001515647 3.244525426940437 -0.3861300725341285 0.14752527140889432 -0.23043974881593865
P 4.360535807633126 1.3968238910760966 10.367641760230173 -0.21024090527056047 -0.9454874492289459 0.3545245298137056
Ni 0.4659718427806787 8.261908628652792 4.9127090646536375 0.30021254663470237 -0.1242984396704698 0.3381926254229014
P 3.7566013669968563 8.99433247595548 0.5435419216889699 -0.679408611053159 -0.02987776139603886 1.187153405778007
Ni 0.6020546042596685 5.912261176513421 10.904516368549965 -0.037391296164264634 1.6292785056205166 -2.6847955433057438
P 1.5726977560149178 2.968244986559661 0.0773952319224753 -0.6471397237171241 -0.6061373131628336 0.32193142636903266
P 6.7345508238274565 8.44445258230977 9.476126583277997 -0.0417040646070056 -1.3420564577082112 -0.01297507210342927
P 0.9391040859328608 1.262441493406257 3.860176465859018 0.6674146719160764 -0.3237749073356746 0.31335833998804097
Ni 0.35346752112966107 5.1826866874981015 12.88539395039365 -1.5435895507921287 -2.198771685197755 1.4447275489168925
Ni 3.25603017358385 2.5987072697125084 8.335881855281444 -0.32160078250249124 0.43775448157863966 -1.6407026882970581
Ni 7.7100952418835105 3.3710776400179765 5.064993388368562 1.7779468894949189 -0.34257609920257776 0.32153213404808495
Ni 0.6752858875940124 3.0907396394266815 6.24202721734361 0.6767122951679184 0.28192531828974027 0.1729689082929795
Ni 6.956375216731725 0.15166819624109745 7.306975802363803 -0.07345101800129931 -0.36454848970861087 0.7177375885403445
Ni 3.147319753990136 8.616255935409495 10.713060769314346 0.05067438642641596 1.193835445783873 -0.010374658366104714
Ni 7.751346178907454 1.0298117418018389 9.545749912936776 0.2619689297724714 1.4721288237479808 0.331645568333003
Ni 8.960861767242175 7.50179604968097 12.81822125388527 0.2365245215574378 -0.33811343544553385 -2.090499188641896
Ni 4.42163048987267 3.560115910290969 10.420312333195438 0.5787509507300808 -0.11615061375235479 0.18809213708766317
Ni 6.950528481544659 4.55492125027657 3.023078481497612 -0.47249856992804434 0.43876955310671534 -0.10892067166281887
Ni 6.215643824811969 8.76031504986046 2.3622715895385342 -0.7698718473417386 -0.22084233493549063 0.6451851710939147
Ni 2.0522873111300317 1.4645239038909035 1.8437300114722392 0.8767664897134642 -1.8257346984021587 -1.2332964799929726
Ni 2.5425527086595054 1.3344803017950109 12.587418607026812 1.6132952428183829 0.346649497941003 0.4105830633701703
Ni 2.617524135805064 9.30158211050117 4.9075099108955165 -0.5967131916354561 2.091616075855159 0.14153537237404656
Ni 3.741244435967534 8.527990586643973 2.791002874573107 2.13484660440902 0.9491756967138104 0.025567306946143065
Ni 7.140658389083591 6.701283640706106 11.402979221853586 1.411907159952762 -1.8345026744027764 0.3398964954878856
Ni 7.224353663193396 8.99610869930345 11.799646900108323 0.253880239227066 0.7916339216091786 -0.6945341538406877
Ni 6.938594480925486 8.564736207155098 5.069989941651053 -1.197760491869892 -0.6806761649116728 -1.169158254752167
Ni 6.419539463297669 1.5193370462696585 3.516963859214901 0.5061553387505412 0.9342049343365911 0.4063620833102873
Ni 8.511449506716005 2.431113195900943 2.9598060754241504 0.4664590486021838 -0.16565463401975344 0.4423138188145479
Ni 3.3290588564425656 6.979854669112702 8.827072369137985 0.12090561193883695 -0.12564981149204169 1.0920184750453708
Ni 2.190610704353179 2.0464868317593177 10.205296796458388 0.03126975664755905 0.5570973770160469 1.6167433492679832
Ni 5.446788896549359 1.825689317978094 6.045236472249791 0.6390348352218027 0.03757255893713529 -0.4062109024444036
Ni 7.829407494585418 6.463260460914883 8.681151920636959 0.5266853403830929 2.030540548700077 0.23918638466031708
Ni 4.309608153828055 4.591491098685553 8.000955515578871 1.7196777214403802 -0.49820677332742586 0.06518697822029419
P 2.208021393628591 4.933654623414775 7.063824702771646 1.0633630160922072 -1.5907818922072152 1.8653304584169101
Ni 5.460378855393983 6.769140923296514 8.206615350900288 1.7952843523321016 0.34607999859077815 -0.041636187483547644
P 0.4672170493569118 1.9179511692765456 8.602674302611813 -0.3407722132246196 0.2586897448005674 -0.04657630509764237
Ni 4.869830848010381 9.100711602404983 12.312772847195964 -0.4891302649474544 0.028644403209570027 -0.6665291839873295
P 6.579510578574197 4.452057565869923 7.071704843645608 -0.3474015456156791 0.6276615603878545 1.5986949764067049
P 0.6247995142769524 4.4585518824859385 3.898467955752673 -1.5737218514011349 -1.8102617995775403 0.8465999934324129
P 3.545730351405068 1.1567469530387842 6.767704217640579 0.06785038398507025 -1.0010793275616372 -0.4599166194979757
Ni 0.3977010331920712 0.6712218515692046 12.038412023193851 -0.7441605586185636 -1.6067528137141747 -1.4631543881635123
Ni 4.932525981495751 5.594215434430852 1.346685361498014 0.8623919661593471 -1.3208690249973187 1.7402146650514672
Ni 5.610367965501452 6.73938918221802 4.235586821150395 -0.7597635552631431 -0.0747810496666325 -0.31756337920832406
Ni 7.807695014389141 7.1977750711167445 3.0588786331224735 -0.3880601996773059 -1.8368583191191463 -0.3226243386709992
Ni 0.5595677118227619 2.99108610867496 11.46313676125381 -1.9272271959217064 -0.39025232223261824 0.649964594760429
Ni 2.5626924910997673 4.8372204974812485 9.447503484118524 -0.5767876563561228 -0.32121768813145973 0.5910310536490143
Ni 4.4950662239152965 1.9201714484615078 1.336232472118477 0.2193860621049383 -1.0168898122313326 1.0415289509362513
Ni 2.683272153169758 7.065215152611229 1.414511190133302 1.0719744119103023 -1.7635685092860596 -0.8019602432358511
Ni 5.184379650376635 7.335127092196471 10.64213857633236 -1.0258246528271173 -0.054939075240040866 -0.6789545542348759
Ni 3.423448475293273 3.900984272162297 5.310000271312817 -0.835090964351549 -0.40635951220712596 0.5433995678139804
Ni 9.256991503536511 1.535286051748304 0.7021198117769352 1.4250462684378813 0.5487775442964419 0.2634105473150044
Ni 4.123456246495513 3.7340747844327606 13.400144401751623 0.03351098727325196 0.8047997695671752 0.2942668705742287
Ni 6.8939298646546625 2.902663490133839 10.738204505967715 -1.2030916742748183 -2.613674201878886 -2.518045619339283
Ni 6.616117431636262 3.4062505627730864 1.0042970335013144 -0.5148099291017456 0.45727661077196724 0.8268420940791953
Ni 2.9864512758763513 7.102710117347278 4.622019012362456 1.4622442176444173 0.4797097429645028 -0.7144866857032146
Ni 8.653686142002648 5.098186562183747 7.043284344961764 0.5951756719450072 -0.3871703408731848 0.27439892800570803
Ni 1.1286326678591996 6.572599959611003 8.425977084141904 -0.894841344937304 -0.3751748590742055 -0.5739650993056631
Ni 7.7329641174886214 2.0500300272919865 12.522887117632212 1.646473015121932 0.12536981835777763 0.1054388837618055
Ni 4.209843609117085 1.3919392768691796 3.8853202025123883 -0.6614615396564351 1.2853721176422894 -0.24789111152316662
Ni 2.3587968526140686 4.186697198613854 11.894251145946908 1.2286787787153033 0.10880985711656746 -0.5058619758798385
Ni 7.129973295505961 1.2448180273756195 0.914158324173483 -2.271212773877301 -2.125247133646043 1.7560984261612598
Ni 4.562793990219915 9.096881620810922 8.643592197758014 0.8747497163937515 0.4644265915531873 -0.07926351091801834
Ni 4.616404481373483 8.424941878971914 6.169452766601485 3.375085577158097 0.667508002960831 -1.5671915064817847
Ni 8.685500892490504 8.475629002531948 1.2037770917579196 -1.734331209687497 0.9928921637651545 0.04502490145012246
Ni 0.13518724887438818 6.336056965943088 1.317633008362783 0.9576053155384023 0.684693256490866 0.48838053126562353
P 8.171173219294001 4.424868397017407 11.377903018692091 0.8295142415947199 1.4512720349036297 -0.9790298039607656
Ni 7.3419729530167706 5.650092460585734 0.4014237012921912 -0.13416813337569797 0.8917215683613996 0.6179515321889422
P 4.721960254291896 3.624874053185701 2.7653716016153718 0.8348888756430719 -0.5737298433664055 -0.08461911880297686
Ni 1.4762636300813912 8.690329999717797 0.26424837743093477 1.2787463847956557 0.40746020147047246 -0.1905699092041944
P 8.3589163267091 7.706866585902044 6.367461889898052 -0.3417692870305662 -0.9510374325128977 2.0286057935712094
P 1.160771209061528 8.048909845508748 10.804591778714412 -1.0060343575740673 -0.38885852720888514 1.0211532154933767
P 3.939311841592707 5.546553441260329 11.133465082288982 0.05414460436320353 0.7832901776301736 0.4162443754210057
Ni 5.571392814642095 2.2466727537734754 8.508272657248856 0.06782878671851543 -0.11726544408308835 0.8925466353658565
