# total energy = -340868.53904687654 ev
CRYSTAL
PRIMVEC
9.25568518658400 0.00000000000000 0.00000000000000
0.00000000000000 9.25568518658400 0.00000000000000
0.00000000000000 0.00000000000000 13.54663084955938
PRIMCOORD
 96 1
Ni 7.417663377709514 2.044340188551292 7.5619595082613875 0.3432407293697701 2.2306104269749065 1.2925627218534579
Ni 7.771036178757621 0.7321015514000554 9.80116333728483 0.28160675860805695 0.447840405059732 -0.11780820396043581
Ni 7.063263195616424 7.256096138779846 6.872273059354405 0.7149448562865558 -0.5476866252251084 0.4928573360900544
Ni 6.671229397947715 4.454279938154478 7.606216492087355 1.6549314303019307 -0.32315784257696606 -1.3443020592092785
Ni 8.979412145672304 3.5314140892085986 8.385201790741899 -0.16478894358534846 0.5736807352960249 0.5544252295005225
Ni 2.1006795436936434 5.221863158346747 2.2022893801793093 -0.9793830735351262 0.4542586498812499 0.03163845284088745
Ni 3.9388400911818477 4.099046744403296 1.46783133135536 0.4326582980026549 -0.575026450690642 -1.1678495632430725
Ni -0.04333604315952083 4.858281336644456 0.9618322831744487 1.2977051852863457 1.896419466512231 -1.4915277970998828
Ni 7.880928927830258 8.725288055843423 4.846131398826916 0.044095447657317606 -0.011613930089844515 -0.004191412373528265
Ni 9.102966285937665 1.2046644371936257 5.797104912253869 0.3770162831583184 2.0449898913561877 -0.46390311494954944
Ni 2.3157446424430566 7.3990687063638605 11.79337180513565 -0.3174479366763823 -0.43991112291032625 0.52836709896089
Ni 5.921583695459712 7.420801054954996 4.885714261682474 -0.10510541168178672 -0.06085544072447584 -0.8435419233323795
Ni 3.6431857423544893 8.688274571168828 0.03717360802665119 0.2867721048590803 0.0597930608982325 1.1494597478819752
Ni 1.365546755426639 2.694931549206955 10.438383009691083 0.48109248224464246 -0.3027466259104657 0.1740513427238809
Ni 6.850576807935121 4.932567465176166 1.8429244486039864 -0.6748107072698313 2.90057820433014 -0.9157256445854809
Ni 1.944073351972174 5.773650080667499 4.522583191844062 -0.30357632090061265 -1.6450121143056895 -0.4246079168943526
Ni 0.10938090968716375 4.354374073293867 6.097623123595981 2.110885722718048 -0.5526079737861257 0.3987611310345778
Ni 5.718995260211514 2.180685685610924 4.979632623858416 0.628884119941046 -0.4007161978784195 0.14732678224484305
Ni 3.1593910827042992 1.9722384017008048 2.0317098806775853 0.12388963426782534 -0.024662792854002687 -0.15985165418473116
Ni 0.6621702227031544 2.842763351463179 13.46713935303623 0.47201160298929673 -0.5084996706130016 -0.17841784722269274
Ni 5.574939777471978 8.7351361047791 1.6672654291249136 -0.042393891585178596 -0.581122793396367 0.13111469126135483
Ni 8.98822355787791 4.8046168744930915 3.211187747604517 0.41081446265468596 0.9118695040641843 2.0758852953834634
Ni 1.7955010949087562 3.1821785793956856 4.306839651377558 -1.573270365686013 0.11890580789998875 -0.45335619267163857
Ni 5.1713733961812265 5.16863371339461 13.309456725138805 0.5092090379752003 1.081431443558144 0.1821929979944088
P 6.699237101029817 1.6675319928555032 11.566736174455324 0.35906818332033 -0.2143698398372695 0.37515274758701844
P 3.589391700611866 3.5615598555464727 9.902803717531292 -0.2762475511786726 -0.8137693200556372 -0.01625014331027524
P 5.789616137447614 1.0331380811072028 8.929897932715262 -0.7431848249688555 -0.261350322351866 -0.4016523365394437
P 6.178891740959527 0.310513425670718 3.598215145208088 0.7961968583895126 -0.3896290868263225 1.3551731975958274
P 7.638383700048868 3.1775877595910846 5.773072525917888 -0.9227283011555591 0.07947794092166957 -1.268663803748673
P 3.4471040537245052 9.083603392729549 10.989731212538572 1.9913163130921319 -1.8548570696894122 -1.8729517224075938
P 6.285572767305961 7.072167164672928 0.3070545761526144 0.17528958600635616 0.0808892194468994 -0.09082473339305648
P 8.481567356055615 0.8250786104023514 0.9016444141717079 1.1156553977380206 0.4420294548049097 0.37311437700075095
Ni 4.692808198606842 7.132893714547902 12.108683377956982 -0.30196578188038314 0.9058605788659432 0.5174306545540444
Ni 4.482639357269997 5.3923991561285485 10.608772767648464 0.30077741799923685 0.8165368554984452 -1.1557329824851967
Ni 5.757961694440083 8.872564516994252 10.984082467928195 -0.9017720106188664 1.9473892726918787 -0.14528378367288527
Ni 7.565856151684244 5.502717666715322 5.245214326260109 -2.0449919482387164 -0.9552563556902516 -1.9431124996933955
Ni 1.4763650730082676 7.42028273658996 0.6439800247959321 1.5079034102444289 -0.47855814585856293 0.9026839809101743
Ni 4.537692172184849 3.4204847034058914 7.575370995956683 -1.0020141806710807 -0.9059492819250076 0.7128882308678433
Ni 5.557872294166162 3.550378987957848 11.655372317150448 0.300465800296089 -0.9057068268968983 1.7782127415617957
Ni 1.1975930937849257 8.64102429878478 9.71031971369576 1.7223334138956725 0.961111786029764 -0.7632607697831242
Ni 3.861666188902083 1.8425292308506467 11.54470949507833 1.0618432370135713 0.4892367086183317 0.829352776316191
Ni 2.0485422695821165 0.5671633919606386 12.241412678851981 -2.8121445968770797 0.7745229729605048 0.7286246677664936
Ni 3.3121098866880017 4.0785268905589405 12.149525939553278 -2.188833343038121 0.3141893205297686 1.2256639031483796
Ni 3.6524784501847702 8.536684960766095 8.664493013898785 0.7198286667414183 -1.8049478435637945 -0.6264397721656115
Ni 3.6037472681863343 1.4307993353105846 9.267629551529913 -0.1505190639298956 1.1338891471372279 -1.0170600192606098
Ni 7.485387225512467 9.058538997506043 12.911334537817945 -0.6288319265468718 -0.9452033423296238 -0.40960141618319135
Ni 7.719889262950715 6.870245138751203 3.072877268600295 -0.8580087494899868 -0.036961150605381514 0.6991629108619507
Ni 6.3560733206358915 0.3689316076842657 6.929778630818086 -2.0899217188718717 -2.8449580438626745 -1.5070508324361462
Ni 5.48288273356762 1.140115289376514 13.507602431543841 -0.14413938565579693 1.1152075115673246 -0.6708494086292381
Ni 8.550633278196608 9.245448302211914 7.504196628752205 0.7844980818953458 -2.435490582154186 2.0080637077537995
Ni 5.299351753919569 4.769982100886606 5.715566954454206 -0.4401101262950098 0.08065499194890625 -0.2294933257422693
Ni 6.720830614344603 3.449686389864593 9.825181840093176 1.0083581206112375 -1.5264863154529387 -1.4957618897858884
Ni 1.769020579866491 2.6124819064259355 7.009257198685241 0.3450356164866638 0.3733558035875957 -0.412362009647464
Ni 1.4903596688642287 5.540721509694539 10.56424551781787 1.3684508885413398 0.40858403066227045 -0.4598916797973112
Ni 9.000376272400976 1.3608078446605991 11.874055463201511 -0.36938730585815094 -0.37353320970572446 -0.30321019581044556
Ni 1.8803664714982453 4.277005801627214 8.687020425839144 1.6403190797053941 0.5323466524339283 -1.1055656176021864
P 3.0027848909828294 8.675899720203605 2.5355227360402575 0.7079432281577421 -1.333336047116078 -1.9721608232096035
P 6.335914438510043 5.5464507787652 9.32750550394512 0.7657588536146295 1.5722221269271568 1.9909298762869903
P 2.6503191470735343 6.5734338292876044 8.845069578866132 0.6035505262722638 -0.25213574573213354 0.2206908969592909
P 4.497328129507703 8.154619535939233 6.435747183458444 0.002816643513188698 -0.278989632700184 0.3387083887170554
P 5.6348333156888595 5.533085569495354 3.722004379874732 0.027475579712449457 0.12830498972670162 -1.1667187920727389
P 2.6695524606903906 5.755120199117478 13.540575809676685 1.1973357456276474 -0.165679830830734 0.21159921907066784
P 0.4929170628748164 1.5319176949179754 8.719655045897698 0.0034095399021812248 -0.5555459733685271 -0.14562805438618145
P 2.790727889887641 2.298279164678375 13.520201270088243 0.5706244649682043 -0.23359243551230735 -0.6874376520052227
Ni 0.10550925661404964 6.348835374895573 12.36652917876052 -0.6025210565664849 -0.43722611987899535 0.318814992227238
Ni 1.8477031588159127 0.21021049191974914 7.378212871150741 -0.15641691747156933 -0.04540799582115406 -0.2370811653918562
Ni 4.279014285291727 6.5147157630771435 1.873553361703554 0.0015449758896166942 0.5987608181931043 0.085535202859343
Ni 2.4379844754256483 5.8922801964650215 6.631238359379691 0.09339866476781979 0.2598485409953589 2.1405089449011196
Ni 1.2609297468552576 8.107656189792971 5.1898764362444885 -0.8616926260994773 0.0746910610559875 0.13852152524838723
Ni 6.976972443523087 6.964542058447323 11.576408365374293 0.0211933462481635 -1.3787134468096125 0.932317230395575
Ni 9.00356022807191 8.749102933579792 2.6555051074294167 0.11553123500080104 -0.21730218299271606 -0.8473358431571729
Ni 4.195416937559558 1.0261037604388628 6.230854082622854 -2.024742711071377 0.11948353478032969 1.7572405101855026
Ni 0.5656047345914959 6.530885444929237 8.547937097129914 -0.48100069386178457 -0.8775283075801532 -2.404776183789465
Ni 3.94676295761882 3.747275176875745 3.7594473283375005 1.6471456157089248 0.3323631632253179 0.05043424539115185
Ni 8.539470921978163 7.2553094055472025 0.8113052254200396 -2.547637988284419 -0.2083210625400283 0.049597351312153294
Ni 3.659262867355683 7.43797960648189 4.440070610404431 -0.8500043911282715 0.1597179568203443 -0.3361866507364662
Ni 4.716252848939613 5.888642712224683 8.125323441492613 -1.7511297693020746 1.2249465653663807 -1.2984382067976283
Ni 8.360706620151422 7.644464685152946 9.76965420853321 -1.4978573388623364 0.12818851875349535 0.05729266307388198
Ni 8.548004663631069 1.579519683335441 3.599543336018492 -1.1164676092266708 0.7169143213081008 -0.6812207245612333
Ni 1.4970330178140618 0.8309235755366369 3.2885800840524038 0.15177299094165475 0.3789674933474183 0.9882022144886531
Ni 5.674975221923847 2.0278465577210523 2.3325400086072277 -1.2880589204458335 -1.6670336128821035 0.9739814429035806
Ni 6.14206336998673 7.865555234895898 8.834367230196657 -0.2652296028016142 0.3646279367962946 0.635118530886532
Ni 1.4783920680429603 0.44912378887185345 1.0267766487449 -0.4293112359072928 0.48136861872416453 -0.8504203956197677
Ni 3.903085379679481 0.6979221574999939 3.9283200795086426 1.0345489200739926 0.49766092812628493 0.5881429334679419
Ni 8.234246194767826 5.236542674899362 10.290386456240258 0.6501720827855447 0.2980708177013512 -0.22337281466682823
Ni 7.660301162341802 4.448374811067109 12.8430868182389 -0.44085806020462787 -0.21326452258823272 -0.7755768681463159
Ni 7.010931552118008 3.437320794584458 3.493459301360358 0.1539046925726769 1.2931954703414503 2.7732265796556432
Ni 7.968645055427442 2.959699676889246 1.3953981909786535 -0.09505214121084275 -2.3488330927649415 -0.4406927382713572
P 0.8379042132314556 6.962922313556586 3.282809164398838 -1.31749650898066 -0.14440858015678357 -1.4824194070407113
P 1.8961196475212914 1.2360134425931892 5.285434905818363 1.7033170206941697 -1.1463975640168838 1.321307655196634
P 3.259963356891385 3.959656126949081 5.8394107976628815 -0.6058344372104341 0.5268326645942346 0.636114319140898
P 9.45782925228525 8.295500318692925 11.531636765457325 -0.865886866686483 1.284147244096253 1.3917288852326741
P 0.7286797246223115 3.209066344581907 2.2254943082682512 1.4892215175642094 -0.7376047597779167 0.7421952073620767
P 0.3372077470385602 4.221480946772776 11.665220366086123 -1.1544057790333409 -1.5495830493714022 1.6186565071302963
P 9.002921585800705 6.482422677798408 6.2545338273569095 2.470250611343191 2.168451179837343 1.2645256132105835
P 5.891604531453457 3.3181075706262706 0.8012109752609712 -0.39083184888517203 0.7271267430647284 -2.879989581545511
