# total energy = -381169.9517426044 ev
CRYSTAL
PRIMVEC
9.22332480051549 0.00000000000000 0.00000000000000

0.00000000000000 9.22332480051549 0.00000000000000

0.00000000000000 0.00000000000000 13.49926815350965

PRIMCOORD
 96 1
Ni 5.401741652209266 3.061470545917971 11.559801475726081 -0.8064149365730949 -0.5560833339292358 -0.43003937232256906
Ni 7.258941119729223 6.771497624981224 0.9293163861004565 -0.9909370969213126 0.20734172934589454 0.6478622037054454
Ni 1.103026641571418 3.9583651005223133 6.822759942138784 0.24551438376087395 -1.0190330838265806 0.5665443813615597
Ni 7.5380389295472785 5.464570941055287 12.263194364406468 -1.8445495171158168 -1.9985202870397385 1.7863322853451364
Ni 1.775342459518131 6.9041474829059855 12.52044949632594 -1.0638453550452645 0.10517560279808984 0.6000350569198376
Ni 5.291347677136155 5.913055111656838 2.9237386360034625 0.04737206152606035 -0.7905340036767804 -0.798647119702218
Ni 3.1450338690161725 5.178168257959771 12.598097901200866 1.1653543076250448 -0.643334233928105 0.9344129365823391
Ni 8.746792543820098 2.1935095613532605 6.0751836381195865 -0.09161277651199061 0.46104250557230275 0.09561624124442887
Ni 6.116493987769095 2.567155674160242 2.397456642664491 1.4724113879854062 0.9668126930692833 -0.578609797166526
Ni 0.21485642993822301 8.841829683025821 9.422044146065062 0.31592815759774623 0.32977354812127074 -1.7494778355209484
Ni 4.482037815262556 0.8543436677631449 11.228070762678456 -0.3278889295040482 0.5086477661550918 0.6876834494674414
Ni 2.8446025088309934 7.578815248688244 5.713025176407397 -0.7194777111599029 0.2743410781845791 -0.6436589642573753
Ni 4.604274539437 8.14633564974293 10.063663816594211 -0.10376303872127937 -0.042692653772520024 0.8395250888635025
Ni 1.820499857960603 3.574794690181814 9.314009497487373 -0.7014205965478759 0.799404823803849 -1.9111022653353857
Ni 3.1996175054505174 -0.020577237729811054 4.105735384900135 2.2203679233112923 0.7324818367290545 0.1571118866560649
Ni 1.7793269358512906 1.6462066883594202 7.711348892719955 0.3030482163112846 -0.4971055698434471 -0.35677630196235977
Ni 4.053955639218755 0.8144241955003052 6.725065563045136 -2.393094119465846 -0.7070389711759177 -0.2138327363868769
Ni 2.2091892135902302 5.713074982361561 1.5221778721675385 0.041061288816684124 0.5199768180146658 0.34537140255952775
Ni 0.40804634748240787 7.546533611729777 1.0224858020250134 1.6815212649753168 -0.6046339891444296 2.0985287438145925
Ni 2.7214434521720214 -0.004771225942461345 1.8001817956589443 -2.1773839635505983 -2.7764975370974314 -0.688524200201182
Ni 8.59476448039541 7.536941353890691 12.511823842930637 -0.4606984919693228 -1.2092019009376143 -1.5257856898414883
Ni 4.185129765168272 6.6217569461181665 7.17155380615017 1.6072035280983483 1.409488008988308 1.5670482960357013
Ni 2.0310406942037216 5.401234369342775 5.2218951187187415 -0.4176610532628742 -0.39851481935172656 0.4459984667549867
Ni 5.578488226219292 2.360377954453996 6.510332725659838 0.39185977592905413 1.232485039835271 -0.7445575369466662
P 6.253386575122682 9.060127335463818 0.3381483024749672 0.14416483957709364 -0.4768023395097208 -0.17035666748111308
Ni 7.804869717321117 3.2205083362250675 11.566699600377865 0.8628179979531722 -0.18264011283415643 -0.7862448893831233
P 0.21908993604220475 9.12955130157421 11.441062236332966 0.6201382554276158 1.3058239577387383 1.0338125561286002
Ni 2.1306249325581677 1.1477689903958526 10.220566407199627 0.0008101546061211855 0.4195168755246904 -0.3535359406481911
P 7.156165610978311 4.500733494723931 1.4853242330832683 0.8291229196935721 0.10368462007486015 -0.34038783330200734
P 0.9639942428537256 6.3166401369115865 9.622804568642248 0.04484492422883245 0.23141753934817566 0.3092489458053577
P 4.008438531107317 7.428456607060553 12.23321210233193 -0.6786015417708313 0.03410079833845095 0.3141944627360912
Ni 5.742810981662731 2.2534980661469364 0.18237741382806763 0.5489099561092482 -1.123545856229691 0.19464870725925834
Ni 6.219776779386496 7.337219477691081 11.685938743977593 -0.13604760978659794 1.086815847798509 1.4590277675896488
Ni 1.4987902873573717 7.776784693167252 3.3198075738417945 -0.8604854931652536 0.21509514803906826 0.2022964536125032
Ni 7.741791398704273 4.023048277662235 3.5321377351048966 -0.8717960330820663 0.978317094164457 -0.755186477415422
Ni 2.698661839804189 2.204789687639033 5.293832440849473 0.5099687989593604 1.4456251210304973 0.13355261127888612
Ni 7.959720118148457 7.9517788354566745 6.034010716010274 -0.5672797168656876 -2.077091914097055 -0.16587600600194014
Ni 4.534029697415377 7.087147471161109 1.09399239488547 -0.5809520721464576 0.3237890484030617 -1.7579110538899663
Ni 6.961664136641128 2.0783932439593693 4.440111347513384 0.19937208087685665 -0.609875440049027 1.5089650187397239
Ni 5.188830421480911 5.320834646666503 11.324238681510213 -0.08924453339013018 0.18909306754835176 0.4545152459767462
Ni 7.0750649156137975 0.9011621870102511 12.04561336430895 0.06445601359154061 -0.8088844811595101 0.3365869714986784
Ni 5.027182430242601 7.427774081022002 4.652805830107875 -0.2859249263674366 -0.8237025200089492 0.04766131063170502
Ni 5.500726374448768 4.684609698839356 0.16382746289924827 0.9660655304906136 1.086572621439451 -0.5858605651916685
Ni 8.800352391196615 0.22849219338947924 0.15150879023589744 -1.0438699403646021 2.0175017132382482 0.5457768097969052
Ni 2.790203338893555 3.3188013091011754 11.209738482215988 1.0538177956059336 -0.22945707318769515 -0.14885298908138236
Ni 1.8446649690552265e-06 5.3928595903832655 0.2432107751775709 0.7190557931311358 -1.2621445145729167 0.36530002316265475
Ni 4.126792235521901 4.184714715550235 9.155878360012567 1.3832229046441922 -1.2843799289323494 -1.3653586227692613
Ni 6.429404506469932 5.97574605063018 7.137508669481287 0.6772519697214723 -0.7089999515570305 -1.094197742084877
Ni 4.708691800010372 3.812673461266331 3.8181059996001987 1.4924263976547523 -1.1011692883067037 0.6878202321556218
Ni 1.1675161288895888 1.7295855449607163 0.9023021899611272 1.011116142972349 -0.44505847143922056 -0.4786576475509046
Ni 8.094823380482062 6.163376147957633 10.37607719808589 0.7335357319148658 0.9868153614434553 -1.6235153778844942
Ni 8.234031022371815 0.045923856737114396 4.262946956887866 0.43987718434859724 0.45891826014044834 -0.7963287559816867
Ni 4.3793637630849425 4.647587272910417 6.097633210792989 -0.6314313118429319 -0.5764588122617943 0.25414943372805265
Ni 8.333928853771 7.068018295432006 8.067540785589737 0.004267774137418457 -0.14667500759345706 1.472373335658619
Ni 1.302398031426907 8.024513975186522 7.398300946478923 -1.5813932519034635 0.7026200161726157 -0.7916557759860495
Ni 3.7906112682364306 3.817414250236803 1.2396618981618233 -0.47277676329009544 0.32094129454162146 1.4110381270842474
P 5.133785618804303 1.1193795965220927 4.02733158972038 -0.45619211945853694 -0.25443482617895535 0.6498699781640936
Ni 6.447131736822554 4.119367459021453 9.813130643821976 1.2064310230606963 0.023565188914449735 -1.0785453802596006
P 3.093890532749117 6.363181034080849 3.6519431908501265 1.512580246894808 -0.1325408821849201 -1.2016683115647304
Ni 6.996537527881117 0.9918210139119238 8.110063080123913 1.5736673440141156 -0.27374972445748336 -1.7859540760701114
P 5.4767733998255865 8.611550931613813 8.057052020575687 -0.7829718750588064 -0.7147957323032013 0.10885305164967705
P 8.119818590812761 8.555473116554534 2.2106806252177114 0.1866615752887237 0.24953610332575732 0.40122887584878003
P 6.994185580045571 1.7054481038406286 10.103648774463451 -0.5361351729420831 1.429135093795274 -0.24751058825529634
Ni 2.133364260037215 9.260218144657237 12.620060482322438 -0.4333591807244214 0.5333894918761459 -0.04504701293730951
Ni 5.928910007065868 6.498016819993942 9.3706388673724 0.10569882229141152 -1.081391591459144 -1.1956547583807988
Ni 2.2403363815927277 8.01954260309492 10.518251983578368 -0.2980229951825513 -0.36718258489734823 -0.41932969921454877
Ni 0.6688764401119097 3.5500946262461652 4.361330318347458 -0.14529278253394975 -1.3727911677879068 0.7921376007184745
Ni 0.7959969147919279 2.076078189423205 12.05774849280788 -0.42425413309935966 0.45822097696310765 -0.5119986849051957
Ni 0.8724850254013184 4.770165260104137 11.338345756861063 -0.46944307093117216 0.24673000133552994 -0.01632856195669446
Ni 7.188816180930588 3.4456865889976394 7.7220405708805995 0.21398777390750243 0.09372648042088375 -0.5760677474709628
Ni 7.454706189570208 6.863260483866877 3.7551586521961577 -0.2460856828833117 0.16485167850248383 0.23499162985267916
Ni 4.117043181160444 0.3153113501580635 0.19976983748880484 2.416352832883471 -1.7891697547939316 -1.1281080216790764
Ni 1.824936277211181 1.5537705267600628 3.084919927004601 -1.3621493718033444 1.2672370986044756 1.223727348247299
Ni 9.137271224469707 2.240751431210765 9.14051691248276 -1.2435240712582518 -0.18368372360732235 0.23718606640083667
Ni 7.134712157388198 8.537229380010578 9.863145967460454 -0.19718510052786686 0.46179738146045635 0.14494028429053749
Ni 8.05298637898389 2.74862459049105 0.31378488989617026 0.6047818275762036 0.3477928675168268 0.4526936193869752
Ni 0.5240130554270337 3.6410366092205875 2.0355140067536803 0.08339013149188218 0.6490523673588047 -0.8160506598906463
Ni 0.18977267568901005 5.729271140789866 3.1343412685230443 0.7918275256772234 0.13568868378528245 0.08884472684855023
Ni 8.83671996106154 4.805490594261545 8.579405799863055 0.7138215413153901 -0.43707699589564075 -0.05225535776029065
Ni 3.167870821333077 8.745003218800113 8.415511006692437 0.013901697682756705 0.2968626563258629 0.07186516157141817
Ni 4.167439428115032 1.5804259355629107 2.1430902560865586 -0.6252678633446972 0.8768323099543931 0.7460456914564184
Ni 1.302573274598967 0.3739836864963186 5.446657399540792 -0.8608246216722271 -0.31113742107732223 0.029735065170587497
Ni 3.315490135481721 5.911302679936236 10.13095811699783 -1.88226168695461 1.3330069459114333 0.5925999407980311
Ni 8.37233477842673 4.802502237011676 5.610039375850013 -0.6603443953328563 1.2085267292474606 1.1979672085640594
Ni 2.6128849187431213 3.908125650090094 3.309993956206421 -0.674637929137393 0.6488759896819405 -0.470656374512983
Ni 8.472370959698596 1.6541018544269765 2.45057653744589 -0.02229609239403902 -0.4940567557147943 0.35584119174260004
Ni 2.1767415567845485 6.004725737294038 7.8762158243292655 -0.6881930421140083 -1.598739456491395 0.25579236864811433
Ni 5.891518648143118 9.043423894169022 5.912868800494964 1.1517099773687327 0.8176971943551338 -0.11430044791749347
P 1.8414552520090706 3.5839995683773997 0.02892988070969312 -0.8369650414458102 1.372178216794256 0.03684082297743333
Ni 3.5949753249432788 2.362766795588923 13.040009530517674 -1.0952570365873266 -0.5013558604793688 -0.3303222215358892
P 6.1034983230621 5.19512072902539 4.990031800098314 1.4491583309947367 0.5993776258414968 -0.5865223671453834
Ni 4.9259287700911605 1.6942140941790822 8.914187588769497 -0.8003034243587185 0.46052597094720044 0.553158189862641
P 8.857555451887018 0.307947447601595 7.002219095985807 1.134921187946168 0.44558091960159385 1.2639160046510427
P 0.40377779274401404 6.926560162280006 5.119489465294125 -0.15644031451033702 -0.17608457110382578 -0.2922416126140838
P 3.38275584357832 3.180626679594093 7.29243931323478 -0.45194517125672484 -1.0062806692569186 0.7293031818907568
Ni 5.81521408169815 8.68188800688389 2.5247818751560747 0.29212591297182594 0.22074000502967145 0.05292333036159272
