# total energy = -340893.2733898976 ev
CRYSTAL
PRIMVEC
9.07063310104293 0.00000000000000 0.00000000000000
0.00000000000000 9.07063310104293 0.00000000000000
0.00000000000000 0.00000000000000 13.27578841702430
PRIMCOORD
 96 1
Ni 6.336934612220715 1.922339225943589 11.371243800327544 0.6497938735105196 0.45079074593730745 -0.2264825639404035
Ni 4.568868710274901 0.39715040407945684 6.04353682819557 -0.13891259003921883 -0.4276197071374829 0.15478015319909472
Ni 2.6586932030214 1.40610229692869 4.862097780528504 -0.011767682058889412 0.04083374618691032 -0.020093428315765396
Ni 3.484801092432113 4.393859919516841 5.317536978548584 0.2620422062125681 -0.1544703352681598 -1.7650155261452314
Ni 5.4554323678209125 4.452066170698269 2.637620308718035 -0.5415316613673061 0.7645478640256639 -0.34581594629611406
Ni 7.496025434601696 6.445256110055935 2.5955888100855744 -0.2972691477356622 -1.4005184584998462 0.3570616944132625
Ni 5.071281994782944 4.834774313108555 11.429338482724567 0.06263181589860825 -0.7014337091739984 -0.08529120516933698
Ni 5.482036534053597 7.998420577843983 12.511660003738243 -0.250919099716213 -0.4578389110333405 -0.28498621660325113
Ni 2.0600767862038323 6.542674707171182 0.367277181757357 -0.7671382504606595 -0.2380281026861578 -0.7624213046009644
Ni 2.790516710644852 1.7127985358170241 0.4876027551440039 0.2301358444222746 -0.045840455372882345 -0.5967743838906947
Ni 0.7423659925496907 -0.28185358956065837 4.391657569853938 -0.6220807238659674 0.1920575494933144 0.7529267348469678
Ni 8.68772518218094 2.209288697055397 1.513293593907248 -0.6430254444384346 1.1380857017170785 -0.416446978350115
Ni 6.776297927590202 0.5775879686153076 4.712347074083956 -0.02404212855086827 1.008341151330373 -0.19779753730088515
Ni 0.6811700607715044 7.253512993961731 2.342752175103284 0.7889692302928218 0.5584932289223091 0.9183975349906893
Ni 7.709502779397536 3.6929449050953864 3.597207096252529 0.7025341413270288 0.07552075604613445 0.4264814797679816
Ni 7.693357052873781 4.141950303214736 12.583906687552322 0.40585660442877847 -1.0919511121425451 -0.27594236123342797
Ni 7.939688229955601 8.812373819197484 6.76831577065711 0.05928423958261403 -0.15446750705468237 0.5136498473553734
Ni 6.692684833716055 0.7236188085163768 0.3006089371635629 0.05441765551893209 0.7867372556385096 0.532580108600973
Ni 1.7888830044020043 6.336072902097255 9.225251793624999 0.43596730777122983 0.7853460317179377 -1.1445021467663836
Ni 0.3002470189117102 4.934079601862532 1.3270979916201162 -1.2951672493558404 -1.2228590867097324 -0.17973090960716143
Ni 6.596527054570922 1.9416596739748249 7.033671693138326 -0.9135633468268395 -0.10596313169639171 0.12953757658222206
Ni 3.427166291122031 4.38354660993397 0.8483082633808771 0.706183565154158 -0.1404097434100356 -1.0286531234148477
Ni 6.153753181239113 5.514037726848996 4.606233368291366 -0.41602891697608996 0.31091039266818066 0.7807005625261264
Ni 5.285113094261046 2.984900373231419 9.211683940965315 -0.25041490638628483 -0.42008971730902483 0.34348935504546646
P 0.37576548000507093 5.53672337967816 12.43400994391843 0.15213191694297024 0.6811960419708849 0.1889493428816359
P 4.03768337827621 6.129915558034377 12.791089013130472 -0.6583831578414274 0.6608084794534683 -0.6753848346057465
P 2.1895147173802347 8.54947059584662 1.3123382578001974 1.748832745737782 -0.5785339496232682 0.15740910618150955
P 6.129017565379405 7.827928962259422 5.720895323770096 1.5209252764253935 -0.9167849390879308 0.7924481899803578
P 4.704628872567628 1.295993884416402 12.682161597018968 -0.09341820515184555 -2.39777995497729 0.2951266474713627
P 3.880924700869722 6.429981164288517 8.20514030114533 0.2334764787597334 -1.6219842859519487 0.38334633914140437
P 4.552931608307351 0.8624076551272403 3.7152695467359864 0.5316092600472715 0.9309414330939709 -0.054718474588802545
P 0.2573909997505925 5.490218244910016 3.6426636658599167 -0.32918039462196214 0.3844981933576604 -0.3063952784066465
Ni 1.5123375492018525 1.1121775091333048 2.4487588474279076 -0.16297734429790645 0.3593371207110005 1.575417751046319
Ni 1.9448253248494265 6.398750975287791 4.903996847920939 -0.09821871186428245 0.20261295641165747 -0.08909283830361431
Ni 5.887085645243664 5.68401231635948 9.318727386627954 0.6869681685679717 0.46637060265343555 -0.0790706781809219
Ni 8.668123544530468 2.5434598829327513 10.14628657729923 0.0009366528816564516 -0.28422928383256857 1.0318803721028937
Ni 2.231167063558374 5.154305497519987 7.1344219337098504 -0.34959263972972693 0.7150338164559363 -0.008509580132907925
Ni 0.653719604491256 -0.06687414796013638 8.962896436499996 -0.44732669864810704 0.4280472815932047 1.3864774070257475
Ni 1.3296005792312984 1.1019186233477047 11.404805141978049 0.41628654151285077 0.2970704014612949 -0.7230785411372838
Ni 4.053520703282097 6.7754090055681075 1.775065709338163 0.8750340804033898 0.3018277136406221 -0.4948856793739928
Ni 5.6036465090558405 7.981431282462524 8.064616242464805 0.09316803681425244 0.211789480704603 -0.24266585856848533
Ni 5.344534810248194 2.962831523437993 4.891437649637348 0.4355384477639273 -0.6740275492469037 0.23293886108870848
Ni 0.9145284187104726 7.450853682866694 7.325248094081464 -0.6498617506339776 -0.6535710811647647 -1.629397547696884
Ni 5.0956457146946335 4.6266032885466455 7.364703532976427 -0.4119732588494776 -0.9015786636611376 -0.933724909376379
Ni 8.01059336716695 7.230283103159855 9.178096294479465 0.29743395544830065 -0.7533046870116769 -1.0904434172487671
Ni 4.4586514501680705 0.25632066507092777 10.231370927826271 1.0802865313204233 0.3393660769057123 0.9643526615645651
Ni 8.18462252957413 7.058113420492772 4.907129844517178 -0.0016367642724746006 0.18705392563113593 0.1590787805744486
Ni 6.987562037963684 5.963179184461523 6.973293932445782 0.8491425573486087 0.6488613343939212 -0.3527826074219344
Ni 2.2689643907631436 5.371873697744037 2.5803220278877466 -0.35775923470091936 -0.4375094554473691 1.4005272002505944
Ni 2.4068380105165654 5.3333870024404995 11.204048452731039 -0.42026146700019884 -1.1637147151390925 2.4173185392308496
Ni 1.3637605826517845 3.3746836092869463 3.8738613990472226 -1.0547966145794352 0.0712468112611289 0.5983509843491952
Ni 3.800313986478363 2.920235831440489 3.075428917612146 -1.0447618560512524 -0.846156221026775 -0.6303622471484692
Ni 1.0701532670071467 3.354437956702102 8.366759930711412 -0.4439127878705516 0.40044186117111036 -0.24720385564815492
Ni 3.5422816929832597 2.7445830257480544 7.0498945200415495 1.543362265272671 -0.27592384929066677 0.5859572386705327
Ni 4.338828389842893 6.56949656859295 6.034310180431545 -0.29916173677268476 1.2048636785735765 -0.0519365409682912
Ni 0.574525722955521 7.28686571105603 10.94790557206453 -0.14669351953621831 1.1497950197342068 1.9804014659518412
P -0.08316409754666067 5.51810137037857 7.941682862125585 0.9650730846703574 0.5968024089151529 0.6430897220174666
P 8.580464948392505 1.6441429155595477 8.007317961634516 0.47719340430055235 0.03537812238897778 0.12534127911268736
P 1.9185749132990055 3.1767896117763943 10.493103132472521 -0.8765116933901806 0.638139834211359 0.27891121405376484
P 3.918758310606006 6.0284242467566775 3.813310389266699 1.0421951237653406 -0.08989296560740648 0.4925526603654421
P 6.853153399969856 3.9197923627541567 10.44132796000196 0.2561206985218105 0.7494295203269867 0.6697561755650594
P 6.361425320992703 7.8481474029456315 10.41222755560111 -1.3425223416010363 0.032504143275292406 -0.6242209101374218
P 2.3787099779602916 8.254339413878391 5.9495179042831925 0.2851006306939283 1.5786473137272103 -0.2806605926447037
P 7.059755205043782 3.8842989763005296 1.3835626812888695 0.8823360133814416 -0.24048479175676646 0.7205146370648494
Ni 5.354303881858354 3.1586211341207298 0.2936263639736824 0.2457090162701833 -0.17324813009629517 -0.04431630541887206
Ni 1.6202145860260262 1.1135290334322034 7.170864108362571 -0.593539679003481 -0.07673765917237106 -1.3947324479456884
Ni 7.2980588720281165 0.5162296725085959 9.320214063356742 -1.1574967592538388 0.2676577526271326 0.10517071770208337
Ni 2.792630168105546 1.6730510225433735 9.185066168783315 -0.39564495400309924 0.23064569417915762 0.9448462161005211
Ni 6.253348730245203 1.9322262157811696 2.479559088430192 -0.04055143905980113 -0.19141605925457358 0.5405996364713399
Ni 4.1040804109469375 6.900166490179197 10.409531763509616 -0.07117327771071613 0.833101701835662 0.4551341105076678
Ni 8.4009571237267 7.184775738008349 0.4269628531612706 -0.8908687334428012 -1.1765566040987672 -1.137466580075841
Ni 7.511010120117002 3.904227156734626 8.376464600828136 0.35746124384452627 -0.17207982081980688 -0.755030411453532
Ni 3.114664847191448 8.552092008748511 12.508514308255974 -0.24575452479613802 0.14084528828555745 -0.5448422137977778
Ni 0.0018250113351571278 5.084516048152697 10.308025939219311 -0.6113815922809084 -1.554713171509116 -0.6541912312472669
Ni 8.71354020335319 2.201714718601837 5.811051065139515 0.29706705902718517 0.5020734553716838 -0.43530781981036
Ni 3.76320602737236 2.823515673056888 11.636599722808763 -0.8949501026010265 0.5302383478416739 -0.9625783432729617
Ni 1.0244735598309476 3.1677371201636366 12.828579752943948 0.15797294910477955 0.7479832747987635 -0.5829855576367184
Ni 3.1577684946301496 8.491736017574874 8.263820039363015 -0.30834006083784316 -0.22534639345343122 -1.0107150508791884
Ni 5.672928002981935 7.891223838485698 3.496603799933636 -0.9251577365326583 -0.12952909194178983 -0.3149354546671737
Ni 2.929224828623097 8.309144177730376 3.543879031433166 0.9486357650499404 -0.3564279174840055 -0.4299126169367177
Ni 3.3200058342952605 4.467295763301295 9.188863135706262 0.8937581391754543 -0.7531743320813996 0.265823013411239
Ni 7.261903329374357 6.237266498151597 11.532199459566923 0.016673604000939028 0.16186328529812125 -0.10735692672012478
Ni 0.5101051811890228 9.087050724024664 0.14423848284427485 0.28138101575049607 0.9530583195976684 0.11293647769043132
Ni 4.452274795254475 0.20262161136683374 1.4631647413041375 0.27956633113926044 -0.3228403113365472 0.43699266371195067
Ni 6.01277740504124 5.696420942137288 0.4363083262160041 0.27007664648127033 -0.13185465475117294 -0.06225129263073796
Ni 7.818767623052122 8.834061702410013 11.730937932998463 0.4854368752562672 -0.6586127573537303 -0.8755159051358149
Ni 0.19857429497644055 4.837114536391212 5.72929926513204 -1.008304898775799 -0.7598183197604784 0.6116181337717466
Ni 8.056590546493895 8.989831680832744 2.145951188854593 -0.3327460004860334 -0.28762314000546596 1.071862054702154
P 8.550314164704321 1.4380127833953045 3.718760833330927 0.1909242072198196 0.3815583940030461 -0.9218075891135028
P 1.8719337190376835 3.1926904312124305 1.7862570561836744 -0.3443373048680586 0.312856460650958 -0.8571515436960142
P 4.68392061770598 1.1800077017988366 8.181841473533575 0.9015028161178796 -0.6596018607398768 -0.3342382687608437
P 8.454501069608572 1.7200822540184715 12.367326279248742 -0.4049654600730768 0.28148977341421844 0.40276099622259026
P 6.312516468511753 7.685293260244781 1.2724447073372027 0.006594622498382191 1.1471714660684307 0.40444892544797445
P 1.724726418052271 3.1845812854190383 6.1583991593994885 -0.5009861358447759 -0.33417656228497283 -1.098134872355754
P 7.070866730319962 3.878629830751458 5.922754094911847 -0.6576483365579319 0.3462607471430165 0.04336731124204144
P 2.293981196242087 8.467308803233035 10.288496866631869 0.6809291614627434 0.14019145675164243 0.9826470889983785
