# total energy = -381163.8735201438 ev
CRYSTAL
PRIMVEC
9.30239638957059 0.00000000000000 0.00000000000000
0.00000000000000 9.30239638957059 0.00000000000000
0.00000000000000 0.00000000000000 13.61499741678202
PRIMCOORD
 96 1
Ni 2.6815645116489044 6.195405099188533 12.262020384972514 -1.4476102697813262 1.3306741840131986 1.4684896843334967
Ni 3.1838845981819297 9.121938909505204 7.8786039039349545 -0.9672369250908955 -1.09160478454672 -2.486665305255788
Ni 8.53270653629135 -0.2374241251981289 5.793820659927979 0.12158926826942286 2.190294243854363 0.9963775512105938
Ni 3.0615952991659636 3.264117764469219 1.056232192027899 -0.5141432420520242 0.8653700749510645 1.682854896185076
Ni 2.907947622926293 5.857839749828167 1.343070645262907 -1.1234054739970847 -0.39676878319489733 -0.9832798374863712
Ni 1.6272309386632353 3.9968023878067016 5.2230395893611785 -0.09828787453932104 -2.3841068283655718 -0.19868148256773524
Ni 5.403027000133308 3.9827371649166863 9.719582509264793 0.2925514305450187 -0.0009189122698435787 -0.8748949837223643
Ni 0.5130048186834698 4.961312024134971 2.1055052615399115 0.17935758542814273 0.3597425836795353 0.5510570843592381
Ni 4.7607895739913415 5.349538222608448 2.868434765288972 -1.0284782883998802 0.7208211125616747 0.43097653942485775
Ni 1.635956586196856 1.3466520677580498 4.428481938901766 2.0142652085788213 -2.881025736119509 2.855969821592146
Ni 6.389508896029181 6.426653363621662 6.546444969287119 0.7569008890033675 0.05561373270956228 -2.4265179463419306
Ni 5.141750601117528 6.972443547089238 12.335840479394477 0.7320560620455457 0.25288779340680967 -0.41455670330593763
Ni 2.4667070691286113 2.1181555899844433 6.701111257898785 1.5371198839073852 -0.32192217039765203 0.7258571323236853
Ni 2.056015584094693 4.568704397102501 7.421657184576756 -1.4665824400084548 -0.16641362367296503 -0.20753276231077808
Ni 0.4469531552373366 6.187023640310291 11.47387487613882 1.2599269380963076 -0.7859139884062658 -0.4009085163948838
Ni 0.200221052510273 2.21588656331943 6.235450984121885 -1.2026936675054511 0.038357259621959745 -0.6193738664577656
Ni 8.31402580897754 2.214891206937663 10.873753118060515 1.20425844088941 -1.893516691043139 -0.6906944683796234
Ni 1.1751530934192127 2.080173906743747 9.329880950771239 -0.8466874109398966 0.15092581245001102 -0.6811209657585753
Ni 0.7803212634813176 2.126462629693956 12.434794717815466 1.6122153794906429 -0.1836004198648967 -0.6402825915859747
Ni 0.530652394308237 8.20057378624829 4.145425839917472 1.1225169007445441 -0.7895718968738273 1.7223336710059887
Ni 7.777938024633169 7.458689093176533 1.6663670492588591 1.6296361460702515 0.802100111247825 0.07411256284469817
Ni 5.538451282430161 0.2705322831266033 7.089083500958971 -0.20813388622988674 0.3571069458289011 0.6961287520213173
Ni 6.972220289583047 5.887933001183457 8.588121840046714 -0.9621605390092525 0.8074186952472611 0.2978306766660871
Ni 8.803862079956069 1.032872945203086 3.852118500440588 -0.269362136912749 0.14474050957490556 -0.26366894318271367
P 8.608455947662641 -0.04645430560063378 9.82447260663163 0.6115962793948757 1.1185211493215899 0.24699019697545205
Ni 5.529465167805985 3.049883582487042 2.594610364185665 -0.19310758802438355 -0.4356016969016949 -0.4207661745507592
P -0.26687551122312114 3.6599161133609983 7.859107011967241 1.2877372754403564 0.34241154860025547 0.24004127646144466
Ni 6.996034423576724 5.3705430329825585 2.3110091447904226 2.817235638246742 -1.9168093430224922 2.4960614017587077
P 0.24778141300615997 8.603925680766189 2.2035060043615458 -0.14840150336626054 0.9215543354521161 -2.3020986648228803
P 5.117136461060002 7.491210269911647 8.011799332128337 0.012177001682166125 0.7139938052271962 0.12583133137522848
P 6.908163990098494 1.6155192219843137 5.904075449120655 0.418870243079627 -0.30485158806861046 0.9922411604447169
Ni 6.1646141681263975 1.5846724765456297 9.498162226302103 2.5848675620598387 1.1405704158121455 1.1670736043089964
Ni 1.1011804397013545 4.4550942336396995 -0.09784353232769158 0.14406893742917767 0.12963964937772512 -0.873866799568166
Ni 6.7440232110678595 4.0794448746816325 4.709209648144412 0.33242384125992425 -0.4037364727619821 -0.7300989383191749
Ni 6.559770651687877 9.022189316218409 -0.04907199986071996 -0.23324970746090798 -1.0413489737149615 1.11297502269238
Ni 6.375285532405614 4.001983822429544 7.266664381862286 0.9917742481106273 -1.3314203181506037 -0.5441624141219339
Ni 7.131877313697686 0.096574685500841 11.556586200744828 0.9184299308905215 1.5985412244376598 -0.7947812089889086
Ni 3.3058948253151574 1.137078386217604 0.2791909534083667 0.8906926128762532 0.8669708437792811 -1.8438738312050311
Ni -0.020397363909349535 8.775861867721316 12.008672418145332 1.9846355586378466 0.840383837319372 -0.4954433516496758
Ni 9.143743725943164 7.0931979507501435 6.565587439963755 -0.8994829574743735 0.41259495159387655 -0.21789662204360535
Ni 4.56171829763795 4.6458119583031205 5.216246049495716 -1.1774042968110432 0.3511250172138533 0.5264272016256998
Ni 8.306862963987255 2.6974064921923535 2.342977759197715 0.09191462402312559 2.675036149926135 0.03960167355202212
Ni 3.279513230000288 3.4980358165805447 9.10549227321582 -1.35723445100023 -0.8894610544619972 1.0426890326826235
Ni 3.5366314579632654 8.40966374319199 10.060298580181277 -0.00568162376580957 -2.20651970457429 1.8961548999969347
Ni 1.4775925951389064 8.205838942435955 9.823520041271882 -3.1464129475449103 -0.14678993590476655 -0.19662948513471296
Ni 7.884962091663345 4.707086841356381 12.796055130499541 1.5051240477270789 0.9697956869570071 1.3989081765899327
Ni 1.9170191816987883 6.948592203511197 7.613737710267551 1.3387325355413011 0.9984909980091707 -0.646837619095673
Ni 4.657895770825694 0.07193356849464955 11.894225039034316 0.6588714103317556 1.375196949015922 0.2885585073355417
Ni 3.3990025077927783 1.3857500385296992 2.6082653514080545 0.47342442417642333 -0.6283141063701889 0.9075893886315918
Ni 7.70381653257785 3.9640393487732135 9.44775998380033 1.0463824223738107 -0.8243715210515158 0.9573057820201126
Ni 6.604087266666735 3.359104530957279 11.73684896244126 -1.4403754425957838 -0.2903963318752289 -0.609935346752685
Ni 4.7096077906971185 6.423416129781897 9.976688644112853 -0.3305384513117533 -0.07299387585922268 -2.0049560153627533
Ni 4.164645520481665 6.942675879597143 6.042322078391603 -1.0747409189118458 1.196370553500901 -0.46074194361274845
Ni 4.195110867680608 4.972140013185221 11.551752675735798 1.5708175332701464 -3.1409177287582937 -0.44839987710762774
Ni 7.585769126179508 8.350602830408453 8.164286999575426 -0.06793805860287008 0.002519166877427919 -0.7169518594142555
Ni 0.7834245428173686 1.4326806268102068 1.2865027746318336 0.009015059014416732 -0.05599631285996162 0.11222171101159382
P 2.143402292976177 8.081465906695543 5.763323684582327 0.5655856169927164 1.7577598730240824 0.24416326904961821
Ni 2.5586519520948223 8.511013348606486 12.44620410662142 -0.7400755899159125 0.21669385998475582 -0.8283965830505088
P 4.41447066990908 3.200861471048516 7.30770004173975 -1.119655777146665 -1.3613518156027136 -1.2284090699936845
Ni 4.484061895067945 2.2636729720403355 4.776630624295182 -0.58665143652408 -0.12378216215568359 0.882410575373119
P 6.954182943562056 3.7848379904707965 1.0021089910896142 -0.03259824565099547 -0.775059305079949 -1.845849466874163
P 6.507202811376055 5.589958649587579 10.873861956094782 0.19672924393737087 -0.669699354185195 1.1844812582624824
P 1.7564970347476614 4.33685147692344 11.088325907260415 -0.4146443779237375 -0.13444169875205877 0.5136665595259217
Ni 6.422644030906319 1.1445016982984453 3.916789688306775 -1.1938403308798795 0.3202758930434807 -0.11169026398815604
Ni 0.7272399309052561 -0.020595504946093794 7.601743200747454 0.31717848506507956 0.19625410407316524 0.37516097511713453
Ni 1.509983538328743 6.151200112962771 5.253986800677648 0.5307250576701054 0.6841918913744152 -0.9165262861099053
Ni 7.969762734431453 1.7276968164490587 8.077001686811336 0.058795215761337456 -0.6047782280317777 -0.29540612638499447
Ni 4.245232177820424 0.9073966452862473 9.365592849365662 -0.41363033483692635 2.710131450967371 -0.7819048672468727
Ni 2.105327585774568 5.806220753917655 9.546822130015979 1.4763773146116896 -0.5099433450380637 1.535210325589498
Ni 2.137513876250397 8.828243660111314 1.0886445307287458 -0.6103742340623165 -1.0880024119074423 1.7990499900221208
Ni 2.5618147667658575 7.271003949638868 3.0018348461963633 -0.26857177980096975 0.5527067041475191 1.4818357666230997
Ni 8.051986613482276 7.048304587213627 12.657059658343245 -2.3936937007230585 0.07997416383179776 1.6948547488594294
Ni 3.855126895336508 9.098329428225535 4.803412222641976 -0.3161572428894168 0.5821193529816813 0.113523717652469
Ni 8.422668492927599 4.9425211840305865 6.209990326020051 0.9662462790428521 -0.8467164644056192 0.012853973144532703
Ni 1.6251099923544234 2.907240640823356 3.132538162476892 -0.5499288842920659 3.139842236305928 -2.8095153867843483
Ni 0.9828818686085475 7.107263173640159 0.23359525896695804 -1.044400873167408 -1.032376852123338 -0.16586443603771436
Ni 7.361218586932101 0.7032285861144442 1.8783249349175002 1.5048872491259244 -1.1013371813431354 -0.29243727356465765
Ni 4.437903405663014 8.273048754195452 0.5659438245993348 -1.4980383445248908 -0.34445146184841974 -1.459204402376829
Ni 8.574316154007645 6.165990922747906 4.014940199705479 -0.5136447051490509 -0.17834354234133157 0.4377588524540138
Ni 4.834492458222552 8.337198077640918 2.7142587129513167 1.0271426003075923 -0.40510532808505073 1.9990705031162541
Ni 2.7797792095806377 1.5167184730988297 10.95898353152804 -1.0225004735498906 -1.79771250215762 0.02006360351909448
Ni 9.336535884934941 6.124334793051155 8.596141435717005 -0.551646638314121 -1.2763588584000858 0.4704473438259704
Ni 5.631819431998338 2.2704544187908784 13.695870322971397 -0.623025861388056 0.7993760274484426 -1.1314465991340064
Ni 6.521835480427638 8.531320479273749 5.228022882947276 -1.740544023366428 -1.6371882473858965 -1.0932168662288462
Ni 5.932165894597494 8.404761380451886 10.047718019707428 -0.37269631562672584 -0.2795146519657186 -1.7632090690641118
Ni 4.347846909103333 5.267844580134828 7.635140663194368 -0.27040934723034077 1.1030953016848226 1.4614163224264833
Ni 4.655244587939678 4.90941395634172 13.933996779074416 -0.1459972648001421 -2.4295366785635966 -1.3496095874651206
Ni 7.95702775418249 7.037374271806372 10.2745578786329 0.5661543450119926 1.3616706323947128 0.7098268183337001
P 6.302689633309265 6.475537455081338 4.124772660115613 -0.2084982115478409 0.24856216944826223 0.939679070077285
Ni 5.913402961681382 6.483621237284661 0.9545951425741835 -0.9911129603775447 2.9482158608127613 -1.7816140539338607
P 4.706268230500349 2.4933956435144933 11.305226155962353 0.13313275013264814 -0.6228235155692629 -0.4647842320029221
Ni 8.163606064181545 2.132992911750035 13.451821031277056 -1.4916866912752502 0.17135451261800813 0.5220894934822944
P 5.298579696820417 0.838386819883087 1.529236707518865 -1.2727857963368467 -0.5612900749411559 1.1154291406598273
P 8.849313587258063 3.4570494594023655 4.366301932708823 0.729163313878783 0.16337123730221542 -0.23170627423318804
P 2.6482340264538484 4.9968750843919345 3.5817927305072113 0.19316518073519637 0.3970508332116904 -0.8195692145668659
Ni 2.962552687982106 3.1297725601189548 12.42338532900951 0.179692085949426 1.2022907756400776 1.0003288225488578
