# total energy = -381164.421545986 ev
CRYSTAL
PRIMVEC
9.29020328655481 0.00000000000000 0.00000000000000

0.00000000000000 9.29020328655481 0.00000000000000

0.00000000000000 0.00000000000000 13.59715157802124

PRIMCOORD
 96 1
Ni 6.9338547297413715 5.1677777885539 9.710351835313766 -2.9725523806755967 1.8623004133413348 -1.404093320335298
Ni 8.704530321571859 5.91793383597114 6.666887731078873 0.11086108321864134 0.048841189872419116 -1.542858329053059
Ni 0.7181754515111499 3.0340967922281203 9.752978075203353 0.8981141021513049 1.7332120084813891 -0.9515128294874193
Ni -0.08937082691058632 7.10816681461994 2.079779236667651 -1.5695404663299357 -0.7443125108153955 -0.18756506093959954
Ni 1.6510084828755858 3.821367201905654 13.347140348652779 0.8278589653794839 3.016253163997657 1.6604096798076824
Ni 8.700145345605186 1.0234645388654406 6.442969676556986 -0.3495964963844689 -3.3364866338389763 -2.001989476535262
Ni 1.4059886605344176 1.241700705037291 10.83954074599262 2.277956006138406 -2.747128854127327 0.12964504869436383
Ni 4.815586180722183 5.346010339233178 7.79226951643751 -0.7499853928304567 -0.3381692283841337 0.2624242721423351
Ni 5.7055504978904 3.2700029251131317 8.827855912593872 -0.5771645800795673 -0.5578676795231683 -0.4844112622052302
Ni 7.92759990818862 7.2685250141130355 10.137954810548605 -0.907629754951224 1.0314597396257075 -0.014257281249962542
Ni 7.652015316927211 8.753461822454202 2.833198003490603 -0.2271767617939507 -0.2993702532390651 1.844503751479546
Ni 1.9046960649135882 6.6449851477334745 0.7043423387688279 -0.05354836554010132 -0.41919368785731675 -1.3454935084142183
Ni 2.4975132289164805 7.36928655931332 6.901098401858126 0.048631130744142055 0.2737384116035737 -0.7100510185293643
Ni 1.5469396252936578 1.419886804699974 6.154098236508426 2.62200406190082 -0.6308098762088491 -1.1305150884586725
Ni 1.7473293108892822 8.283423985518153 2.295212548498092 0.809851987279102 1.3641831144039216 2.576470853355711
Ni 4.958088609435733 2.469317461842641 4.440843533353386 0.709744543032539 -0.18182455891139654 -1.354803987181867
Ni 3.535516935976504 4.971234247132434 0.8556602414119884 -1.6736724583548597 -0.3377647938568634 -0.5532592342168795
Ni 3.426775106125007 5.127579078791625 12.017543171971662 -1.2475542754635676 -1.0495132546933086 -0.4635539591402469
Ni 0.5420378416803552 6.895662703896049 8.374336057159399 -0.6054569992663573 2.1568717025298594 1.4050227741281027
Ni 5.0247829790644305 0.9065984262112841 8.676777697196348 2.3036099592610846 -0.8132589560781219 -0.05068698483190625
Ni 7.603195298484698 5.0896285982326015 4.678059584906408 0.0773539526001313 -0.149534074308807 0.2768646159373812
Ni 4.939582524423843 1.4697380357109209 1.1941125675549067 -1.274639561716134 1.364231965363986 0.8793887578276597
Ni 0.4985169552111266 0.3155445427983801 4.046008963266108 -0.028477795724718695 -1.2644780478020996 0.4045330005213485
Ni 9.081851929382072 2.8474473173416257 12.226503999149601 -1.3082135410168374 -0.2857272085343337 0.44499059431576266
P 3.6317913129736046 0.06815757665147419 6.642154422782108 0.21916469012275158 0.5086811904961885 0.9853650021501739
Ni 1.589163599379523 1.4781642501214554 2.012147485524045 -0.3506750741606283 -0.9779903069526575 0.749592271157096
P 4.449700813197933 0.3624879401704103 12.619244557408726 0.44083234917301495 0.22133084453613497 0.11324783828326303
Ni 1.4447195181722552 6.410565447379539 11.930874865206638 0.13654306136577773 -0.5524105130633389 0.42900476041046764
P 6.424537913171649 6.643294330729376 7.963484247529449 1.6819089873320388 -1.4606992417548004 0.49352428025009204
P 0.25306235135461885 8.034381505139761 6.551529418423426 0.09475877834014003 0.44319879252266253 -1.5417481267080155
P 3.626207900778752 0.5940982830406131 2.776008440877802 -1.0872472789089727 0.11170414794522697 0.017433879205731265
Ni 0.3659857017200975 2.5707386114785904 4.117122682613759 1.2311609217072088 2.2068426351313475 1.7600237293575947
Ni 8.736785907496198 5.011665211977688 11.016371404991027 1.3523701809293935 1.08861356312888 1.9354392994188538
Ni 4.317333996305654 1.7470877656029824 10.818016273922312 -0.83630889591905 -1.1903701129430917 -0.6042524374352949
Ni 8.874541042313627 4.591933826015226 8.615304421833052 -1.024880286635977 0.41307780476756606 -0.08570566699893627
Ni 4.216052199719493 7.300789890240694 2.3443261373654924 -1.3620257017412865 -0.040753270657962075 -1.8382379730754923
Ni 3.1997132467998957 6.623803484165648 9.107358182594997 -1.3833997965416887 -1.2494404367426868 1.4127666797395797
Ni 7.755248056210409 7.746561716106935 5.188387175597262 1.2521598925563788 0.0753070973734316 -0.5181551914248947
Ni 4.223521523188148 4.390206351141634 2.8650968456074843 0.20773639368115193 -0.18898585254652614 1.6542143496302477
Ni 0.7545781841971905 8.211452780404137 10.554530314443527 -0.7958140211287972 -0.7382413649206512 -1.9496389879580034
Ni 6.478300319779988 5.917534357228413 12.155649476474558 2.816076327831318 -1.5540495697831882 -0.6562018339193925
Ni 4.7056830754557835 6.49822780589972 13.144815513705762 -1.4327125267338874 2.3196960661896693 1.6096018531271956
Ni 1.645536553120564 5.036256380163669 7.688129124290024 1.7522235165868854 -1.2131236045895237 -0.7173884327310419
Ni 6.4107419612426035 8.292695608430735 12.80434256834091 -0.4307155724539872 0.07584651481666939 -1.8019774480815614
Ni 4.686954025564231 3.2468424482383105 6.532058081286668 -0.8613349856497423 -0.19473663898737428 1.7332220357837183
Ni 6.5964252549839 1.5728035513343726 12.090151685033376 -0.0002925915397543348 -1.016722433415533 -0.7374371238518009
Ni 2.9433593764092763 4.535941770610274 5.195784035480027 0.27013166808892186 0.02595297242033595 0.18475073141925602
Ni 7.531094030524214 1.810010312684075 7.991766413494157 -1.9982870879830101 1.8483334096382813 1.6262011522467734
Ni 5.018409899587443 3.894118784098483 11.026528384279935 1.2894727700742243 1.327131975187895 -1.002690637912815
Ni 4.571885567252344 2.73009346901321 12.909693473980893 -0.501629940076362 0.6885625096382851 1.31963566681085
Ni 7.357265036218246 8.515837001955136 7.761852461750044 0.7693689395633911 0.6807070181496082 0.39136278168797756
Ni 9.176026720429029 4.82947503468442 3.0695844398872176 -0.7589130343373898 0.17838699398475727 -2.2056907809150914
Ni 9.034434731640761 1.0072810046833554 9.53617167132233 -3.217157365248324 -1.5917877077639102 -0.570451943946082
Ni 0.12323640507014726 3.145291235755892 6.747532270011714 -0.20445335205450593 1.8228069832324028 -0.2696732403952646
Ni 5.603246778939123 7.721199461045459 6.042438353794361 0.10120067731074184 -0.18933218014235134 -2.446656883183651
Ni 7.659131612669736 3.129135572183764 10.22134646260294 -0.20061418081407387 -2.7005947151215297 -0.9455039042891782
P 0.8613588521279993 4.701883382298221 4.838029453900759 -0.6708203551635157 0.30077279001354656 1.3205643492727064
Ni 7.079803823886354 2.5630834839435512 0.7062533335915919 0.6387049626862097 0.7156624511788707 -0.49379424608202704
P 6.895244644746684 0.41592054456091715 4.78185995561241 1.2115660302944165 -1.0114835536140967 -1.0432395058694548
Ni 7.977367527369694 0.006110166723052487 0.6788583820438693 2.4500515106874965 0.870945769266629 -0.7657333996933329
P 1.9224960944732181 3.0260979271702704 11.507867753553818 2.430839199425104 2.110755882008404 -0.5574922984616206
P 0.916894758549978 8.804641552539799 0.27954221787539807 -1.785259621106248 -0.7193008192624064 -0.6365118116896328
P 6.6496395395964045 9.476936405938638 10.005803526373331 0.7807339868672231 -0.17203534073511662 0.21862655823109445
Ni 4.277878502808917 6.4137241165080745 4.434207541122466 -1.441079410641344 1.8321508863411478 -0.6550291537675299
Ni 7.001041480145987 4.298800040683806 6.9107657874321085 0.33922312356994483 -0.7144558324652792 1.4258353399980799
Ni 8.672228284630924 7.255658082515912 12.65390351893175 -0.37558803535222407 1.586968689108712 -0.4015371511178181
Ni 5.743055048690099 4.732903371181105 1.0069251898962293 1.1286911478760562 -0.352405940808806 -1.1093867911204893
Ni 6.452770841058766 3.6656726844788077 2.943184720586875 0.6730903821446149 -0.19934894094840508 0.5866154410798219
Ni 7.209021261853416 2.4042581679981274 5.164429599277651 1.6054572348312028 2.9370588157546766 -0.5333272711796427
Ni 3.008121383747575 8.575480107264543 4.78077207280373 0.5460748006532983 0.9347152983141064 -1.1196940865837683
Ni 1.2011210969389279 9.370191969800773 8.023992270767875 -0.448244582476686 -1.6259810658161673 0.5151639700070547
Ni 8.845490576534418 0.3545271649461687 12.05042120151839 -0.29415837002082246 0.01931258428568287 0.035315130361526274
Ni 5.747532926689965 1.2007680692127976 6.3611694363312346 -1.587838493308175 -1.9699399042988843 1.4030065150290225
Ni 8.915770964644336 5.438661536935783 0.2812952792417353 -0.10487992593454196 -2.0009972878253217 0.7832500684208575
Ni 2.2625454065667108 5.904537362784821 2.95772017270013 0.7257548024178663 -0.6659180327658918 -0.6420828780195071
Ni 8.084232736150708 1.8592576804792722 2.8966417309779033 -1.12646740075186 -0.8204287343536839 -1.8680679119527313
Ni 1.8397668339155437 3.7016071909175596 2.3088096900761057 0.13870870155852885 0.3141764650139621 -0.4144137499701702
Ni 2.9788015020721095 9.009453374915372 0.570662816147543 3.2786797501328375 0.7875849483507855 0.5422687966436468
Ni 2.917885638907969 1.4648513887650099 8.585962243669622 -1.3434847055143058 1.2936220163559076 -1.5884951530555675
Ni 6.291427880013833 6.293062955798016 2.7881507366160254 0.6178936823678132 0.09220335890813798 1.1639247742673695
Ni 5.345090609104576 7.303734884692887 10.658522063337905 -0.4662965548823905 0.8014971875565035 -0.9883585375608592
Ni 5.2840353928906465 8.8545671051773 3.678328728460585 0.25339378650895067 -0.0689562154547393 0.45212000627169235
Ni 2.749695798016769 2.3021959943331516 4.250564376030072 -0.6328060807032715 -0.7617219645410945 -0.9134088235268463
Ni 3.231067683002271 3.571869501564621 9.228971589145276 0.04677299448948074 1.6271840849853332 0.40212927617586225
Ni 2.3482939832031327 8.693261304945644 11.943819834511642 1.5668246100606693 -0.16091557667287126 1.8127349437083815
Ni 5.45123118202669 5.066068642615054 5.480318808619174 0.7923108930715451 -0.5425027670313238 -0.7752984176739487
Ni 1.2432242983816433 7.159811054871496 4.398025915275423 -2.2788070412847916 -0.159985351549118 2.143407349494838
Ni 3.0448362672651412 8.93972110880129 9.80895805334399 0.7014144259002888 -1.372785511360952 -0.1905935633532782
P 6.987208367403666 6.590591007299428 0.8082718433009675 0.5388011498100205 0.6307944495898814 -0.9251525943263358
Ni 5.930419869232175 8.896967593126229 1.2701222240517878 -1.2982042364099513 -2.2694888492076597 1.300113280507206
P 1.2608571042815273 5.71461773632996 9.941217103877767 0.8734142854117797 -0.6604449254664626 -0.1520990068225058
Ni 4.7259264284883695 7.872741257588612 7.97579005084609 -1.613922849100053 1.279906466542028 2.731670610590728
P 6.940320711251551 3.790495856275878 12.086290676533908 -0.20031798972989373 -0.2301589843507262 1.399400799955635
P 2.5181374802851537 3.1225859788437127 6.9806420516976395 0.27520085508171316 0.5825255872811645 0.630903721474236
P 0.025493246928277834 2.9846729105698575 0.9480745389299519 -0.11907550070863362 -0.23039989671693867 0.8266916845442601
Ni 1.6492805050582102 1.5430841909161805 13.237602348376825 -0.13577610129276618 -0.8807766393141218 -0.13320371257989963
