# total energy = -340889.95822414407 ev
CRYSTAL
PRIMVEC
9.09606339289631 0.00000000000000 0.00000000000000

0.00000000000000 9.09606339289631 0.00000000000000

0.00000000000000 0.00000000000000 13.31300821967896

PRIMCOORD
 96 1
Ni 6.381961914151521 1.976438167943829 11.540261325858273 0.05919450808228515 0.4845773554694493 0.5427827601655878
Ni 4.515577019070303 0.39470457591536356 5.996645385423653 0.626044850720038 -0.07251050846490092 0.24073907385941767
Ni 2.4080190950875844 1.3734146350546 4.442511069411365 1.1393787094968892 0.13529401945002503 0.9773974105636651
Ni 3.3196083917026042 4.001476603422573 4.949097226962411 0.3320147787469637 0.8151590013143122 -0.4063168318946486
Ni 5.06194117212143 4.460272952700796 2.715294127395968 1.0730380772881263 -0.5603950739307123 -1.125627678459384
Ni 7.205146569147257 5.915588543938133 2.5289121468798896 -0.5458197472196986 2.3583960538630286 0.6406322616159096
Ni 4.9761380046767645 4.442017153160729 11.88114085533697 0.7945423535052252 -0.9326597013366582 -1.7517293505592866
Ni 5.599354798641702 7.796609005267467 12.117885920503491 -0.04427002556196891 1.4911056219607997 0.6747153193425477
Ni 1.5597111125733314 6.3775867075851185 0.2705151106934021 1.8318135576063872 0.6303493916326628 0.27461181534746254
Ni 2.441983796374384 1.582678673031063 0.27952930966909 1.2724106723856152 0.4874467065974443 0.6270925752582619
Ni 0.733461993768403 -0.2441838259357622 4.984630089604819 -0.6840458527148542 0.22651855938466153 -0.8378081061723958
Ni 8.794465368568082 2.6171739803014753 1.5719334931622633 0.559866455120752 -1.0255585436499242 -0.18148620173537133
Ni 6.894643343885825 0.8784605235682466 4.881960091523808 0.3000562235624961 -0.30220618002596344 -1.1202445597705997
Ni 0.7938343867466425 7.376525502447898 2.4432699797600166 -0.6793751867120623 0.20434382305983517 0.30684882100429733
Ni 7.578630938412386 3.9438348487213273 3.7301719544132372 1.3849442582106728 -0.14076841230103498 0.9861715572118693
Ni 7.702355594787065 3.956969564484085 12.946394501493646 -1.0104134604783694 -1.1768677075812828 -2.2729202434867117
Ni 8.05258132956094 9.008213765873517 6.9571651366803655 0.8837328937289682 0.671194707783799 0.579605328310576
Ni 6.855139139898527 1.0531422375430264 0.46249117029126524 -0.4869224586628582 -1.667860736769089 -0.08084191114873174
Ni 1.6789332174919394 6.648431095778944 9.334868871176454 0.35582088002762585 -0.2593723726898888 -0.9803752622450665
Ni -0.014819306731776635 5.027094152670512 1.449773359717775 0.917887171013174 -0.4768938707822626 0.3588828067824013
Ni 6.4334001535132925 1.9953215958686805 7.0628704911672155 1.2176124935988126 0.5275623436714076 -0.0165069965160877
Ni 3.4850657876337463 4.681489218178827 0.4861209241752631 -0.3810631995341825 -0.5807741518076965 0.654667142442421
Ni 6.0212848023614365 5.768805366470248 4.854801974589691 0.6840016297404801 -1.3934808349267742 0.11096469867604114
Ni 5.190732335892131 2.7545700201882215 9.42301427498463 0.20932302144198145 0.3135460305188148 -0.28392357966669163
P -0.12985358399306215 5.607231989673938 12.559958247343067 0.35556325549086504 -0.3615588109526676 -0.31463720670046463
P 3.960507933204108 6.249987128139155 12.351343668303905 -0.4766221051781146 0.01840832730385862 1.087727818089817
P 2.493576668816464 8.218820986957176 1.3500586726833854 -0.8150067920071641 0.9609732035693708 -0.19825159411916823
P 6.567121383726801 7.994703077207457 5.785034563051905 -2.3254442815273566 -0.37728444921804055 1.294096384889165
P 4.620545592409797 0.9585977530291017 12.687230368501316 0.7721611575965476 0.30105998223666214 0.34981915391823626
P 4.091682265624284 5.991204120209469 8.376491242885205 0.4456809355145679 1.6993086708657252 -1.8222182006084682
P 4.726496540612432 1.2241027519204768 3.993250123550108 0.1753896019193302 -0.8201729095891359 -1.241984237574958
P 0.18980846765446613 5.6773808317531556 3.6633004240302256 0.3334723371290967 -0.9845918714295753 0.19695395835366725
Ni 1.4129461272325408 0.7727742708148463 2.2518551472830417 0.15909703540689374 0.6985041942320293 1.0236780387977598
Ni 2.1426960174671614 6.511353418116365 5.005398221896737 -0.6109478471775994 0.2450922086217908 -0.5275541161412914
Ni 6.2102737146902625 5.842765459175917 9.176483664653583 -0.623661438089526 -0.43253334238901636 0.8709295713167129
Ni 8.560896648792387 2.5111502635904586 10.485618237829888 1.3256173383155816 1.004221986955677 0.43571893920584964
Ni 2.45829303831526 5.252667432587851 7.109053025011174 0.4391400490722566 6.530602029666172e-05 0.3639352816046442
Ni 0.6338664651664868 0.12834363744415786 9.210191856948342 0.13405037685091106 -0.6590202772047941 0.5813235965532634
Ni 1.4719250032752853 1.1032888358810358 11.539529092742688 -0.71871615040353 0.32206100996836146 -0.9750420229576112
Ni 4.104243929383542 6.915691634935009 1.8201941747800674 1.0858509127820783 -0.2973902466945588 -1.261469342882763
Ni 5.938583392586508 8.107194095100828 8.036251166673903 0.11893974646171773 0.3184828056987999 -0.40011096019425285
Ni 5.5894128011841575 2.9986446933614124 4.878618197776414 -1.4833231498019035 0.30115562727426204 -0.5911765780879432
Ni 0.644561616685774 7.256684865208053 6.774537101590388 0.6254110737907811 0.5317391007569164 0.7025197431493256
Ni 5.128924584086077 4.351511320861946 7.321875443047465 0.6394780934068084 0.4112394660072466 -0.5973423405790229
Ni 8.290843618127203 7.306758695037681 8.821266010204777 0.07760566359962119 0.5291147757601921 1.3210541444249315
Ni 4.930102827062278 0.46090026877678714 10.343142956058152 0.05060445242042897 -1.524831296348019 0.20734995687601063
Ni 8.072247018950886 7.094520244281147 4.775309656034361 1.5114703016600808 0.03701334399955561 -0.8053623269388647
Ni 7.247588801660436 6.090906072754892 7.111742731002204 0.04625440298184937 -0.7808805397474163 -2.001145383367412
Ni 2.271559949746243 5.475957600554739 2.871935618536761 0.21128888691910064 -1.4440914579947903 -1.434493015673078
Ni 2.195771548267503 5.155994469203783 11.424544843830914 0.515624454583241 0.8608989265535885 -0.1762205824610578
Ni 0.9910797959576398 3.2943122389766835 3.7164996612948147 0.013933065141324393 0.3972076705045288 -0.08150011355802093
Ni 3.6788210372615233 2.6414240857194207 2.714762007678433 -1.0551740525235116 -0.11245131052389665 -0.656632750809224
Ni 1.3757250351956944 3.329750502558196 8.225042694423747 -1.3042836098348118 -0.11729475465912702 0.04682338811144194
Ni 3.5433533628468723 2.587311603674651 7.149284914082282 0.706239615203074 0.3232966821476755 -0.10326244493577698
Ni 4.250326709958261 6.910907105508963 5.907128295232496 0.5691872183010455 0.49739276206656274 1.4398331969390687
Ni 0.5966117176945143 7.187090883005239 11.439588823332317 0.3290508110226333 0.8185597994657452 -0.8086551387575236
P 0.19780481711917572 5.497760864878375 7.970245581540625 0.5762646939731172 -0.032346277541189454 0.9258323940021796
P 8.75917264200333 1.7308808364123769 8.172496554521876 -0.3109965246240837 0.6923949960104978 -0.7522420500751174
P 1.876727119334858 3.221707459739609 10.41190464844636 -1.6385535031645393 -0.7254231301100603 0.44563002767197446
P 4.203518366942228 5.9716202953914514 3.7454688044812636 -1.4559979796243894 1.7541821829751532 2.3489503350690963
P 6.655862579697347 3.8795529676303224 10.401586983564298 1.583191738564783 1.4499204059717417 0.6383030992621007
P 6.5744528109461795 7.901677635305984 10.179871344197503 0.29453169419984115 -0.45579488402011825 0.2922763225067611
P 2.6136901879627388 8.461885997076582 6.1384148126640925 -0.6352455433826995 -1.7067887812928542 -1.145006340096312
P 6.949610855904071 4.086633950355357 1.5193737091650716 -1.0213416773550992 0.1466804069100958 0.7924579601723707
Ni 5.3438645657162525 2.8986152825282745 0.44061149903382874 -1.1168005670860572 0.3638213817345992 -0.1791084455318141
Ni 1.7066853073757169 0.9408695251747973 7.140525404885927 -1.0644909590490634 0.802875813071585 0.03663770582769174
Ni 7.333291912406077 0.8308599134172151 9.55759508320339 -1.7279042231152308 -0.6355137094424217 -2.1537087314208456
Ni 3.0149448392387406 1.4655668548555014 9.357513521378246 -1.4799619466391545 -0.1845995505533724 -0.5778880885091531
Ni 6.468429094235163 2.2690312440800056 2.466048342095958 -0.7853735425217636 -1.6092714663709704 1.5069094217622758
Ni 3.9931900895306938 6.917765537423865 10.308727999625747 0.2259449462693786 0.5685529271511564 0.2629194666111988
Ni 7.789887014305778 7.321221436078391 0.19941118194168475 0.4609023804500127 0.49892616799195366 0.38417397724902225
Ni 7.796190586344276 3.870575152908825 8.320843345313598 -0.3582325747929121 -0.9109145963500829 -0.7801511177805596
Ni 3.1809479989827403 8.345820226208998 12.527607187729615 -0.48985454470798856 -0.10190773068009547 0.088928287701292
Ni -0.21900046439783144 5.031533031681748 10.147467527415476 0.6205131222685313 -0.037931484938450805 0.5458935378804276
Ni 8.613417319716323 2.411957690603702 5.769591266360761 0.9253587967998708 -0.15550700406279022 0.35117181129138875
Ni 3.603360094070498 2.466897914431305 11.441093312243092 0.7882683475710552 0.46906074789108887 0.9266386919535589
Ni 0.9944817237244483 3.5068235716396448 12.555697651177365 -0.19186728785937923 -0.6434851576836724 0.7372134378767691
Ni 3.579255525669314 8.329165333853311 8.290769030406114 -1.2188828756708041 -0.21701936164497465 -0.4901844172435816
Ni 5.489083220253948 8.01014819311131 3.8171858079160903 0.16234639558212688 0.36351696312030296 -0.051527735565646736
Ni 3.0533393234732293 8.311091455584197 3.525750660669525 -0.14622737853307718 0.14465052096426056 0.4406495437382476
Ni 3.4357014507608326 4.321967306459288 9.395855248444159 -0.03434633869035375 -0.34425862911132327 0.23383180521662308
Ni 7.098158669700194 6.038394497894503 11.516112186745705 -0.126138321092686 -0.37493009005325106 -0.6220434428701287
Ni 0.5982781165364377 8.828093515503618 0.12042369491324825 0.3242644453775835 0.3726878309862936 0.27746291164301246
Ni 4.589091404662139 0.5503291271515325 1.7019480774801186 0.04838481906129086 -0.9512577760538198 -0.0874856417174945
Ni 5.785987830511695 5.872773372819503 0.27436638399946295 0.3515734176051816 -0.23708039406090783 1.539297351174678
Ni 8.220503758713486 8.967281479909245 11.459771169131768 -0.6040516342783985 0.267802505735113 0.8356506935097607
Ni 0.41718913539871655 5.005472809617827 5.836715667310398 -0.8512151236069211 -1.6228255509063214 -0.7870298471782639
Ni 8.178261639598356 9.00515748852152 2.2018249785584416 -0.7921789954793711 0.18262777153898224 0.2544952471032456
P 8.857328263745657 1.4023583092631153 3.6412542948098676 -0.6360410427008013 0.2724605733324147 0.4607547991285549
P 1.903114799686493 3.487194266503889 1.5397561683625705 -0.2253628485136635 -0.43615654096390044 -0.09173464680183556
P 4.927255759171874 1.1044986123328688 8.145124680094389 -1.1161976433947356 -1.4172141739879722 0.4900198666412593
P 8.527495903445539 1.779954099251767 12.716439647765421 0.9142932830143286 -0.6629031571989681 -0.9167684840276985
P 6.31232245163097 7.8159108521155085 1.765624160738852 -0.3832933744162818 0.3898789980535995 -0.9599234221486177
P 1.7886226478126457 2.8855078549561592 5.921480064297925 -0.8160318908375687 0.8556613323037328 0.10270425843946183
P 7.0626294454832035 3.983275380263792 5.966171753326429 0.2916263476275881 1.5152310542540934 1.2819612921885277
P 2.3051699045546856 8.497669911072904 10.404795165177543 0.6214196932432008 0.23235727755362565 -0.4479974994628865
