# total energy = -340888.9572586948 ev
CRYSTAL
PRIMVEC
9.10400718060965 0.00000000000000 0.00000000000000
0.00000000000000 9.10400718060965 0.00000000000000
0.00000000000000 0.00000000000000 13.32463475597025
PRIMCOORD
 96 1
Ni 6.729144857715408 1.9931402583534594 11.32410016581213 -0.08602294112903895 0.16537438377517324 -0.17760872105783604
Ni 4.696365752767736 0.393570775767365 5.971755201143903 -0.20814082820842217 -0.4381231777719681 -0.7820624758706596
Ni 2.8497180714807615 1.7803067820834773 4.721330760836328 0.10115953966016127 -0.6588775809793428 -0.7945037869578059
Ni 3.6381068719781484 4.0740977684863795 4.794323047573526 0.18689503145576844 1.594968162374421 -0.23853512422956338
Ni 3.852560861498881 2.896339691464446 2.635732938321903 1.1782255071607581 -0.3388428574123907 -0.10471100445684547
Ni 5.175892010877604 4.91494385747156 2.4692543346297233 -0.07530478338058644 -0.5837946838015753 0.35762785132937763
Ni 5.320982570861979 4.778629560260916 11.6300476051497 0.2702527670478185 -1.0183877369330978 -2.2087313675136286
Ni 5.715322635223099 8.159520921713964 12.327391783376665 0.004830588619423939 -0.374560108308342 0.9681524949266294
Ni 1.9850285880926777 6.639907380839782 0.38445038152802596 0.28427196414504596 -0.22583901681913363 -1.26334701952145
Ni 3.0638716287696135 1.9582810154482593 0.24073361620397926 0.07931930385661823 -1.1329704919777004 -0.00520391279844265
Ni 8.155278454439525 9.032149099229322 6.710325964790535 -0.8223591186071774 -0.09394785240307046 0.5400648470137924
Ni 9.078579535065446 2.3308260869874817 1.1994665817770784 -0.7744268137022727 0.223366386908925 -0.18277303886759488
Ni 7.195697905812241 0.7655568612751483 4.669164800573388 -1.6060565589780986 -1.5947452477303372 -1.2014909054466016
Ni 0.9026987127245188 7.625716573710963 2.3411381957466144 0.6480576075457033 -0.08268179257094793 0.3625823671211756
Ni 7.737013059612261 4.059931933552849 3.7339092483207197 0.6301344474083792 0.20695812075423067 -1.1687440500328838
Ni 7.882822836151744 3.8925274523460547 12.38604707984823 0.5737884645184829 -0.16022677813596276 1.1319585057734183
Ni 8.162516140025744 7.219759796383785 9.234904439720756 -0.40373158766597567 -0.08085888042959621 -0.18269333466959503
Ni 7.16260484027022 0.7415031643099281 0.39953116916773956 1.7547663376133975 0.43175404102083065 -1.9266278717748109
Ni 1.9751871564968246 6.6626491903924565 8.995980700113684 -0.3666259410629299 0.32882095440001435 0.8677357469697637
Ni 0.09590707242337894 4.750989794927882 1.521180340483474 -0.2900662022293198 0.605966334802608 -0.5195500148898924
Ni 6.319291565380806 1.9215099310674544 6.907251099182077 1.4307965406580971 1.6816145960200717 -1.5948138961847438
Ni 3.4720770958323848 4.59450101814609 0.3307904537120066 0.977516966860665 0.22628330344540382 0.34735629420004044
Ni 6.178024688347642 5.640351137358299 4.7378536231890696 -1.3721640757268692 1.2831445138633515 -1.60080122411643
Ni 5.183020448379503 2.841497153135659 9.484927784694772 0.9280394289558275 0.5601400204971128 0.4212922222575583
P 0.22173992634419384 5.740276718483259 12.597562295900747 2.248453368693599 -1.1401287002890363 0.4642607553992843
P 4.06911787664278 6.3928701501705225 12.37084429851436 -1.0282116650020547 0.25080545695648415 1.4568089055614588
P 2.5705619040213357 8.547014772791012 1.4066018600490544 1.1631873818807128 1.1388179518974129 -0.42919142249997694
P 6.37037414880757 7.926931750196062 5.7197462722373675 -0.0886351819409054 -0.3447731068538965 0.08721619010619173
P 4.774924229401052 1.2769371295707055 12.242128205568191 0.1796524909607422 -0.09885711677922975 -0.03769340078571573
P 3.966351845325492 6.28598910767717 8.16209826610322 1.0820896459674332 1.2293776045545408 -0.16680803089790627
P 4.8205899286469345 1.108922679893123 3.496383884192947 0.7563843543782651 0.3997528055238857 0.12322603254189747
P 0.2631786351275832 5.958554390955202 3.454225048453746 0.048424156939658534 -1.5132978417871228 0.7140112887286929
Ni 0.6743338004670019 -0.18938519577203672 4.589084133965209 0.3918500057370413 1.1633958983470933 -0.8390741173690128
Ni 2.0356104511329725 6.54180260112016 4.806155525506116 0.3568117831859855 0.4016821613361147 -0.9036149773648761
Ni 5.949887376265791 5.620695586187673 9.074555563959649 0.16860934577270317 0.3284687132669182 0.6789270434310501
Ni 9.103460786269393 2.2518124100028305 9.923921182720406 -0.3194973630062433 1.309494721722106 0.23093648594669905
Ni 2.6626034150611813 5.293961878006759 6.798548344882684 -2.0907588700611863 -0.6723640455015517 -0.15036659751243137
Ni 0.5308009360848943 -0.046423152630502715 9.098540070471465 1.067585538813987 -0.04696119924088686 -1.2302530651809587
Ni 1.6858071891464248 1.3948158125523005 11.500185317718874 -0.05902301550142738 1.4752735400245496 0.34447665865940025
Ni 4.314015665660767 7.122701977472233 1.6066979200879932 -0.631425398305661 0.209678090788555 -0.8136320231468246
Ni 5.555501791869538 8.204749628622563 8.333213540574093 0.6874463937559708 -1.4144258126095575 -2.127528473481052
Ni 5.842988125758387 2.861316576432766 4.5625678030992685 -1.3826431208813221 -0.4672064682911696 0.06538443894308094
Ni 0.9650975768854589 7.72169101578634 6.869342013922935 0.030477856873883 -1.193167473182571 0.19630706879828771
Ni 5.222868687135329 4.384371431963036 7.222418166435579 -0.22749352170342108 -0.5016132279058135 -1.333582358798929
Ni 1.0308102996041144 7.578011576891102 11.488460267069199 -0.6775872415737041 0.11361627736627532 -1.199104407492296
Ni 5.0330865566569285 0.21014233179289218 10.27529215471695 -0.7155076707685614 2.631298856939184 0.7647491814031927
Ni 8.312222431572652 7.1853921698580265 4.9905817686507135 -0.585245814425805 0.37986557968165546 -0.7368660818396794
Ni 7.15445675398133 6.046735803015731 6.841720456603955 0.5213785834581988 1.3287479135247633 1.3990485588225388
Ni 2.3915133978274037 5.520733589034606 2.4569830435584468 0.22315375667748663 -0.7841610102709011 0.8062511573017211
Ni 2.320766159222988 5.544995767760736 11.30816451191261 -0.2452999537572227 -0.3325122872086725 -0.33020652189363137
Ni 1.1027228511079465 3.5343940239300844 3.5872045478905137 -0.5735812336036832 0.3428735758383385 -0.06746471851087736
Ni 1.7235524022790853 1.3928584510415618 2.563379752877979 0.18283448823314966 -1.7627213307944156 -0.1688677416404124
Ni 1.1366899013245306 3.270059179910111 7.861961004050082 -0.49909843190375974 1.0747319200507812 -0.29399124831533885
Ni 3.2859365681646606 2.6812757334729245 6.833219134842431 1.8329880375304624 0.5102323370333922 0.6242540773682023
Ni 4.366354602057214 6.646462265899 5.942347437646287 0.6415249486335081 1.526508426940126 0.2917836991410588
Ni 0.9037748063550737 0.11812175996920764 0.2224518596936811 0.2002899647054357 1.164053072315118 0.2026147561838704
P 0.2809578504500081 5.861350907931222 7.874672018660747 -0.5656702062867226 -0.33637691237040135 -0.8461587921299364
P 8.800169896182208 1.6324850199910956 7.838002899158641 -0.5678641286142477 0.29517704109332393 -0.5556645012242625
P 1.8343481677939149 3.6018547159978644 10.209601281615159 -0.3026316975991562 -0.15059542569378578 0.03343539684031016
P 4.0519021993553075 6.328932708822072 3.741770558388268 0.22985739394990737 -0.31877745412108327 0.04020639701555656
P 7.0708455534482 4.179503961841408 10.34863039372116 -0.6215230515902844 -1.2718041491498677 -0.29597948238996125
P 6.25971494339814 7.440204222528081 10.321568732834324 3.6048010462135016 1.1672921480777059 -0.29331581951486907
P 2.6414912227662852 8.509069271503764 5.655281708882072 -0.19814257934512972 -0.0007309646287535799 0.4652370032696246
P 6.925354417154652 4.139118586671007 1.3035754541308033 1.4552251060141066 -0.04684267138515159 0.916153476151519
Ni 5.527315786114903 3.016467064181634 0.06710199419092863 -0.4071179876397053 -0.04774538570507906 0.26569831490791657
Ni 1.6085232734968449 1.0133306061128677 6.659745922551645 -1.3868376185786437 0.6895413286117867 0.7837966849529469
Ni 7.004714046406318 1.0040900389807763 8.907331342091982 0.6859698092104444 -0.28560945200954685 1.2375891938310557
Ni 2.846850309267354 1.9454534695476517 9.048359694141048 -0.0699507181575247 -1.505882266049342 0.9644143680404359
Ni 6.594059601453367 2.1653698632843996 2.3167540233263253 0.35944819236756803 0.09949269348069963 0.3220409553637035
Ni 4.3042106500930215 7.094078979380316 10.329536559784083 -3.6382528981140436 -1.0227208170908129 -0.3698254218368341
Ni 8.502514386444545 7.594180293370505 -0.04234364708184248 -1.1636404102577314 -0.030741909168547056 1.0106916538404207
Ni 7.739726053706215 3.9733164107009102 8.085468018158156 -0.5248205192602123 -0.9338717193668885 -0.6656115572690665
Ni 3.006234160283633 8.604397329080246 12.339370835822386 1.7301709076622203 -0.05175065020973023 0.3230971645423597
Ni -0.025135252999991167 4.872373520614754 9.786237642852948 1.2648688554826153 0.47080241317254395 1.4997224170955334
Ni 8.546768964601291 2.397986346823381 5.4515340316247265 1.320187682659578 1.1185203779906414 1.1613361876045871
Ni 3.512061894693611 3.2771512013839037 11.5226376198481 0.5585580207219736 -0.9219289451827155 -0.4500710941624636
Ni 1.4431762978780829 3.7287554699429104 12.739243405253626 -1.7959793215165971 -0.1956288117843405 0.03865679314024956
Ni 3.1649352107729105 8.55637369201445 7.8371107064700265 0.3545978062538022 0.12012553923970279 0.8561596120963899
Ni 5.645704293489993 8.126609936312475 3.3012577015898787 0.6882660614437889 0.18182687290424168 1.1012857592799097
Ni 3.223282791806973 8.715675606967489 3.599982932153177 0.004811305345714295 -0.9994636463350852 -0.7151302328244846
Ni 3.4237894425628155 4.383096870979299 8.871741957823243 -0.34411953243029764 -0.660747544308546 1.5242401997312394
Ni 7.580624426907763 6.142600997006787 11.628102078848098 -1.8144771232104686 0.5512365473598958 -1.8341710020949702
Ni 8.086133521071806 -0.43179668047103514 2.2960879273757366 -0.3499040003225587 1.9311239598729517 1.445226600040498
Ni 5.043865700976531 0.5879367737837043 1.0812847353614947 -1.7772151535352165 -0.7646177980316509 0.8084664197854851
Ni 5.8472761130679585 5.737308812192557 0.2545061580339574 0.9591212379622965 1.341272528354335 0.9124397747453576
Ni 8.394167598819896 9.298923817132447 11.003003658782143 -0.8072618579544226 -1.1377874537503696 1.2372747479144304
Ni 0.19378698316944182 5.151092695736898 5.7045562365133335 -0.26097905505537633 -0.9816276465949287 0.4761860460819606
Ni 7.343173715637609 6.324116689104953 2.598170715730479 0.13146898927698003 -0.7252449526609832 -0.5417532904598089
P 8.722166763977519 1.626367127269159 3.3142627756275065 -0.2080233287939514 -0.1842190272855021 0.26936033714053614
P 2.0822593831377376 3.3011402598992343 1.614066703375397 -1.170517854103855 1.7526364357545883 -1.1086568549330003
P 4.797019654454831 1.2462293138696767 8.10668126493105 -1.0291506318765566 -0.8098417028664567 0.5585554496188122
P 8.844360746289766 1.8280299869173913 12.36542104152856 -0.940767160935141 -0.008964665392455528 0.33099662189509443
P 6.597892388411604 7.7742757603725074 1.1196399169649438 -1.454693916100985 0.11958277936235533 -0.5563391586937838
P 1.6417711071583203 3.513982840176243 5.641490048637338 0.9372077257186568 -0.6908788164762876 0.7733544065737004
P 7.005961295368974 4.118306826607991 5.855390514530847 0.697709980465508 -1.2515070894637286 1.3455145914601407
P 2.39254215062142 9.054290044318234 10.191613584531822 0.7149805946204978 -1.7337439697254593 -1.1350435724566452
