# total energy = -340863.788702669 ev
CRYSTAL
PRIMVEC
9.32460861013404 0.00000000000000 0.00000000000000
0.00000000000000 9.32460861013404 0.00000000000000
0.00000000000000 0.00000000000000 13.64750724681601
PRIMCOORD
 96 1
Ni 7.518860607981463 1.2079190843862642 12.31796702117938 -0.6048286216537391 1.8845437981205673 1.995112032689138
Ni 0.5531255075597716 2.478396965888094 9.78021239620669 -0.5942968688844797 -0.22911717334977316 0.5133742250964837
Ni 2.315635927931291 1.5680447817182435 8.232762876850819 -0.3475478413855563 0.27458713275711416 -0.0692763177983194
Ni 0.9510913978526504 4.911746749056662 5.2973892370141815 0.12265730452262102 -0.6821221533295801 -0.036996374718691126
Ni 6.665742869585251 3.4364445215359765 13.64274396176056 0.3876398243104356 -0.4931208741640863 -1.8619260607210515
Ni 4.561831497818221 8.131049117003405 0.5036109050015121 2.878688089125268 0.4296678479157633 0.8498796926249491
Ni 3.787217636738441 4.734457971361292 2.3568973196791485 1.5917352572594199 -2.1571172428817627 -2.36097409900285
Ni 3.8707568025393577 3.52366690761721 10.049955597703008 -0.8902516686840927 1.2676836992235911 -1.9948850042799966
Ni 6.508091716979369 1.4262641124467916 7.838978140921722 -0.31562631008661124 -1.1818481915150099 -0.11560965364722024
Ni 5.3951810666086795 8.93739462014374 5.190283056184217 -0.7481642804613179 1.2818908439619083 0.38222790926624495
Ni 1.5719704418144804 8.008906072821441 8.329755587513613 1.077112504467816 -0.6316429136331057 0.5190661332749382
Ni 3.521056017291922 6.353424439030959 8.719241679014289 -0.5176710526996247 -0.8545629570332316 -1.1058206710357859
Ni 0.6161551973947192 7.526133802459051 13.603712083858333 -0.6064700139119039 0.43212068033163 -1.368630608652314
Ni 7.845865296615501 3.5089526757125507 8.264111277510056 -1.3752018341119285 -0.22159721082364414 0.5070372271348622
Ni 4.55390558075931 7.693641066042896 11.70172696984909 -2.458259757529902 0.8288876637543143 0.8041096854786861
Ni 7.56713410517438 0.36419775377859825 6.1918056655914695 1.1517809398159842 -0.10489458122256129 -1.350177544153449
Ni 7.825640221202822 5.693335417148283 12.850192351685221 0.5527779237050867 -0.6054600845901509 -0.9026078762566004
Ni 3.260610382736123 5.783103421296674 4.1267601936988445 -1.0277133852093978 3.1192806101044925 1.0011490044573081
Ni 6.7531797216574905 7.7620370679571415 11.795157680139525 2.341821180223483 -1.0473370729775964 -0.0058315190801125375
Ni 1.0034024504414596 4.607745869110074 2.604217635585391 -1.1044245620192075 -2.802054302520613 2.2619663155783694
Ni 0.7002780836755039 -0.0478585521233625 6.625987402078587 -0.4745523671332794 3.7469853650254565 1.7858021238732793
Ni 0.7375504079906534 3.9771412586865456 7.800409696052233 0.8342083046362795 1.0188873022773357 0.02317155302045687
Ni 2.4849894639594465 8.398152521888688 1.686313451149645 1.5628154889012762 2.3326947924421826 1.1179007421287714
Ni 3.0235228919833483 6.049358286826238 6.4663249314614015 -1.5775723354954765 0.4737712659928808 -0.4191448368972523
P 0.1826355080972289 6.249240590443656 8.036961954288325 -0.4090817962342955 -1.819316967801273 1.7249037457260097
P 5.411098172984633 3.123659860566454 8.137339497765689 -0.6859446123994638 1.3262092062633097 1.5001019119221393
P 0.048761174207247834 0.6274090671575417 0.4676990410380038 -0.1983886339176648 -0.7314271702122951 0.9576353974453895
P 5.87728196517314 1.3387340142915058 0.27480086904073153 0.7746502425669884 -1.1493322211651753 1.037920921870019
P 3.972907886516257 8.33102466670387 3.692674500677265 -0.3510555974284987 0.19563575376287598 -1.3968273828015039
P 3.684460453221743 4.932419405667962 12.962510988557456 -2.299787757301517 -1.7717600439579164 -0.15890497400074569
P 2.0927125171932044 0.9200814804748706 10.386544118752512 0.44825409555838286 -0.228291077904052 0.3832504369934884
P 5.895614145099985 5.046235574633917 1.2823322560394685 -1.563046888185792 0.7422795395457669 -0.5135197495354124
Ni 4.533176976498183 1.9473884967660045 6.283762155308948 0.1259316043985186 -0.4231483016296906 1.5462796960297822
Ni 0.26348265948060734 7.255477721809715 6.324295295148217 0.02044592655917769 -1.8236143096250461 -3.3462740522430434
Ni 4.480297122802793 1.3101727390545141 9.450884947643976 0.4091612433219792 -0.14433916037142883 0.3777940418646074
Ni 5.52497961420872 6.895585139685351 2.912787573601234 -0.08112678937900222 -0.30297185454739434 0.13157980382323145
Ni 0.7884655667162639 5.222134985691902 12.106252722084255 0.07467434888543913 -0.0825565798469933 -0.5562360574570162
Ni 7.597653548155337 8.619481424606688 0.357701299172783 -0.43544691649138556 1.8502735640837875 0.03169887376517767
Ni 0.9709994365829727 1.3465946590922844 12.355619789513357 -0.7613033889464372 -0.9543405287442017 -1.3661590071833698
Ni 5.1642384927286376 6.704542564740693 6.131756120570672 0.6160301467965132 -0.6850285283430976 -0.22168334277954727
Ni 8.764208670102393 -0.16418583810574616 11.109548137787991 0.7595648089887757 -0.604522660377546 -1.670214838823562
Ni 7.558331674934838 6.61906388041242 1.33189161671759 -0.4331468076032992 -1.1759955893889746 0.5220434707357074
Ni 5.753255350113647 2.580016547191631 2.305159730501072 -0.6834372725965778 1.7257360118193183 -1.4170421671864821
Ni 0.8983495483601687 2.4595426078961915 4.383538459808444 1.1699311283624496 0.7106110047978922 -0.47521648307983966
Ni 9.354913281590536 2.77975898168448 0.42533641304937286 -0.8728309021044839 1.2992679017877753 -0.39548605982773183
Ni 3.0730085882558638 5.776054017418396 10.876353671002386 0.02544775064914327 -0.2864247488219906 1.722538330817627
Ni 5.16744615798542 2.6853006995588764 11.543197439140913 0.9402393134561292 -1.817228974923993 2.1637239495650022
Ni 0.9884644279374896 0.8368052686281439 2.532226997169723 -0.03421341265691527 1.5696823912244389 -1.5980362597767834
Ni 7.708746931496348 4.242678129376657 1.8672518805354366 1.966085049329169 -0.08756534591549435 -0.457955896227179
Ni 5.912034780324385 2.1105877913131237 4.4199090945005395 2.6403923346000204 0.018024461601878636 1.777276088680139
Ni 6.074954336622366 4.020192975228887 6.242465330049534 -0.5946689075119178 -0.13769311580982094 -0.903524731643915
Ni 8.378011367950752 5.609423267015183 9.898523026375463 0.6246399999527114 0.17919586303929785 -0.24265634548678852
Ni 2.010665288721024 4.180119332261091 0.319823807778665 0.31035014928933646 0.07136945288192224 1.3710240485851548
Ni 7.303145119462833 7.5653717542048105 5.220444434206278 0.8147949331066742 -0.9073783010620502 -0.9066697050307997
Ni 3.0683835825367822 0.340915139302841 12.809741268399033 1.1483261484981642 1.0147061743164525 -1.1185658865165962
Ni 3.651507287473284 3.652710161944578 4.900819240584501 0.03353566986360031 0.14758234989907484 -0.15845040296183033
P 7.397043925090161 8.227269750098579 2.8107316006290417 0.650094435470074 -0.6698207102544077 0.4780470105500993
P 3.6812994110064827 9.379716739680774 7.3715373915337565 -0.3003855818774569 -0.3837132355625198 -0.15196582367875117
P 1.152083329858316 6.740405008280187 4.134389588213669 0.2442601996387987 0.9060161306072009 0.10008918941411794
P 8.232323687799672 1.4886643912211788 4.131591273261458 -0.10681236707056445 -0.6541112699389509 -0.49811935581994216
P 5.284264850825456 6.593943385639826 9.986044732383274 0.8185919382552611 -0.4540958990511405 0.27269300105819494
P 2.7736700124615763 7.688242117834532 13.353020922049977 -1.0011436051406692 -1.2443607082269343 -1.6096309065929182
P 2.1523900103426485 3.2189014097896447 6.421274951359385 -0.5119691172188409 0.20480276497412472 -0.853288461196182
P 1.7705006772277312 4.551667674766206 9.631236859167409 0.7522657042242012 -0.6865195110663274 1.068037281639425
Ni 5.445394082328954 5.683050374188309 12.534866734952693 2.1207608157399154 -0.004067742311470413 -0.07947074183281796
Ni 8.297073767866818 2.8267923059728854 5.804884773835389 -0.1831946997860458 -2.3003942805372644 4.202777163721782
Ni 2.370893556744354 1.265545163708696 5.761581292868825 0.5031389205217206 -0.6881940705552729 -0.5332041153382172
Ni 9.699457558445529 7.873419514155595 2.2907476159054814 -2.194189208033395 -0.3455544651046113 0.7402049164049253
Ni 0.5416898079350094 9.072890503417891 4.343933118495484 -1.0904038222600831 -0.9142338905313029 1.6893047655754776
Ni 4.329788620158235 2.733518249101966 0.390724399483526 -1.4542311175319538 0.9650275761444026 -0.6867280275327076
Ni 6.413894523886293 4.354200444699679 10.4125429916274 -1.693981859336173 0.7499008035364504 -1.0488843628600582
Ni 5.695330883325468 0.2013565241903755 2.5853157220911354 -0.34431365071897474 -0.5511774119871863 -0.14369818435332027
Ni 7.2995924436987805 1.8611172207318398 10.000128620766544 0.10245409010186872 -0.28750846880447256 0.8067201265183397
Ni 3.8807621072501943 1.662465765410629 3.592951544702884 -1.2023465685786776 -1.7474410075965776 -0.28313836476123494
Ni 8.46876778057943 5.969371796789375 3.4598614103713197 -0.0313682298986363 1.3262053496085675 0.9886033065818136
Ni 3.712369005877412 8.331061965137089 9.62179289587651 -0.25362441446251804 1.978858289834437 -0.5255833655681658
Ni 6.441784427325354 8.68995681417286 9.411935126294829 -1.0956249614497067 0.017153114740518845 0.9100044258309876
Ni 2.024493682836747 6.223914954288361 1.6564252841509086 2.030168510072639 1.4812161307612297 -0.9982434007747387
Ni 2.2426708679477914 3.144043454320311 11.89658610697282 1.298139701720603 0.6561540114005926 -1.2252417280092962
Ni 8.301428359945067 3.7842803851224915 3.959469261027667 -0.8430847811903028 0.4679086365645167 -1.1020545191251343
Ni 8.396800453684522 8.047481977377576 8.385996962502812 -0.10906413921921862 0.5864863717011254 -0.25122968897809633
Ni 3.533672212328047 4.281030243333479 7.677104805675517 0.2705417590431469 -1.8592166322096886 0.42081348284892683
Ni 8.17027774414086 4.994539946193211 6.50748561743957 0.3754941900868372 2.604908282760798 -0.3137717733763757
Ni 1.7368108674232094 8.126591954233806 11.16765909674226 0.29101185397204077 0.021298247257143965 0.5476909961004826
Ni 5.8203552314735525 5.4280036878408735 8.187221489891149 0.42040930543197275 -0.24259618167281444 0.5346483039839114
Ni 2.1811471023540365 1.8102048593887206 0.7250060124384742 0.22015276506763376 0.1098634951920624 0.735289738491495
Ni 2.6804052801989613 8.279515530429254 5.444181883249356 0.16479717111546457 -0.8781690264879457 -0.002145842698409208
Ni 7.810142722200576 1.6290929922884636 1.89322277958541 0.4373587888021177 -0.8146404098066808 0.2880599704325684
P 6.271750194890963 8.198503333478886 7.345606588299493 0.6195877822407845 -0.00769942552678674 -1.397435191588832
P 2.4186728496971273 2.875998263996263 2.700309589085961 -0.4037465000643111 0.3281534960193445 -0.681548283103981
P 0.19216525778453067 5.543433014043524 0.8216266712299151 -1.1898345521545959 -1.172543112064 -0.9273110354302352
P 5.490944793896928 4.962220853809465 4.288892753055918 -0.22055308582984595 0.07915938123998625 0.5287856745555474
P 8.828529818187528 1.4558137961640707 7.849117719992145 0.04014057677462765 0.4290129879405838 0.41341847593643644
P 5.8127650003136075 0.2562952513994212 11.346332578770864 -0.9398032543599749 1.741973299613787 -0.7756987384361609
P 7.938160269614437 3.4804007250838636 11.46416485653361 1.0005535369651541 -0.4258453888458795 0.9905791993612617
P 9.058577229670329 7.077983802731643 11.418364245463074 -0.5478768868590436 -0.11996021730643212 -0.14063960003265455
