# total energy = -340865.0549116267 ev
CRYSTAL
PRIMVEC
9.31397225281784 0.00000000000000 0.00000000000000

0.00000000000000 9.31397225281784 0.00000000000000

0.00000000000000 0.00000000000000 13.63193986274234

PRIMCOORD
 96 1
Ni 2.089375480268943 5.560879262719742 5.57540905961989 1.235864754940781 -1.6529102861068434 -1.1975059526569245
Ni 2.4645702293257834 3.4377685745198137 6.8823438000490045 -1.9318518391779114 -0.7751973733197102 0.0301055611361288
Ni 1.8711304796508188 5.030299512582663 2.963910916127544 -0.002215776704396184 0.3561612940861802 1.0366078594855501
Ni 3.928074708120841 1.7724116864811579 6.171765014044493 1.4377650015561303 -0.7909867749434829 -2.298488835984435
Ni 9.087801180783284 0.4098082645824947 13.735952132536255 -0.37490617879385113 2.2543712768399304 0.9434009990135624
Ni 5.962730600704931 7.414397020615317 12.655538788574924 1.1369677860625516 0.9468992419748079 1.438420375751942
Ni 8.741917502780783 4.839651812102447 2.9744617840304204 1.4830477846533296 1.1634288084675577 1.0954552686410617
Ni 5.809729976551896 3.220929983729845 4.019459679444876 0.2788492504675778 1.287456510975144 -0.5831179694495248
Ni 2.767665518251824 9.419127119968525 5.042700135398596 -0.5706841145615462 -1.4947301060872644 -0.9478441223865806
Ni 5.792676093138965 1.8877652343070144 10.700241666188285 0.4475341866732228 2.4083806133112713 0.8542816783473869
Ni 3.0868646654088625 6.799693472015328 9.688860691255693 0.49354150664127266 0.9921169761620268 0.5680641604401959
Ni 6.403225610061091 0.9383547745507905 3.2029875473526364 1.0858180026616138 1.0332165744158142 -0.306252325070879
Ni 0.554731811894627 0.23425571912540255 8.981866853217122 -0.8916809449314514 1.4002112116720724 1.0007049749413541
Ni 5.643307918210967 6.780674340431928 10.45021832323451 -1.4856047467472284 0.6091850988502219 -0.6719701524972427
Ni 6.366621698639564 9.014109031376893 0.844758666185669 1.8523803260141452 -0.031116518899146413 -1.9867891146457397
Ni 1.3893093748805831 7.293119786360939 4.127656370900172 -0.10867024621490962 0.38264365664742483 -0.8731260647473995
Ni 1.3712588964238606 1.9436024986764942 5.209186460148891 -0.616525598375693 0.7614039190800436 0.2390814836513366
Ni 3.8219606208879 2.061275225622951 3.4696419193736583 -0.9612372558640349 0.061140576065062444 0.5868445263714925
Ni 8.635412228708223 5.389166868071579 0.20125631501179667 -0.09265433040262752 0.4611245237631477 0.04924408173779261
Ni 8.885781120036993 1.5684915753710007 7.064016556751666 -0.7421571550352896 0.8530681176552598 -0.8581869269390638
Ni 0.7905746319121996 7.431227368691322 8.501614221394313 -0.7399948572766482 -1.6860656898128896 1.564832519331305
Ni 3.9680782194581083 7.012322147293203 4.859963723051065 0.5047417462324661 -0.2973380533003847 -0.9661951140899425
Ni 4.469309642651362 8.636129404580858 6.6473699736537295 0.32346997450074616 0.40979861979566196 0.2721929214933248
Ni 8.254554584449272 8.627532608081603 2.572046950716732 -1.5568831825772413 0.021593152789743456 -0.04868023881452262
P 8.926436609440293 8.986660754796933 10.747980431580407 -1.087129779494502 -0.5790142316937963 0.9740356931802838
P 7.537248316200544 6.277011970449611 11.829443460228049 -0.9802176536212798 -2.4457066034552395 -1.6415974321971858
P 4.293778519330726 2.7317415268134444 7.89906820093135 0.5056478029865034 1.0185124354364203 3.381579926633189
P 4.840443499754058 4.2022873687216515 11.842420617933803 -0.45847371640386203 -1.4073948739047053 -0.2642268725687127
P 5.187016411712082 0.5739940381569325 12.391419679833533 2.0337593127476907 -0.0521118902038909 1.1271389728975878
P 7.608798251961402 7.159138293791303 1.1677988955488747 0.2635146769930365 0.33489081474317806 -0.4749210633266079
P 2.8191997273854903 8.513548214194415 2.4844620801204282 -0.2844249447831424 -0.5850190431269796 0.05799611689880979
P 0.92648970514624 2.4798917138775423 8.376636545916583 0.15678587077521383 0.6872856998083906 -1.0662339098820992
Ni 1.9976049104887117 0.8062267624831605 7.371962562488986 1.0849769948175574 0.6153295211850629 -2.1505485885253086
Ni 4.757996216318089 1.282822728752766 1.4330850450284656 -0.8562498578173511 -0.9208709362318465 -0.9123610989886223
Ni 8.590788987074497 3.9156219270596244 11.67056292531664 -0.5228950201027253 0.8223274940382933 1.6201359198893002
Ni 2.2165950288965868 1.0909269559747188 1.605828496418196 -0.6536384440675903 -1.6359929415262149 -0.8586759507603404
Ni 6.7973184090604954 1.9746087127025156 13.722320202572757 0.20795236634669992 0.3256363860244456 -0.04739880099893772
Ni 7.667718441185978 7.060959711019211 9.379456117444935 1.4869957135574843 -0.23504973678412422 -0.16568214482357918
Ni 2.9254255822868944 3.828974042083933 12.544207014019252 -2.170047063569553 0.9529662741044942 1.3002665182556186
Ni 8.35985835608586 1.6256421098449172 11.633701948257649 -0.15392397584638653 -0.7523526075110527 -0.1290866050877325
Ni 4.67047281793944 5.041643930931624 8.854885742282198 0.2272497811237312 -0.24810425597523725 0.09588286464225422
Ni 0.37766947151605146 3.0966629643440906 0.7270626543082825 0.05927344094933663 0.10956756121819838 -1.0139070754539248
Ni 7.555876260944324 1.0336180839704803 9.159995643432278 0.1960990665525397 0.2692852609282265 -0.6331356961285484
Ni 0.04244936048212535 4.170610548684854 6.307075610471597 -0.3009635658681139 -0.19787569883698825 -0.8378379309690667
Ni 1.0357975535055026 2.9245221269668216 10.41691528362158 0.21506686590429414 1.6972317337320384 -0.999011646399331
Ni 0.37341764312828374 6.02669896295507 11.590297905607404 0.6629162698250906 -0.33878937846663587 -0.6490742217356756
Ni 6.467920462156239 0.5583977914202028 6.814797941010822 -2.25076710442844 2.5957165889592004 -0.4533860174683095
Ni 6.474039742004569 7.672962207631352 4.7262886601724645 0.6178299190094134 -0.2947648932565698 0.1033434346853575
Ni 0.8855883268723228 7.95628393321187 1.256628112854063 0.2941529707041837 -1.4188164854780856 1.4316090092570635
Ni 6.152437589975585 4.60797606332406 13.571359338369165 -0.7051736358324048 -0.2960481308443676 -3.1252759084559787
Ni 4.324477372268475 0.8345011884125066 9.25810437141158 0.6609601745399842 0.16143416818050263 -0.7106187181073762
Ni 2.246185519122081 7.59044972638878 6.832328699809192 1.334683819393224 2.1620828144171536 -0.5601737019485256
Ni 4.598513067394219 4.451827316509325 6.479860974737002 -0.9804390256034664 0.17773444800242294 -1.0176259190664088
Ni 5.248814618399571 8.299755292370055 2.602118973313853 -1.4087048509653803 -1.905785995328795 1.1581976419756053
Ni 1.0809703195091684 2.800860515785239 3.0635881170542723 -0.06840060006158542 -0.5457665253842601 -0.2993134318592006
Ni 6.182624174432879 6.9393099178699575 7.341631611459927 0.16170773355686344 -1.5075516833319649 -0.5928706779609144
P 1.6332329973280075 5.210944006735467 10.044217610557643 1.484358018824321 -0.48572818124444095 1.434889222670232
P 2.2779927347720847 7.046774531096823 11.869002695083175 0.4092142080471017 -0.33316637585290365 0.7790355161188777
P 4.784969480307082 0.12134429485545584 4.336443032574642 0.18280029256110453 -0.026137320517000146 1.7126915199305341
P 1.3517461243047513 5.5862225815436535 0.9624956595414919 0.6211903508412141 -0.5319162497647291 -0.08272215889058013
P 2.675997402167684 8.908563096458636 8.960997035323429 -0.6703976658038003 -1.762033817809088 0.6083824004432683
P 5.6055956440771855 5.7563702288333385 3.694105859344493 -0.5472654785272898 0.04554297873712156 2.2025812887518326
P 2.782456106378385 3.690801261946946 4.546865227797616 -0.2993885080715102 -0.5850756073965278 0.46651535576141595
P 6.175769090767169 8.579258289278098 8.606647887832114 -0.2613953166571885 1.394407974726734 1.038880971790443
Ni 5.787385756831732 6.049285345956903 1.677260144729931 1.2120990199797512 0.6677982805077403 -0.8725156848569102
Ni 3.5345593754084934 2.992001856801164 10.499524630176822 0.482841089504633 -0.40096070978905785 -1.4425860770938574
Ni 0.43482559437339097 4.84424360048179 8.455429026593821 -3.459885958733944 -0.6661820850605559 0.17274393676636704
Ni 0.2735755848905729 6.742114494812305 6.3127608592073985 -2.1439202845755143 -0.6842877935223312 0.707575303295362
Ni 8.17839423236433 0.6197619669951623 4.826892601350196 -0.38672991090165654 -0.6195880393511007 0.27244437538249855
Ni 2.37214768147952 5.429654705972185 7.9167768566020245 2.3989526351291524 1.1684892537096006 -0.1107160730003448
Ni 7.266938210023556 4.014787790903136 1.6755156377046758 -0.1044927177984523 -2.175923576954988 1.1250851756923528
Ni 3.54972252242993 5.952569056847199 1.5291903375505742 -1.524309619516594 0.0025042544790924615 -0.25606079181815256
Ni 3.985765452992327 8.28880206086071 11.57748374241816 -0.25414429152173007 0.5024889456425474 -0.8591099529739656
Ni 6.520432638388953 9.046009386750615 10.775912103326469 0.33075545241856585 -1.041822056696638 0.7093028275094301
Ni 0.8127977699915289 0.19069427034207354 3.3774904081234167 1.0547436498543126 1.281446043115006 0.5784488461086296
Ni 6.726737126426315 4.716753946655361 5.810177978622984 1.912508144543977 1.1494705465152526 -0.8392643790029481
Ni 6.520721371532482 3.2991487237089765 7.7817661700852945 -0.5728857501985554 -0.6895737245116188 0.15344935020281314
Ni 3.4445491464065494 1.5815963344982498 12.930944569036575 -0.8015750919822904 -0.46316032324625395 0.411778112119536
Ni 8.612667508176067 7.739547796117992 12.757792234259718 0.5485929390894617 1.7173017650090359 0.7005893588958322
Ni 4.226624778529399 5.998915383369723 12.713528511959547 -1.8357985103960641 0.6288632940054395 0.3133102603589249
Ni 1.9152600807488334 8.82524029961971 13.096191204064171 0.41483901043304683 0.11858544844609253 -0.53404538029259
Ni 4.079845887920787 8.144314407455584 0.5277715874669545 -0.8132797820137284 0.49700992480584727 -0.32474035657273753
Ni 8.167468942772102 3.3945517427142446 9.50555146960729 -0.4517415398863511 -0.6164993731234479 -0.5891482348040047
Ni 6.403393261563785 4.699811830910893 10.689376917416476 1.7911117090116508 -1.3331828093676652 -0.9518072207993866
Ni 8.125407043540648 8.642677127158295 7.035253147272796 2.2974066586638497 -2.906990535614387 1.0141988956627306
Ni 8.419635430768649 2.9428333966499567 4.406415181415702 -0.3626790406000399 0.27278633210294956 -0.6794803448313588
Ni 2.836942844753941 3.2153881701685707 1.378052507871917 1.3633935286230907 1.784467721332572 -0.13803430119932356
Ni 2.0485430253905776 0.6191779809274448 10.966091310996376 0.5248652564552186 -0.3500801208891067 -0.8755644989855631
P 7.682965413958762 5.27241622438994 7.845154271856666 -0.3375215674978058 -0.3152894955724828 -0.05229032476328413
P 1.3245027551169732 2.1279725817780544 12.260675724060365 -0.930985398958029 -0.17269637135788324 3.381888201902227
P 6.827374597904585 2.4081741266139898 5.742332209674426 0.371156996164064 0.0567056802221604 0.12303088581195586
P 8.515858079342642 6.3264784777167185 4.582826475125482 -0.6998056866522723 -0.34519296800013455 -1.2221723450553532
P 0.5957812823292573 8.95820656920081 5.769609109162743 0.5947977197802983 0.5296071420155782 -0.5100503029295731
P 4.041537519555203 6.513251565690227 7.0142464139852345 1.0399970876727573 -1.066379434321028 0.18705829650651012
P 8.410554307706056 1.9576013991514447 2.122807052700604 -0.09940193353910623 -0.5092038957688779 0.312570553979423
P 5.140474491769748 3.2885866790392533 1.4468399194272727 0.028942908286595317 1.0267543637302383 0.34555472221492745
