# total energy = -340873.29512493085 ev
CRYSTAL
PRIMVEC
9.24977227520020 0.00000000000000 0.00000000000000
0.00000000000000 9.24977227520020 0.00000000000000
0.00000000000000 0.00000000000000 13.53797670606617
PRIMCOORD
 96 1
Ni 2.0875718073058804 3.937452221888415 2.0015221027736 -0.5441063640730177 0.4530162928337166 0.2314530205718014
Ni 5.406279026530842 6.840567182287057 7.241273782931112 -0.1359589067275336 2.5498640494014597 1.7963647298804741
Ni 2.744213126114704 1.391443211556716 0.9366911177211128 0.43331444352941506 -1.4694769879474303 0.8519838834521455
Ni 1.8544683015261771 2.989877822357041 13.276828677620038 0.011585133734438114 0.6888013651219685 -0.22519881213197346
Ni 7.733891668664272 2.1945916700839914 0.22994100871109188 -0.47441378467288625 0.08778620367704881 -0.4147017135242342
Ni 3.2304273946480997 5.590839728519748 10.331642053966428 -0.13488418560611606 -0.49244056026760996 1.0985639894733725
Ni 6.346351860918478 2.2147469234110013 4.535465710425285 1.0855714338684466 0.3494219184798175 -0.12157461298140351
Ni 8.03548973657638 5.061364276043982 2.6383892588644415 1.0867945076422703 0.32001826850671977 1.0048526785611405
Ni 5.826727415690654 9.131633974996433 3.595754542125343 0.3250077513015112 -0.5290612968144371 -0.16112023648450963
Ni 6.09286185751017 9.254951936150949 9.8532234933284 0.5138210828259151 -0.040406171731188475 0.23183328672935558
Ni 8.014502003763628 0.9826402854252219 8.514804600127391 0.8374131847268224 -0.4360758083246361 0.47183008310610997
Ni 6.56906787267054 7.623005401163495 11.775724793360999 0.7643298344775868 -0.18198936662403495 -0.47872706733625947
Ni 2.4116653208771375 8.859838672673874 5.897129280822612 2.134666884298046 0.31111171004570937 -1.2019220794467493
Ni 8.777978189909286 4.460175340757611 0.23255684425073317 -0.3154483897478503 -0.07739431891976348 -0.9206235961077307
Ni 0.25244570414230566 3.443135153027135 4.031054365310784 -0.3904796077520759 -0.473581775689894 -0.5767094948200198
Ni 4.741183416055709 7.473760328914159 0.10415798330157253 1.2765992565456659 0.462000755720514 0.03370330578971615
Ni 6.462353252370534 2.5617243730680874 9.369741607462649 -0.4512170348414487 -0.03509324415870731 0.32982342752259974
Ni 5.931360837276306 6.288661032556588 3.737821791253174 -0.7764178759903725 0.8895780396558356 -1.7814682723846158
Ni 6.886788293289841 7.4498404183571845 5.360605502034234 0.07809185920742034 2.14923758302337 0.35036551334000954
Ni 5.740334544614806 3.2443020527437927 13.402827222718644 -1.1911077624400648 0.4870633551160966 -0.020498377063667923
Ni 2.3735192608860465 2.241460265131242 4.950648204349179 0.1525350659186599 0.5953795604256972 0.7644254795151867
Ni 1.2763667973110393 6.105376799112485 0.23913990702853624 -0.6704331470274261 -1.2441920438595542 0.7657472836504038
Ni 8.26285838367653 0.6156000801617636 11.268605114986219 -0.17380245993786841 -0.6349920326109967 -0.1839277212973284
Ni 5.0389520783334065 0.7453161086528087 1.408775434449855 1.3763251490830941 -0.1510353414446818 -0.6481180284699934
P 4.520086114414813 7.8450646790990275 5.033175595679566 -0.30586588826573774 -0.531508215693033 0.15885972258510705
P 3.821589577017316 3.5777563356436106 8.932681552653468 0.03467338301246932 -0.04537842813479927 0.04308063323955806
P 2.127854564643709 1.2725558912207557 2.9818471702512537 0.2941745679707385 -0.711883957973045 0.12225646953977656
P 0.4945649627525904 1.6334727473779815 9.793087950210047 0.24974821933656344 0.6133700834658469 -0.3496348058215721
P 5.976666220844774 7.61801977402111 1.947410936200398 0.08232312367994855 0.07479647628560021 -0.25226327244893326
P 1.1185009374982462 6.202897145981078 2.4371872919555617 -1.0765494328754945 -0.9663208410345294 -0.11745853393050093
P 1.6741994937748719 4.718031236580031 12.100919954785052 0.18472373483606253 0.40728305246265983 -1.290093434377359
P 3.77787515424382 1.6541274883964363 12.51095865046427 0.27841961912932695 0.08532334395885306 -0.8040456650099701
Ni 4.267826330690989 2.024136870492373 3.2565598506827342 -0.651903977874987 -0.11072995695741575 -0.4806070579677916
Ni 4.151177455194468 8.344136130801099 11.22778864580031 0.3680742434736822 -0.03971968718712514 0.29592188967914845
Ni 1.940981419638854 0.1318111018634947 9.516493866140793 0.7049625482628633 -0.7822290833555109 -0.19117334711614817
Ni 8.131668866495723 0.16272106516907922 1.9518110527711452 -0.9621062887325494 0.5658995486887093 -2.207634534905024
Ni 2.5352145263332506 4.8617079460469625 4.309192236337488 -0.05700804195392763 -0.48210755377271813 -0.6502291612757253
Ni 3.5330706868034154 6.305911857455566 2.118910035058019 -0.21857976415355904 -0.5297079292595007 -0.1388945923170898
Ni 5.905479975041806 0.5800781805051708 12.729502090038352 -0.6289178013924588 0.7319519323675137 -1.0294105704061627
Ni 5.099057097203946 5.72291722381868 11.728273462673727 1.0751111577670711 0.8579035913706903 0.988250294117769
Ni 4.163285406825976 8.407987307357477 8.614498643430975 -0.6433758857993178 -0.2755011599309513 0.7531825596115158
Ni 0.35823812216755074 5.733156721493302 5.023211741212446 -0.44943988833636794 -0.1875828015514124 -0.8651828986409229
Ni 7.598724749496033 5.903935263107153 6.891412254344533 -0.4007041136935615 -1.3793220269278892 0.7506165986565524
Ni 0.18837345803360253 2.848865047244483 11.60589065347486 -1.6624308240027692 0.2466731799556655 0.09221929974773795
Ni 6.139203215549784 5.484476599558167 1.1197616814305416 -1.7584077910207263 -0.7569872780695865 0.3129667609765771
Ni 3.4979585520492487 8.706976939547594 2.624052112165559 0.2281488958992329 0.4813763320336484 0.49244827357709386
Ni 0.9740194978617649 5.083489730820579 9.704793325997885 0.10534401005515408 -0.029818626023329287 -0.7963927764504026
Ni 1.201573140403191 8.499328806487455 1.465391439297933 0.9514606360932452 -0.5091434748445877 1.4339978212042144
Ni 0.02803328419374419 7.949661101596424 5.869525186052628 0.5776132375812116 -0.06626375622424072 0.6852496432149683
Ni 9.062334682694479 5.716322136337194 11.521494808187587 -0.8465614268849936 1.020941870813519 1.202687239747548
Ni 2.0120011695446736 7.4041280448179085 11.375853447134304 -0.2564446575201325 -0.6866894609852884 -1.5967126558693534
Ni 8.07962964886481 6.735499021414408 0.8755131252911712 0.7110756031391366 1.8738922319439921 0.03777850430035429
Ni 1.01704943750254 1.0091686317041868 7.142609239258227 -1.4706131584344027 0.3225225229858123 0.3397342588784084
Ni 0.8713905018823377 0.4619169672762187 4.553471316724669 -1.881187737164141 0.46848533500359313 -1.684514543275686
Ni 2.3850259773334073 3.119818620309236 10.709364820986364 -1.0442892872902079 -0.4169761113807076 -0.5949015923480142
Ni 3.633412214151466 5.052133003524314 13.429956804181755 -0.7855460635438859 -0.021168663657815157 -0.4498417517604769
P 2.7222541672352536 7.486663760943154 13.446093956524251 0.28876265292654785 1.6373144885511155 -0.09642433896802104
P 7.650588221457733 8.745807482671406 13.341282939314976 0.7754377714652904 0.7598100922303624 0.8267929860088148
P 9.215945647357925 3.0896643633812637 1.7526403358074745 -0.7076503795076716 -1.0224361959708586 0.5465676811293168
P 2.1868773601827862 8.068169181277769 7.764422391315241 0.581502802443605 -0.6672264671646702 0.09898284372381662
P 8.027192691035156 4.440084835835048 8.835817939601403 1.8384608877195758 -0.1536565811176128 -2.291155021327183
P 4.193254668312672 3.7628072755518978 1.4851702269019464 1.0331970340317882 -0.7197535905291088 -0.08088459146120909
P 6.931816183696396 2.356000192597218 11.545308346365827 -0.32486325530384697 0.7944665059619672 0.4144703142397184
P 0.8181922878118322 3.4882185420660727 6.128452205480035 0.9253816796180064 -0.30493592025230065 0.3964232269300205
Ni 4.49212405346596 3.57522189809813 11.259183297162036 1.6020790623875891 -0.8116574159189569 0.061558123218455274
Ni 7.995040483341403 3.0524247810524243 6.8153014298948 1.7275931196327152 0.9881487355428982 0.9076030154783465
Ni 6.9651986110746344 4.730953168153152 10.531963442574837 -0.40319242733305405 -0.46986627451151974 2.358732611266841
Ni 0.43746796975719515 5.358355957468319 7.326116392209066 2.11981413555593 -1.4095687416275724 0.7975477159904523
Ni 0.516440673683466 8.15123213441065 12.831131185657682 -2.2996031520945364 -0.03642019050024696 -0.675245995035037
Ni 1.9193647023257643 7.343329293042582 3.91998865223197 0.20340537040596582 1.1652049265313738 0.33995845907407257
Ni 1.7689449090243263 0.6994816381222906 11.828197825301702 1.180112696881142 0.8997994602735279 -0.4099536573162875
Ni 5.778073614635091 2.8891200552661194 6.93735957209423 -2.0160135587284955 -1.0374663508311035 0.1871408289179874
Ni 7.363151554575295 7.040001517754546 9.333107885203987 -1.0300536033068002 -0.8149003483362869 0.1429296816184119
Ni 4.1457200896768285 1.3938389025212385 10.221849109523593 -0.46140785933152145 -0.16526562611145085 -0.26288218561536014
Ni 3.0632007655067457 5.769822817954186 8.073994687723546 0.3347213790448494 1.4100927324518424 1.136606546068391
Ni 4.7534763631284935 4.40667465914062 3.3936997462321807 0.09992900968716983 -0.5804507070300068 0.4390377191664374
Ni 5.2329660473715105 5.198908386632616 5.941899102588587 -0.1252623462456359 -2.1864581579377247 -2.1717334501330408
Ni 4.88648808540587 0.6623549030126293 5.74018284835296 -0.09676655279878818 -0.4914213749744762 -0.819961050688646
Ni 0.3131288337668342 1.0434205376564205 0.06985427862578154 1.1640507583222728 0.10580449463134035 1.0037234500527037
Ni 2.713753626708626 6.547478904673641 5.937756129681214 0.7042724641743743 0.08010091921764916 0.26784724293011936
Ni 8.572818245534307 7.6984650416599365 3.406262786649228 0.3835314585690169 -1.2277287560972083 0.6558884164440317
Ni 3.3645398398010666 1.3704092298836454 7.286883484000479 -0.1317744363325408 1.1676009375673762 1.3623704866752149
Ni 0.33539858498762765 7.506458273159675 8.510878996863516 0.04606542689949486 0.025947573103697247 0.5595291263859912
Ni 1.6432312569052856 3.1117435692975435 8.394303194566298 -0.5149775650278615 -0.3776014662378271 -0.5210497393638703
Ni 5.930361861893416 4.749702456126466 8.383161844115458 -1.5666592881273986 0.8932308059170745 -0.18079868875004346
Ni 6.860010203165155 3.0498533444186893 2.294010070180075 -0.4162811421962121 -0.4128906284574244 -0.35703906870544316
Ni 7.240629073818265 0.7802793220767483 6.317767290309732 0.5056367472429097 -1.1254322746191263 -0.6110645752611218
Ni 3.0514813043019173 4.125139346834884 6.629817600653928 -0.5538493023923946 -1.4871049854418388 -0.641406934998405
P 5.407083756700392 0.7768430317550483 7.889458960119212 0.9155176423397331 0.8589880826841206 0.46627572894678404
P 7.762584461606165 8.020810348311137 7.430237376422383 -0.6739270191132974 1.325460243912427 -0.5941410600329058
P 7.463779824857324 5.168717130616389 4.8286844098248 -0.028389092665654335 -0.3158839346233721 -0.38644117601664413
P 7.1649844378805465 5.557679295671042 12.705986394520565 -0.8606927240800532 -0.20005213766301674 -0.11657227467080569
P 7.978723885420868 0.5519570234768206 3.990183322469699 -0.7064712715979059 0.5260875588980939 2.0260025516204077
P 5.141411803484065 6.607963164198798 9.73392733306722 -0.19204520819814022 0.8284212656408572 -0.4616680549714437
P 4.3819130193258395 3.151045850796609 5.212216033700798 0.391093587186991 -0.06874872742962354 -0.43290563812677063
P 8.965415571010032 7.8291273218331074 10.595659222960542 0.725608506647989 -0.1784736401612926 0.7087225295259278
