# total energy = -340894.59075149504 ev
CRYSTAL
PRIMVEC
9.02129478597047 0.00000000000000 0.00000000000000

0.00000000000000 9.02129478597047 0.00000000000000

0.00000000000000 0.00000000000000 13.20357680572218

PRIMCOORD
 96 1
Ni 6.372822869390624 1.9946713657347646 11.420406749368537 -0.8943903734428145 -0.13126407235502555 0.31875379997199943
Ni 4.7025572543187595 0.3071227546362054 5.990792697900849 -0.47063169192263465 -0.39750360447839284 -0.3679662571409082
Ni 2.7035827311016196 1.5677205603503614 4.920735457840232 0.9077619096537141 -0.4072406292604987 -1.1252677240168039
Ni 3.319105655676975 4.2123581531085055 4.871842747971829 0.38112233490689196 0.40926383033811453 -0.0683581768594242
Ni 5.208263960795686 4.326288081504551 2.8354677419655285 -1.2212320926292708 0.006646044561607909 0.009653721039680147
Ni 7.128644966221524 5.913115743631998 2.557876194915391 0.1862921077644469 1.036327095020338 0.5389204489967041
Ni 5.1184118674530135 4.564756980643125 11.47973078208153 0.22034071270872374 0.5519811388354042 0.21865638302776538
Ni 5.5530037092893485 7.669805360131853 12.215751137457897 -0.1748141890318344 1.1132187632720698 0.3024802596229565
Ni 1.9427899009944325 6.425543314520601 0.3699894497041854 -0.27818024942501124 -0.14129805955225988 0.7148450974838979
Ni 2.704953967867492 1.7448987845722577 0.23103986310768176 0.6983910656929327 -0.8752755069902345 0.4103172113032933
Ni 0.6248518452305414 9.155441161714647 4.653283845821938 0.34187521648081126 -0.815272386963725 0.23384800316653917
Ni 8.594100131980266 2.445257962741437 1.4191073630722646 -0.19990764166535246 0.23219992604015494 -0.4211009321823586
Ni 6.749912980005453 0.6799223375809774 4.608127756140537 0.4322392081873652 0.07505358660172881 0.8283482463110766
Ni 0.9258374132100179 7.4157476640759965 2.621649530081859 -1.0893291011386659 0.768572668914341 -0.32975837861261914
Ni 7.744203975974928 3.795628474406557 3.625675404959575 0.05052706221527427 0.1538013342255932 0.30423915129559215
Ni 7.845016942150065 3.8689535562026656 12.606629394605351 -1.8372951495462488 -0.10056330083705907 -0.3349288670699651
Ni 8.09595327030466 8.908681692919254 6.668531882209846 -1.4932339811577122 1.5169853179410389 0.1438467941160426
Ni 6.693096867166883 0.5751165464546893 0.27353467090794864 0.8188547049983447 0.2554630103331536 -0.2447278833038366
Ni 1.8000820431040976 6.480501040689632 9.286101982913236 1.0746727846780717 0.5664384519113148 0.23020629264889386
Ni -0.016775097145652534 4.995586942667824 1.454902055438234 0.5490171711110738 -1.0578888803515136 -0.16711064973998963
Ni 6.426716082807202 2.008013860318481 6.845301441790334 0.2724680295315824 -0.09490893076475912 0.9790485730138428
Ni 3.504385002370931 4.280432841498445 0.709120659399541 0.27344093496781297 0.4732439327345011 -1.252243710519437
Ni 5.95646306376368 5.612968253912717 4.796542002677524 0.04343493125518326 0.18404702048401209 0.30808552162487585
Ni 5.233442393779561 2.9727871806436568 9.107734752074617 0.4303368489583298 0.10981438712168184 0.24880668135890055
P 0.2460792631891646 5.501528202802071 12.538116271302112 0.6945580651000878 -0.5183572801333718 -0.8165090875843034
P 3.9930234196305547 6.081714716772681 12.632626961130944 -0.48886646976310644 -0.003539123501510034 -0.5381619735641248
P 2.371599093048373 8.468334265184062 1.504785303444088 1.4298151505814343 0.434252124852336 -0.47785314937173834
P 6.394546146576281 7.82525128587358 5.734352477964289 -1.2974323912409333 -0.270235797766954 0.33196927022100897
P 4.5990830062624894 1.0233846707716963 12.531197840540615 0.587967327122026 -0.416738798558921 -0.6637341377406956
P 4.062045343944288 5.944771466075717 8.191723332847413 -0.3063209735252853 0.16756702055111786 0.5135233490798381
P 4.622556414583537 1.271271801381129 3.7792593355139585 -0.01752026827195047 -1.687289792027978 -0.6943040401077527
P 0.2986499548302378 5.613283999220647 3.5382545504879723 -1.3810397809499442 -1.0860445168501232 1.0834479597675404
Ni 1.342107005891838 1.1831608178793338 2.494538588273868 0.7843633560896943 -0.6475338738317493 -0.2391632447318655
Ni 1.7035271279387743 6.610615171440773 4.856394683248939 0.6809659282379498 -0.2657813615400261 0.2832293818131445
Ni 6.179126654916676 5.741521700713227 9.005222174013358 -0.41450322436018294 -0.8471661503485282 1.1804083737446895
Ni 8.308107053350808 2.4763994713979534 10.277994216671885 2.18725211459393 -0.8551000604836241 -0.6106326299300258
Ni 2.360069878661632 5.133946536603223 7.028395830953407 -0.742323762520141 0.4026342408367388 0.09544217756040982
Ni 0.45416805092806195 9.298067827954371 9.240403713431645 0.312500619973436 -0.4343182022035811 0.18786922244357968
Ni 1.3231622874159736 0.8301359125055595 11.561447472032997 0.1300440839049954 0.5098919229748381 -1.1187582050330602
Ni 4.094512982894115 6.845791298082352 1.4604077514791005 0.007453370954251679 1.1990606987385544 1.5257247546965658
Ni 5.45238019029897 7.737212472727883 8.010306002334179 -0.20072833779443494 1.1928340011025522 -0.7329135249498345
Ni 5.317511837339838 2.8497457447901717 4.914344772807707 -0.024220563110261512 1.0825187630850517 0.31282020809638383
Ni 0.7120480694687878 7.577607730215979 6.978301484655964 2.0175068554445703 -1.7412955568204722 0.4907104649503807
Ni 5.23117804885697 4.598857473899681 6.936010558111676 0.23013533020164237 -0.12469978887394652 -0.1145110212664028
Ni 8.253248561421412 7.269873331811839 9.016854231157538 -0.018439951872742433 -0.10142847705083177 1.003507991607788
Ni 4.691046082521044 0.3638089608337974 10.060359095080054 -0.4980859314788454 -1.1566470096590336 2.0935729424712135
Ni 8.115096457259797 7.350550768635485 4.55351734981023 0.2942802403106674 -0.947961364690735 -0.2932983360133723
Ni 7.440051031492177 6.44142981415679 6.956713526887992 0.18840889699713356 -1.5352625189836722 -0.6515856753036198
Ni 2.3891996386419025 5.349546454153075 2.556845963082085 -1.573134354328781 -0.7220835242138661 0.10800484471676883
Ni 2.327936027608761 5.084482778792191 11.495416106850094 0.9235004034348934 -0.04822412511371049 0.8380551891861954
Ni 1.2365127536251734 3.3221458319276254 3.8635642348610073 -0.5123205870209886 0.47073067939434415 -0.5236956616271498
Ni 3.361947783315966 2.537275166767065 2.4334193179529238 1.6485895472443028 0.08102908745887336 1.380481337343313
Ni 1.1108912275411662 3.2058433030748414 8.17755538981582 -0.9879535888129566 0.6928613941239552 1.0961198988082543
Ni 3.5656937198766343 2.992237091612211 7.234292444125812 0.40487521435211565 -1.5433419535576969 0.22069861026877477
Ni 3.954466406884914 6.821966059275324 6.117798090563046 0.3749488591063284 0.07988340389020437 -0.8533967046392723
Ni 0.7926560423246893 7.3516152813879385 11.64283488473476 0.2944247363083316 0.3652799685579967 -1.5958695911427676
P 0.4090705996609918 5.466227877375377 8.123130822152465 -1.6213247979910788 -0.03916098647017772 -1.215751529130674
P 8.341440736573817 1.6512667688289249 8.013897379679532 0.7046514447803477 0.8357972463899541 -0.44623783645930243
P 1.599484538328228 2.75545517454744 10.506177937936968 0.8759270245313043 1.3839042469819327 -0.9434596201656398
P 3.7874010538113243 6.095390999253354 3.8487629969546497 2.1413815773140605 0.7666597681623442 0.795153761836979
P 6.8849707801493425 4.005454763468527 10.396100102297682 -0.3790325422573988 1.2432939575253168 -0.5612042000955689
P 6.241030777860191 7.7181594987178705 10.083108995581215 0.9335480174788825 0.20527816194864645 0.40443889814564543
P 2.483048165453531 8.569950126570793 5.763797081123038 -0.7265636714724066 -0.4690080402762825 1.2350399450466407
P 6.718951897239182 3.8328322929753504 1.430145819037535 2.4189090236464215 1.2031598085085924 1.164187541010453
Ni 5.324746915538717 2.8374136351918353 0.37344189911404896 -1.3143805890594977 -0.783665044471089 -0.7223933421448011
Ni 1.5048601801885402 1.1014008257142094 7.12820202066097 -0.4775726420168421 -0.4653707006340115 -0.8120309972082917
Ni 6.7727639190051505 0.6987055748850717 9.100340899092322 0.5270563505692665 -0.24342279133916786 -0.22426061658842023
Ni 2.717042502513996 1.3629552175098016 9.303372349127615 -0.24854057218170744 0.507484599084926 -0.37812365728988423
Ni 6.388862731033521 1.8693926488422252 2.618400961927974 0.14419697836660972 1.1217535402159584 -0.9269731924748422
Ni 4.013231119338143 6.751383451010961 10.424857282814592 0.6944073984548363 -0.302927117352388 -0.4711238010677048
Ni 8.118524549174477 7.0363120168879645 0.244437387587923 -0.7346785872700574 1.094677767045089 0.8537000948123039
Ni 7.601568288440691 3.973122443936384 8.129573830693163 0.7066047118519766 -0.36365580269101244 -0.19138854845074782
Ni 3.0567213047862496 8.315721025919204 12.533627275152783 0.9501632574380603 0.22292004340012575 -0.0020244866291965133
Ni 0.29127865508422396 4.907981151658719 10.390752278910782 -1.2756780302829773 -1.303490424509555 -0.8649687257475878
Ni 8.680325664928986 2.1567930494156045 5.645941987484684 -0.1903822186734205 0.9855074412653091 1.0646357121570438
Ni 3.81639549437391 2.7444672378314388 11.200593887281432 -0.9982040628963712 -1.4664747107859968 0.6395182026161245
Ni 1.071892171364422 3.169956593504846 12.539027422047855 -0.2771983451277162 0.6012185357049775 0.3343418842182435
Ni 2.9539687602909646 8.321404441461961 7.999254916556591 0.7427680491464111 -0.37726259484116964 -0.10154520513435414
Ni 5.610460334038293 7.700441676295681 3.5904355222061133 -0.4276919551363151 0.20012052900710695 -0.3661418023376598
Ni 3.169243911238373 8.34254133450432 3.6701188123745023 0.41634773376808937 0.2135339741995355 -0.41095073112223424
Ni 3.1265822094896283 4.240513613281445 9.427829226090081 0.07154634477941871 0.3563410141971541 -0.7336707148308333
Ni 7.277803049688165 6.171575831409867 11.321459386898548 0.1878656228991539 -0.8943685190659436 -0.2984744808976731
Ni 0.5776172492935033 -0.13777952469825624 0.3858912855410457 -0.35147751545726563 0.41613201821285756 0.7007413110926642
Ni 4.776026676827065 0.3505260067938626 1.6365440161848241 -1.7942800794373035 -0.17336691506234655 0.15900293303119067
Ni 5.939737583737845 5.734277601219836 0.5027350920645691 0.38841089814850527 -1.2169581478442655 -1.0044610995496766
Ni 7.947688294994739 8.827228424767549 11.221996908511905 -0.5934098382938361 -0.06489490090117211 0.1348402197420581
Ni 9.141367942275433 4.7140954900000125 5.744493315125583 -0.11569501427217493 0.3233113374356948 0.44664278520720496
Ni 7.898874070388595 8.880760786403634 2.52142114379112 0.6696764713670595 -0.21904359116385502 -0.2761346797498922
P 8.584411261674038 1.721993717805486 3.5614798732099313 -1.3204244812607324 -0.4351383841120312 -0.4547623289905458
P 1.6821647025336086 3.4305006003150593 1.5592107732368936 -0.5981851481952923 -0.44234621471438007 -0.5218115572305594
P 4.697045243371734 1.0546254136678481 8.046603180804485 -0.04300298592408723 0.7129900465530301 -0.2886196995907803
P 8.474107893671944 1.5370120738304363 12.535158188831524 -0.7628082556267379 0.03139599781277819 -0.3026165280905046
P 6.359281906327635 7.777889489683918 1.4161231188475902 -0.5646739038117243 -1.0899268826236648 0.3191723755666568
P 1.7600906445309987 3.0460130282001296 6.064521031561658 -0.42386126853631517 1.4355700507873406 0.0020489121092287297
P 7.051305408367435 3.9458961770982133 5.840469965312667 0.02229866349720031 0.25298292422377716 0.0656358928322547
P 2.510039878634382 8.317759838478986 10.31233648062137 -1.1071527595836481 1.0791148796098253 -0.09976343064358302
