# total energy = -340872.2103331809 ev
CRYSTAL
PRIMVEC
9.21599794694403 0.00000000000000 0.00000000000000
0.00000000000000 9.21599794694403 0.00000000000000
0.00000000000000 0.00000000000000 13.48854456270023
PRIMCOORD
 96 1
Ni 7.292784992719303 0.0780677962523612 13.245210924218457 0.586891320449028 0.953645559559706 1.1983364189780201
Ni 0.4226115625597222 4.580350935251687 4.062492956432945 0.3767889976388607 -0.5225157823864356 -0.27313985878762637
Ni 0.05943581338355167 2.8877499847136794 6.910127545671849 -0.2962129385570059 1.3234383283863917 1.5205684073066068
Ni 3.134379303382232 7.8454315202511005 0.2841107819556117 1.4340271317802529 1.408980216113954 1.6816063684899556
Ni 3.4526906533875796 0.4853079959853101 4.05667950498434 -1.4963761263311197 0.9216651499983676 2.0033056242435237
Ni 6.842841545313152 1.9360415339478125 6.038848029809473 1.1006224146642982 -2.4773437707445463 1.5789555889962483
Ni 3.5208798215363264 6.053583488784068 11.009376666360456 2.0837413010927723 0.1033560330908478 0.13423163962378173
Ni 7.799204074997132 3.871078524129141 11.005910529566194 0.19692156245383505 -0.6416733012859143 -0.7909546361539668
Ni 2.4489578947152824 4.710831032920285 6.273522356057081 -0.28420768656601375 0.0460253176901788 0.18530197593703573
Ni 1.1342589363301838 1.7102403704375477 3.2930935320875245 2.3280943175556934 0.06824633387190827 -4.340016222713319
Ni 8.778431495365938 7.050468761048132 3.7989946752857517 -0.7023690765040743 -1.0464263882378688 -0.3497564190011009
Ni 1.10671231873367 7.460894009640684 7.271053669770967 -0.07788899916799488 0.5490619083060801 -1.7985262563081672
Ni 1.7127379058569707 4.850987928339415 10.64408031607724 -2.0817970328822084 -0.7063128916431707 -1.705784765508372
Ni 1.243376350964751 8.66520374568686 4.418428617692146 0.6597355581042638 -0.45625434015504 -0.4640751217510395
Ni 4.5715496572976315 5.268961079177382 2.2568900481633714 0.08077917623159636 0.21131691194355862 -0.3529384162735083
Ni 8.006997178693549 7.003743651909851 0.044199925725285895 1.5283441945972838 -1.273944335421322 0.720313833907953
Ni 6.930817460862271 4.958851967265343 3.5214134278122846 0.7416005112008711 -0.686566819364495 4.02475038128992
Ni 1.6536817915851543 0.7332828503410791 10.129951129991703 0.9539808314119377 0.03517834767334587 -0.38841552613419555
Ni 5.734046411063653 8.969617370922872 3.8715089112290935 2.7641467288415624 0.19805721872017504 1.8762663886031234
Ni 4.276610077859282 2.916457818040257 6.7206807289106525 -0.015187506373715777 0.3298457961201029 -0.39655923828725254
Ni 3.076502836836194 2.7392618272312346 10.450694581831685 0.627790629766551 -0.6557176951941223 -0.027328255501307776
Ni 0.3447114974683702 1.6162648402830981 5.169713998248357 -1.9065660680279295 -1.7247865034218552 2.424527141164147
Ni 7.505398063295273 1.5423709694604664 3.2578745962745175 -0.17139102228289835 -1.0286603225036994 0.7116047361697293
Ni 6.44318979821619 1.8997212863908168 11.866708691065066 1.010893999659214 1.5804617412281297 1.2923475205188584
P 5.146277715696355 6.5401973916658065 4.277217412118101 0.5633227891004685 0.4046831529459676 0.3311953681694619
P 3.347702005793239 6.920781239195291 7.683169132370613 -1.418047725632861 -1.1596032640738803 -2.1223286744476675
P 5.470975752217054 7.385414987186537 11.021880932253714 0.6739239337895039 -0.3252522632121495 1.5887764317414121
P 1.0764654137648653 8.287873145401125 11.317671148294327 -0.7006505511510708 -1.2152954154298616 -0.18764322247570264
P 4.349416460934711 3.091829041273465 2.6864725915026195 0.46340303538467936 1.1420804246987686 1.1783113820063447
P 8.347473003546543 9.066376132430333 4.446147574448598 -1.272520715600918 0.32630461573606384 -0.30628472097071124
P 4.9538845444200685 0.9950697206861068 5.626638564031679 -0.631711304977196 0.9661367500481812 -0.22106293558672896
P 2.3420431035686935 9.015208912324663 2.231005074980592 -0.2488455050166359 1.5080545911103125 -0.1377782193244595
Ni 0.698038109734071 4.711015352877438 0.7821709541765511 0.41211646929556117 1.5743312028503595 -0.7116157919133228
Ni 6.620072445098053 8.521277507143951 8.513294609799656 -0.17398449404168748 -0.2857634610889078 1.681021699631079
Ni 7.792255212612464 7.999771836373152 11.435223965767998 -1.049944428693456 -1.5227034513717388 -1.7665918694934155
Ni 3.5121614875629903 4.820980639314909 8.854109583373813 0.3796125831305849 -0.19002894909905985 -0.7278605359069594
Ni 3.1874265870508607 7.437734207024412 5.2624748598851685 1.218526777882966 0.24643252469976912 1.2994576492010783
Ni 4.89977742099781 8.519572547540285 6.775376754596016 0.33185485613033167 -2.0714339444803294 0.3050315652899005
Ni 0.02409891279796707 2.4114948634239384 9.6390490233068 0.6886676677575816 0.17596012971081954 0.275880397647241
Ni 5.007484787960157 0.6604893696626505 10.665473411904202 0.1553131428844293 -0.46117671715732184 -0.8803032992221291
Ni 6.664198642840478 4.433705977340772 1.5075473999555529 -1.6489893537858824 0.536838883877327 -3.033857764453298
Ni 1.2442057907719395 2.5802674321910692 11.826418191630994 -1.5950897755539497 0.6961464926331301 0.967785598505514
Ni 8.251414657876266 8.670014496568553 2.0257500570941707 -0.5159715535100146 0.384371437971809 0.15922816166811932
Ni 8.892027884959324 0.7574204703300482 11.529481505456893 0.34322658830238306 1.5848860955480704 0.478034412144609
Ni 6.304415302475709 5.998324365629603 9.473260594645977 -0.6837077526491451 -0.5383128973196922 -0.5437471809613861
Ni 8.973819865945961 8.621151275927296 9.162943201182353 -0.10601121132550774 0.5775134787785539 -0.1688831682593801
Ni 8.04509611383707 4.230078504676011 8.632425206106559 -0.0010819202102691043 1.3342665293501472 -0.28918122852120515
Ni 4.910182282579096 0.3935839341074842 13.048251226003705 -1.0494546335412314 0.0557361172200395 0.7656963758078104
Ni 0.6784826838799248 8.730628114478312 13.416812804327886 -0.11765728020486833 0.8746563853489969 0.709852529365313
Ni 1.6956145818374584 7.205629300979515 9.45196242359695 1.367209045714439 -0.43588606091133314 1.6109938483787158
Ni 8.637657128090346 3.2295344812624602 2.162321929346675 0.8135494907353473 -0.09253657387784063 0.6961369795514333
Ni 2.7362205479382102 0.3846296705889922 7.042409370921617 0.21290251126312368 -0.9486715033838824 -1.5737506477565413
Ni 2.8774004191195393 4.317040660460789 12.570784200995682 0.6325438281808202 -0.35258077582377345 0.6706462914794966
Ni 5.168985934417603 3.8230539592929307 10.783254786124745 0.2920474943254067 0.5279176701282973 -0.17618227302395462
Ni 3.385653484971039 8.359389288776484 11.403539365133401 -1.2988105025353827 0.776924640423462 0.7696270783207841
Ni 8.1137460818787 3.6023031626086577 13.437746943461537 -0.7907965133095478 -0.5937412534913258 -2.5628329508573024
P 5.650494174486205 3.708904609828087 8.346293355820764 -0.06174427108733238 0.5326050483016377 0.47045402869418984
P 2.114712084414059 2.879243618691069 4.919123643700588 0.34924965456801144 0.768896885022979 0.24008858475961228
P 5.992370831013561 8.905243625887193 1.5231399467309097 0.8608055955088335 -0.49941390626164955 -0.5704869109490756
P 5.699449555106038 3.6708056746845648 13.052163417094278 0.14389435952452637 0.6359718800257628 -0.7889705158444025
P 7.942522057681435 3.1881362188858997 4.662963140047654 0.499504666203243 0.8789776384321701 -0.5808759674928835
P 9.257654167965844 5.034939245578094 12.00423810549498 0.01774472557793073 0.5348619626566143 0.8525256148882285
P 1.2314324177412375 6.515811861334466 5.123758424931189 -0.7389445616352629 -0.5218964036348819 0.5199025131333047
P 2.9975862471811436 5.70069371481682 0.8356652137412763 -0.24040354489686983 0.6470548773128018 -0.28136301802836705
Ni 1.8539546410297305 2.1283056812540915 0.7585392924699669 -3.231538059450028 -1.4695854885008366 0.619950564896842
Ni 1.6851544242690266 6.558601739387533 12.791456661698167 -2.09817161758549 -1.2961021024652841 -1.8730532809824645
Ni 4.269661215474614 7.797628139363473 9.25783572312364 0.8905727994689372 0.22777480038926579 0.19455306222165847
Ni 5.654991581440737 2.7912492711462336 4.425402363271029 -0.36275488814329787 -0.24885270410548754 -1.9746925884925215
Ni 5.702186706469759 7.18973170467507 13.438123877773913 -1.4979861511307169 0.9865906470271589 -0.19129547451630924
Ni 5.008489331726642 5.7647909799167705 6.68289974569322 -0.35052337907411246 0.07903442562634776 0.3353710968137063
Ni 7.140748676061664 6.302664262882755 5.5395695026717515 -0.7472019165480487 1.9945926698505585 0.5716624193144155
Ni 2.647820696487638 5.831726772356877 3.6397219571102855 -0.9435976884054008 0.6110761452253476 -0.3794824853106239
Ni 9.103922107702395 5.211637572502804 6.438594701684368 1.0894301454929043 1.7518154825151895 0.6242502207134604
Ni 8.032866484679971 9.049317320395824 6.714584346327818 0.7009660255089606 -0.2316589659350204 -0.8928675090403848
Ni 6.371609142855829 2.1450050693721523 1.1294739902424924 0.7598774551331882 -0.5902707784442222 -0.7997910034986742
Ni 8.693211163176256 6.107156084330583 9.729516023076842 0.9786618790983855 0.65709657781952 0.7447691387368399
Ni 7.0361194523837725 4.192965681303257 6.424418653779731 -1.3667084519289368 -0.372014716178669 0.18373848810465776
Ni 4.229719080759562 7.926274253458399 2.669005510763017 -1.9795404035031263 -2.0925049062180157 -1.0328869589905374
Ni 4.342117390631453 4.588709845308574 4.590461806501314 -0.6180651749486711 -0.2777169366353475 0.7384362545402766
Ni 2.449040838696001 4.080465995454933 2.093624038116186 -0.06674866628045924 -1.1847111148851017 1.2166601569878726
Ni 5.303733039094293 1.1113756136496407 8.226015367780585 0.033480648255948785 1.7154827095224263 -1.0760200427345856
Ni 1.172090607535834 7.298010463504591 1.9676957217894804 -0.01973475942476601 -1.3632672874578715 -0.5125856677569173
Ni 3.887261816367173 2.749298048898215 0.6209112668629757 2.9948734127703003 1.1109029706546996 -1.243200883590878
Ni 4.553956317387379 1.0746129981954777 2.179654456517556 -0.8434902441588376 -0.592733895272734 -0.860974259876214
Ni 6.376530485711814 6.849513927762089 2.348342238104397 0.5581430446717419 1.2836870166303829 -0.31988919912802327
Ni 2.1095787736073484 2.3561251482951815 8.165574089030763 0.426887971177781 0.8983799542181818 0.504971088634453
Ni 7.374742861667379 2.1720079430950645 8.289276741874845 -0.6223458046018959 -1.743868716864287 0.1690762581067927
Ni 6.570435080636754 5.577282287505039 11.994310632602721 0.00988460610356362 -0.14351589313918509 0.015620223035760198
P 3.508069584514194 0.584038059434521 9.027127040754175 -1.4155462993672459 1.077266513547177 1.0871349217008244
P 7.736323321614391 6.86221357280993 7.840850247716062 0.9664429684346904 -0.8620353541508768 -0.8215985862920688
P 8.285421689970992 5.847661232652753 1.893063649538451 1.2683087344020996 -0.122943211194156 0.4898409178612338
P 0.6514447893651535 0.8451447891376542 7.444920842153807 -0.46865374226065737 -0.5154781588133638 0.5070968767282041
P 8.896193515990982 1.6781963458865012 0.476809002760986 -0.043324630929564095 -1.2122435159774154 0.01714694409293176
P 7.2253054564055965 0.9142334386773079 10.15609138631514 0.14839584693930574 -0.2906776105610736 -1.571712020059958
P 1.2543986844024997 4.480615406436206 8.349490385477583 -0.5295397791127525 -0.5072814819351844 0.05793466753325507
P 2.986093897852655 1.4526993103055388 12.506834391861455 0.8621325418503732 -0.262627903512709 -0.9318294921258791
