# total energy = -340854.6242277726 ev
CRYSTAL
PRIMVEC
9.40070347070322 0.00000000000000 0.00000000000000

0.00000000000000 9.40070347070322 0.00000000000000

0.00000000000000 0.00000000000000 13.75887976703874

PRIMCOORD
 96 1
Ni 5.615717026103186 1.8809209499839359 10.220191920597854 -1.5438368909162443 -0.8512300360052565 1.1429872527837541
Ni 3.62476084214354 7.246569863401273 3.7656679862752713 0.07406731142905955 -2.5323468664533033 0.9350760240876348
Ni 1.7115108729675952 4.386913474296185 8.094830119018019 -1.9178650379805164 -0.05595620365064557 -0.9870565309199841
Ni 2.3798350839060953 1.2626460842557456 5.75386694391069 -1.4245065938843273 -1.1792565195284337 0.34240023574634576
Ni 3.197104040432904 5.055576110559173 4.958287290402144 -0.23381303616354573 0.1993959921362566 -0.5084474772188277
Ni 8.579213585605173 1.5347870486609423 1.0926503434139725 1.6345685503748624 0.6112098425897344 0.0475209283990988
Ni 6.06166759674306 1.2020397490621189 0.5527660636812244 -0.9055942125784339 -0.252360717258746 -0.06633651844370511
Ni 6.254654638032027 4.900690120385418 7.811205255268549 1.5903507182070675 3.928157377954519 -0.14837450678306704
Ni 3.760441195152632 3.2842861643022534 0.9393953752901782 0.5712335593071131 2.0240821946692433 -1.5789892704476611
Ni 3.2145611467543813 7.729991638024673 6.24431668443928 -0.807064654341952 0.5254380982395531 -0.19942761670514042
Ni 0.10218940686967597 0.5255106041454896 4.763048780634991 0.09312381383987833 -0.10966449180737886 -0.07227859495975293
Ni 0.4791801772231582 3.522612798369079 11.359303360712223 0.05094872313372516 0.7494513747038577 -0.5835175188807885
Ni 1.712836372155171 9.391697584071867 9.71471891587306 -2.396175072384015 -1.7931536791423441 -0.7074894284497751
Ni 2.865813849870068 4.876389301946528 11.777229494273502 -1.2902374161543908 -0.7057613900150749 0.7120335961770319
Ni 7.067787285037321 1.8796894578309398 8.570777394321976 1.8920125956937865 2.891567773301414 -1.5214508099115605
Ni 6.182833263613024 4.112892369199391 10.6819676354389 0.8475502731608242 0.7046409032573865 -0.07658493564459068
Ni 2.5438773592479267 2.667355599168555 3.8147321377631846 2.217476203585794 -0.7916616895233205 0.8694344748284252
Ni 9.082057213572769 9.179627114763191 10.970395318585055 0.2691867876771493 0.12096706130439165 0.19809964192233626
Ni 4.6842389232653225 5.445310474520299 12.961979469535693 1.5956885854802132 -0.2243848008711103 1.5506510856246003
Ni 7.317592178026347 7.58699753772527 0.8667025556606206 -0.8960549056294309 0.8999035899515598 0.3525920886776831
Ni 9.303001946945782 1.7460114546583987 12.773771745884767 -2.2381126488892233 -0.6809636142451047 -1.1530659771759948
Ni 5.486720573252721 7.5066967287871655 7.6977359443196365 0.49992504157011325 1.0061937659700673 1.8202106832601364
Ni 3.9271626709799894 5.724219945415244 7.25431416290996 0.9821935464007276 -1.3749107852340707 -1.1215267689171329
Ni 5.8813621044189155 9.001182961723728 12.617745450381559 -1.0980502830617476 -0.10046714157882698 0.16951308853389516
P 7.185418287407082 6.207904939735469 5.941043410392275 -1.0395155200506485 -0.3570843201210818 0.5538552159296655
P 1.3251983650651753 5.571637127588695 6.313963676148451 1.1324819823770562 -0.13845621922809057 -0.09662642767649811
P 6.159171693009277 6.118241030153211 11.59346642321751 -1.4628047181335775 -0.48964345713844704 -0.24485618135158474
P 5.008723004524577 7.80818668938819 0.5492821629796953 -0.021606265415866015 0.14910418586024 0.2436014830088772
P 6.898019981289577 9.029826905160206 4.468925211263643 0.33819133987132083 0.256161579062075 0.5951409620523299
P 2.100286365176007 4.718842912694164 13.824647243272148 -0.5171102951001482 0.49769589512927825 -0.023190836294166513
P 7.229347774666245 0.49521213690040516 11.155135122730332 -2.212095913110487 1.0120067731074183 0.13304996061085472
P 9.327584786488412 8.262362875553801 13.45783555462297 -0.07545982090121199 -0.5199642196091755 0.0743673591679816
Ni 8.364792940432 8.31982937579246 6.180502829225789 0.9096457569399883 -4.456035967314764 0.1861280713827569
Ni 7.782268949954526 6.778753256518127 3.237354092358611 -0.12669547914773666 -1.6463390606472292 0.4471744893409589
Ni 2.9613343977066497 7.032431239331841 13.732765707744152 -1.1444841490442548 -0.48289405422975545 2.5458883525831637
Ni 1.3009915536608647 7.704384121805123 11.765314102640504 0.6117199494569335 0.03547171054404859 1.0301137671207743
Ni 0.7340313678284296 6.119434919492375 10.180126122459924 0.40101496006576093 -1.5947408768549631 -0.3290950339970074
Ni 3.407905414774751 1.3469891956807836 1.8282798308302595 -0.45081311453481065 -1.0688420369289076 0.4490359680297299
Ni 9.00163419548971 6.2884031634461905 7.733164375441744 -0.04254635800264286 -0.1730504122631923 -0.17249865352478033
Ni 7.627871796360587 7.450452319998043 12.210249397306917 1.4149390048005503 1.2777876204268122 0.5945511509871308
Ni 8.502005608104744 3.755336613174946 7.452291097594426 0.3904382129911792 -0.25187297898905014 0.11124700580315036
Ni 9.342118274034455 2.0741242074524355 9.346916393079411 0.9729231768423955 0.07874234830722568 -0.32391708934049374
Ni 2.1798069157270987 6.66655586074708 8.264601183047146 -0.43914544838889535 1.3912532311478363 0.7392494944701914
Ni 5.337192984050017 7.660943471125777 5.518356760599877 1.6588963284869496 0.06031345217807677 -1.3692350750055322
Ni 1.9093580779443393 2.599933753967889 13.198563213181409 1.9619964810820922 -0.014113299472930533 0.25028866522106574
Ni 1.7326436543411445 3.663425935466231 2.0822962389684614 0.4268967129285293 1.8000545200272353 -1.2623499457155034
Ni 4.986603149287939 3.510937124674262 2.8749043301139388 0.4801185483671473 -0.35585173326556135 1.0529320505668707
Ni 7.639274849655123 4.396784212927069 4.129301297085303 1.5932797189284043 0.41618061206260576 0.30384782939444444
Ni 5.76943732904815 5.516972036980515 4.1125981271811565 -1.9336734657676826 1.0769101586490226 0.8898076391681385
Ni 7.109827230901429 2.264667065842326 3.5176774290536375 0.7376466687594457 1.446834053736934 0.6033381531511415
Ni -0.10303170989951138 8.24519719103952 2.8754270092262035 3.7941440249891296 -0.378171222698368 -0.24318984939275534
Ni 0.2890970132323635 2.4933767802716336 3.3359919134618603 -1.8439429938800698 -0.5034168567734556 0.34842175935007735
Ni 2.388107702949122 3.0268102972915125 9.710701055215115 -0.17032067203685505 -2.0371192303588597 0.633950735830676
Ni 4.602368196849734 6.044567717152986 9.511059255948243 3.064983796434141 1.6886164812592015 0.7150286742496137
Ni 1.6886577628612347 6.154414937059537 2.63964138530407 -0.04720468271026064 0.21284517566262698 0.4640836063914717
Ni 5.610631245532416 8.488261779649172 10.164936465812513 2.0366559175691954 -1.4624648182956554 -0.9731761733934658
P 7.856572110086437 3.5034259626113324 12.385660883410836 0.44135839687981404 -0.0693148843457387 -0.42840749314610094
P 1.2880185828888462 0.7801831813850592 1.8313482204389455 -1.0863679616278128 1.4935597399282472 0.025489145410039975
P 9.250564823057143 7.8665368557518995 9.256300192236859 1.1015793792609287 0.7841952059429462 -0.9740146101343614
P 3.419863109573307 2.043891545131557 11.25269938349868 -0.4517639084838542 2.7162717595371544 1.1948775138951422
P 6.779458309277475 9.379100641438166 8.499575526260855 -0.8938417000281962 -3.681059708866925 -1.2298265191665014
P 6.988501752072679 2.9720794017591263 1.1262287160955478 -0.6759641041479842 1.6510470076458599 1.0596140905727365
P 9.17590443619383 4.897315267844001 2.706014111998825 0.5015399514657168 -0.49675024338655743 0.09898464349602952
P 2.925442511904065 5.098969757721229 9.767511386352409 -2.7247142338775525 -0.9493682723405908 -1.5297791272715977
Ni 5.555966154924236 0.9521784518523457 2.823115854763902 -1.873821783717373 -1.0047112678872696 0.17506358603847913
Ni 2.4230595184059087 8.53588574336732 2.463582190731897 -0.6857692631638641 0.23562669233351677 -0.9651052234598734
Ni 3.818283723529611 0.15168881092769398 4.203750168120813 0.2084935835621506 0.015377768007650935 0.617239336613266
Ni 4.803618456478269 2.886138170746231 12.6431311099995 0.429947326829395 -0.26574845141956166 -0.3009406830499785
Ni 6.312863793843867 3.1237409506467917 6.241536896426754 -0.31858307872209 -0.7926543924538929 -1.4837406969552962
Ni 4.547477489358562 1.1235344744844893 6.58974647307327 2.279261612323707 -0.26934465341125224 -0.39407246730965684
Ni 9.552430811796487 5.614852161385052 12.523415031602758 0.970663177163625 0.45456692515028807 -0.4180986550209251
Ni 1.3411795609437491 3.489635130638469 5.607843936957123 -2.658950814328498 0.018564650376064803 0.14250493537616749
Ni 9.257380333064182 6.187148186500239 1.0213055846602899 0.543718898826612 1.5935134322057654 0.4678587571631878
Ni 3.2500770044186473 0.6949893062970736 8.41533018215178 2.0508504639020226 0.5030355621746369 -0.6800182196126998
Ni 7.550541609715205 0.6936431255618902 6.330432768536495 -2.8612223282403364 5.460992004222988 0.7370779407401693
Ni 3.7215222828365753 7.251740250303164 11.757513398911069 1.314929262474116 0.5941701134986284 -2.636231518354111
Ni 7.688741351251037 6.544553531269356 10.09504129553205 -0.5133981363558836 -1.2238949841734148 -1.7148702727494076
Ni 3.9715151898947605 0.18052546878506176 11.090317272387527 -0.7221999951870723 -1.7053078258719534 -0.39696624391768404
Ni 7.779852969165825 0.29239948035715346 2.6045974429533953 -1.5567916513046995 -1.5058005049688132 0.5847724743338122
Ni 1.1822136654692295 8.528882219291122 7.285601584158825 -1.0684160051350826 1.535364591779175 -0.08981660384351628
Ni 3.2921827552069605 3.3006621897260624 6.712558203118728 2.353364662086708 -0.503087755568811 1.0627726908063762
Ni 6.638193938414341 5.302128360151735 1.792025077874196 -0.8562475438245061 -1.2606000529039323 1.0067689217472466
Ni 7.433126823524978 5.338405674796097 13.539246586639463 -0.7294625902867566 -0.43736444522907264 -2.3050047827260816
Ni 5.7721259302371335 7.7482854069539115 3.193105921252223 -0.7651361324289662 1.1504483370474896 -2.1286209352142826
Ni 3.3463590092353255 0.34216774453406984 13.28828446705476 0.8518933806208683 -0.2866047260432806 1.4890819066625516
Ni 0.06925404230462687 3.832046353392101 0.5047688920357923 -1.6907618097369785 -0.08789264734792605 -0.5108599433150621
Ni 1.6600044187212972 0.7366786059221979 11.730985553822983 0.49059450819780664 0.9862751726692692 1.0435259267616221
Ni 9.183735222174331 6.4871716373618185 5.152534966024826 1.1805598117208893 -0.8002039226663767 -1.073032163750855
P 8.354104340600273 2.6973720453098995 5.325993926020521 1.2000354039469978 -0.6772257444692272 0.9658639560027689
P 1.8023028669648105 8.396078481540174 4.698245031347374 -0.28763136753558205 0.7090886546160949 -0.28455118594836154
P 8.709488534125922 4.468342367649248 9.683540542784307 -0.5438255996078054 -0.6344279325774106 -0.937148076125315
P 1.4390032811275368 1.5615790535161986 7.687993995326128 -0.6969535619154578 0.5746680389099587 0.7129265403049463
P 4.509047413622321 2.250613014172639 4.73375618865991 0.4985816401683414 0.2762048708661953 -0.1475576673087265
P 3.6165070245074293 5.180295243336254 2.294884687037672 0.6110977424919024 -0.08785588057271966 1.0892087735107177
P 3.4539218582015856 8.072186644598771 9.489636932908187 0.8757809858717434 -0.15012105716052856 -0.12107016254115924
P 5.378856901775806 3.210067610501465 8.238005652894163 -2.20799474645792 -2.3424374736512434 0.9331610664531089
