# total energy = -381173.2975878326 ev
CRYSTAL
PRIMVEC
9.17613534352697 0.00000000000000 0.00000000000000
0.00000000000000 9.17613534352697 0.00000000000000
0.00000000000000 0.00000000000000 13.43020161322375
PRIMCOORD
 96 1
Ni 8.713676592418992 1.1746371012229917 10.073671630089953 0.611844905070572 -1.53553428458782 -1.3941716903462118
Ni 7.40221413523681 7.631360590136744 2.0592128898571285 0.43945372365793356 1.483172226046336 -0.6827816412904499
Ni 2.0738066157049926 3.9826813725131642 11.87495711615264 -0.08446382417203517 -1.3089856432961715 1.5005109744350995
Ni 2.965974738825122 8.290564986002368 10.411589241983615 1.566527904755857 0.33187953872068005 0.9542410270518598
Ni 1.9626560867844856 5.094159133311831 7.538855968486646 -1.459404948423409 -0.30242960889067916 -0.4726505221248763
Ni 8.61386776693659 4.079700652813381 -0.1039610267815474 -0.6495971841186813 -1.2263424172726427 -0.2991087720475623
Ni 5.346998369989421 7.27473008518376 10.067735588055884 -0.3940081897306246 -0.985614913377451 -0.2763131143092854
Ni 5.881526613255116 3.2072428686779157 0.6415568521341023 0.17909327602316252 1.107742056428215 0.380566462403422
Ni 6.998280651947723 7.272408522910426 8.398120305046621 -0.5530951978351893 -1.3362681331612083 -0.13948620315450172
Ni 4.535204017431061 3.061920411275615 11.72721215898686 -0.681294258111646 0.2398301888919031 0.2948260855118084
Ni 7.033783120072337 4.255717283355208 9.671142095527426 -1.0153615485122642 0.6193774660021913 1.1822973632372864
Ni 9.054092866000515 0.2296419662151909 7.230135902037728 -0.9537304059640285 0.5693270863130195 -1.0607834282904893
Ni 3.071381006942836 1.084802734994001 7.346306694672625 -0.11935857916669121 -1.506519899633341 1.558474181213445
Ni 1.8080657325597864 9.11841757562924 5.858790902406744 0.3120640466566496 -2.5027290435868705 -0.04035397833701437
Ni 7.11860731633595 0.2709942207004765 8.47565222645404 -1.5791502215055577 0.6958179056491177 0.7304120986842195
Ni 7.669313086431239 9.3625945404253 3.957920488567065 0.83798448384926 -1.1448410181630413 0.5754028601934542
Ni 3.9773500378064184 4.922547047794509 13.121267176286908 -0.04500304707325153 -1.0278671371784427 0.3789926901583989
Ni 5.404844727977935 8.322020778385715 3.174106925890428 -0.4246891637542492 0.28076240832989063 -1.0170998713596096
Ni 8.54178004670217 1.7743617869868467 12.236915285358183 -0.3438516234808917 0.023598870365862584 1.1477728470978557
Ni 2.8385182171784744 8.081807904111711 3.7280362723755265 0.8580372887350771 0.07143270201968989 -0.6457744679384814
Ni 7.1492647849336075 5.6007093395364445 1.089248572628112 0.37587625601660424 -2.477892187048848 1.4096870123729914
Ni 3.45028199267598 3.2048478973208407 7.020974152572944 0.32669310942373414 1.802673445707321 -0.16538569662908292
Ni 7.38719280147615 2.1432791373311098 5.8488935226912595 0.7799909380536115 0.1623862476811268 0.05785522044557133
Ni 7.766763645098438 6.322862024710635 10.40922546948713 0.32740813321288775 0.2838374477107886 1.8090862912122003
P 6.783357207022757 3.239139115563715 12.01837827828603 0.5952288937804459 0.4690350368594761 0.04875531502683216
Ni 1.8213619528525145 4.6042911413675345 0.8388465175307486 -1.0669458483474592 -0.1357100239415211 0.1267312174816785
P 4.858332451791395 0.2489494728528231 10.148128628502137 -0.9496991733174482 -0.9936442114398305 0.11505455247469863
Ni 6.177053232128546 1.783363575880681 10.493554154435486 1.3250113293004664 1.140347758278378 -0.9776925732065808
P 8.622273107025022 8.017171205877082 9.510073389662516 2.1537005038907298 1.8416745095608669 0.5601587895501902
P 1.6144951548682076 8.846042346540871 0.178570349042495 -0.4095384241557398 -0.0008479498225920881 0.5270455519359891
P 8.489246671149468 4.0970527249828415 2.0448421441011306 0.6121518947880297 0.9063429178190003 0.9552113613849291
Ni 1.2783916649565152 6.673234405274635 10.025887822255342 -0.43481211112086404 0.5670490889121201 -0.24751495913067045
Ni 6.470065589883819 8.776845108978785 6.260864383036524 1.5684076382770733 0.04011795106680832 -1.7823740720283368
Ni 5.452955206235197 1.533974566138954 7.109639479143347 -0.6530823144538043 0.028319415769983484 -0.45461089101434615
Ni 5.743324836975767 1.2226649942610444 4.397880397315974 -1.451840248702274 0.493598328021137 0.1302716265347692
Ni 9.013791279026282 5.5930105618790265 5.551655554553101 -0.3576779878410227 -0.7591963699057634 0.835968738970812
Ni 2.131552036203362 4.0250567661031 9.640319456491351 0.3764830363626678 0.9126207804079122 -0.4797611650277286
Ni 0.46516767049228464 6.863786034397333 1.4446063475917237 0.7568970323486255 0.30915844297408046 -0.08444711200148682
Ni 1.2586354452945117 2.252768785731959 8.348213139464779 -0.6372656591365219 0.6246369146289177 -0.27533532377704845
Ni 8.05064574806333 6.937360288577522 13.059085094289896 0.03834363277520493 0.9725310836102993 -1.5066083455820893
Ni 3.8429196532043024 2.2338384182620503 9.343391641732 -0.012147691106127467 -0.5357320239663935 0.2928604771450053
Ni 5.644295983008121 5.786590315706073 3.075529537787793 -1.9139556756237814 -0.6183338552290254 -0.42632798490925283
Ni 3.6031655857036826 3.8178137465646174 2.4782613034886465 -0.3095538786402862 0.8162666325561942 0.9639117173724046
Ni 3.466698099027733 6.407034715356042 8.838751906911767 -0.364752635299617 0.28989393831751364 -0.04471894017392944
Ni 8.772229512838521 3.348821462809387 10.641393625796583 1.6381876351846882 1.3090954294011585 0.46009968204305923
Ni 1.520880220826516 2.1730832253302683 0.2169082430266342 -0.7132947222776426 -0.17172809390734295 0.2223682846617138
Ni 0.5242271135896318 0.32107022717492467 2.1801653666842555 0.33095368447230095 -0.14272245070361225 -1.060810939094315
Ni 5.648507829187804 3.435792874772448 8.240208189782608 -2.043803327247254 0.6233482777244813 -0.5236506673218272
Ni 1.8856958386167078 6.614571371229492 5.61041310279356 1.1115616872846212 0.20740240738050086 -0.6187645150085408
Ni 1.4437823306267223 9.160636974916224 8.867666827384102 0.21800769370017292 -1.1910128887334133 0.6812608337705494
Ni 3.079813875437672 0.9950142494423491 12.396116647655411 0.11169077820878828 -0.9480338697998834 -0.46910368531388247
Ni 3.4788014217096572 1.9564438430728384 4.904347100707831 -1.4991236071692697 -0.33538883742551917 -0.7609979418908766
Ni 4.501334901419702 4.681398207702796 10.079030493203101 2.854248210915349 -1.7017393917944046 -2.10938934067818
Ni 7.042592210121349 8.752014486403132 10.899723861938057 0.28699553372379605 -0.3799393703423844 1.3689923628671068
Ni 5.046415700473278 6.388443864898439 0.8756868662065557 0.8766793293162967 1.6942489969546306 -0.10800998692309141
Ni 3.8853776320134488 1.2921008113452908 2.2491286127919143 0.12144785759555211 0.42774980495744397 0.4680801291453745
P 0.5104996149299209 3.5472829207052605 6.78437392283258 -1.046774515605907 1.2508653421146716 -0.047928191139846484
Ni 2.449468425618031 6.737687580799908 12.98270753072432 -1.242560164683086 1.5141488769335085 1.1686869715427033
P 5.916652859825553 8.555406607871738 0.6848278365456885 0.4026316697335776 -0.12245007360782138 -0.24091030932995933
Ni 1.7666813616003638 1.9734380459590581 10.693180063922213 -0.40749105470840785 -0.9883114863730077 0.21990825315699547
P 2.4920732225946605 7.655640644584334 7.4016663199493875 -0.5486559311169131 -0.09760267554683835 1.1409866774139574
P 8.44587107879355 7.891109456821528 5.72075521417936 -0.5090969378773684 -0.4591763988978414 0.0793072196717602
P 3.6273630549320637 2.8624495784782913 0.5642846153604221 -0.2469390320225425 -0.5382473341890794 -0.8029334057823978
Ni 6.674592473323857 6.3431871647716385 6.398363267339046 -0.024386399264164454 -0.16447244078619416 -1.8064966761081533
Ni 4.833465124673871 8.275038964790983 7.7343728045109295 -1.4018518325992888 -0.3011561414948943 0.6978570475663336
Ni 3.1803751440284285 5.797500740777194 11.14671790032271 -1.0411237450780328 2.2953590321062016 0.051780989227033405
Ni 4.825142369804648 7.81503929379412 12.238338503969226 0.10166193321787653 0.23366571195240401 0.29571028788897463
Ni 1.166782329262622 2.651618689971929 2.5986632121877102 0.9845864721129366 0.7256015646694536 0.7377477131136843
Ni 5.362588624149079 1.2495877757233385 12.912172412611039 1.1764244493962772 -1.8241339295739423 0.7398323635568549
Ni 0.05264440679186334 6.904170206590774 7.648432790174439 1.0221963120459105 0.8619484508640252 -0.810397832480243
Ni 8.362625177830383 0.03789743948168858 0.255593912545 -0.28100434913736766 -1.3925773492758984 -0.39729251690885126
Ni 0.4438092975776168 8.01013310997334 3.9308719940488634 0.14676551042473432 -1.2001966121152103 0.38108299702852433
Ni 4.001143757074219 5.631825614907488 6.540575014817789 -0.24750030384265118 -1.0440077514940471 -0.3996576747069181
Ni 7.740327198815933 2.357468491418658 8.204402909187559 1.4344516209121811 0.19298031841789992 0.8918017867800319
Ni 3.7208862276190784 8.469976786667253 0.8538091240244147 -0.7496853450915347 -0.23059272945403514 0.8784449058571516
Ni 3.010662518552925 6.321219496461914 1.9551555136531702 -0.1643354009876976 0.0011814219026108684 1.0376370720810129
Ni 7.364665388902895 6.580885777927488 4.062716543676175 1.5596504609097332 1.601030823628733 1.1460507222004264
Ni 1.7923653647745155 3.878679053122012 4.943186929302054 0.9068723079599091 1.3499944816083653 0.3177675247993302
Ni 0.8222606526728424 1.8513770919674306 5.440293056903289 -1.8945847272963368 1.2164099886502793 0.4694312438566302
Ni 7.107283965168783 4.402140877013636 4.885209352576352 -0.8024945184727663 -0.5650094327742722 0.23722000496256562
Ni 6.60343154277168 1.0061999585775012 2.052953847854596 -1.6907846925551138 -0.34238275224484904 -0.3259755145314192
Ni 9.148001436377173 5.094333479885718 9.02720403623945 0.2222435861583914 -1.9952128199330605 -0.5898077227648745
Ni 0.864072631545061 8.69915076997359 11.604741949353373 -0.5913737817004138 0.19768029499673054 -0.012044846979676031
Ni 6.344792988478489 5.448688303242707 12.041787517477733 -0.7485275773380077 -0.5797223135044145 0.27838928011202374
Ni 5.857989825780412 3.4396560278043586 3.1882225750804234 -0.1449305140985246 -1.1302939735868016 -0.4697845134309909
Ni 8.352953531047405 2.091177040145389 1.300788776406129 0.6694041915422794 0.7589413164721639 -1.991342538344377
Ni 0.41840791937587096 5.506452076012012 12.007594483884363 0.30452042998143686 1.6001278521984894 -1.0839662941648558
Ni 7.505757647854577 4.350626052497849 7.248065153128109 1.3824821698234255 0.9783865139498117 -0.6733958292001758
P 4.142061669452014 0.061779249649979794 5.811355787719906 1.6609601529945135 -0.3520850671342775 -1.1463494843877675
Ni 8.109097730992714 2.4880265468533955 3.4969160307364855 -0.3250710004392789 0.4958938089235331 1.5338214156617713
P 5.0732834251227645 3.2756142540479067 5.386289664448657 1.5088665454886465 0.29812326820584145 0.3287821307422789
Ni 4.689014400141004 7.217782988471082 5.069659769226562 1.1087568708459745 1.284491514809549 0.28190629212634677
P 3.6389341617568602 5.64715893727405 4.164195425813705 -1.717349587527836 -0.7707678767934467 -1.139465869894057
P 5.45512077420558 5.746793416182567 8.055905508913428 0.20813131512672542 -1.0269582522109282 1.706926592422299
P 1.7661674980141715 0.7862938720935625 3.8976598893369934 0.33711559030863875 0.45784071080555344 -2.6240658295258545
Ni 1.0910149787056482 5.66088643593376 3.551952656044784 0.21832959581596592 -0.2655363354087556 -1.6721328817818817
