# total energy = -381171.1765188287 ev
CRYSTAL
PRIMVEC
9.25439173264009 0.00000000000000 0.00000000000000

0.00000000000000 9.25439173264009 0.00000000000000

0.00000000000000 0.00000000000000 13.54473774896773

PRIMCOORD
 96 1
Ni 5.651157323393146 4.8030570974230775 2.368351554177284 0.7737022768314223 0.9369696415659219 -0.3381103501217403
Ni 2.9190942906418007 8.8217119475035 11.092083554140487 0.014407176564265512 -0.5439731809292632 0.7830793471709482
Ni 1.5480376395291409 3.1385714461158263 13.169913838020713 0.4036035467285436 0.552722644987119 -0.44538757264386514
Ni 4.21996563448869 7.471172282968927 9.302701556798409 -0.6936818331427215 -0.1518148999231837 0.293527678415359
Ni 1.8506284875867482 7.909201154738896 8.879361255662966 -0.970434863202903 0.5283100204707094 -0.6682394818102169
Ni 0.8984117268865183 2.7383930367294282 9.012885471155052 0.05852962080477662 -0.13414910721230444 -2.6170482605574414
Ni 0.8256833127593775 7.0500419305907425 13.213311382837711 -1.4034690564877377 -0.05166734646730457 -2.0206261177998424
Ni 2.4940400761485475 5.3479001591273185 12.681328223952104 -0.6430786662738731 0.3724114373964554 0.9716242555253136
Ni 6.306923524982344 3.2922961479870962 9.939006697911713 -0.6948604268318549 0.019762784449224028 0.48165195429253826
Ni 7.6700028903799335 6.12710143828915 0.43766609961216046 0.7788025741724652 -1.0174531409339704 1.1489794658114472
Ni 1.450135428879802 3.901457232568065 6.167813358611352 -0.46305336535474445 1.2476836019525803 -1.251454381848922
Ni 5.242936847549211 1.627023873378475 11.297787398327111 -1.7106017272810412 1.534188569193203 -1.136071242390211
Ni 2.6160684861704944 4.233069853250337 8.02533821895317 0.13519580330926395 -0.8848554373691857 2.3800041190511076
Ni 1.4836918534770704 0.564435534543424 0.09101509228604937 -0.8851200038844821 -0.8787022732835963 -0.21879702237068768
Ni 7.327460833004508 0.9965129069591446 7.364328478980956 0.49211197328359757 -1.3697168997379574 0.12065724337345672
Ni 5.419233010973911 5.700251871790417 4.716616450994289 -1.4759186298077163 -2.0554110866895114 -0.7594357396100792
Ni 4.973458213283393 2.6810805884307842 4.724282789145524 -0.4284931108813717 0.8702605702741464 -0.668919795706693
Ni 0.618010134001793 7.3500508033415 1.8194920864401651 -0.32370034534399733 1.519708373299157 1.8002668931483574
Ni 7.067486459097596 5.1361504207902815 7.235057581951335 0.29711796686977865 0.3640990608760181 -0.06861374451365602
Ni 6.371917118459072 1.2909969078167498 0.6275116180431652 0.14931887297420735 1.3455883821208698 -0.8705359354227201
Ni 8.814789662451442 1.047226973918061 2.622125485591044 0.3595564358106582 0.9528372047257976 -0.4428653204426437
Ni 6.273357845993296 5.17364921628618 11.742041699448041 0.5333745794778104 -0.48366641361940566 1.3881720211193513
Ni 1.6262650132524474 5.34005243489718 1.681226846038762 -0.24210175853489915 -2.156153336306596 -0.7067456083052152
Ni 0.30368749348363494 6.078923074678181 4.138228995402095 1.6586286766478597 1.3112335587900836 -1.330982973502869
P 0.8921474290900785 5.666797245502738 8.62680612764674 -0.02768126796535233 0.4262148563701563 0.3724204362575199
Ni 1.7478399580771344 3.9357169909406764 10.668079713114357 -0.08510068642508568 -0.37219932138564926 1.0692958366368746
P 5.588412547119158 7.4086773752730215 3.458350476027958 -0.43793291613803287 0.4889011796557839 0.30250879886804677
Ni 7.649726517988149 7.120310527382541 2.972840096348115 -0.07651551585923597 -1.2579322762637821 -0.6768673326885439
P 9.115307526750147 8.946942377081612 12.357744713578873 0.33206928613398295 -0.45225293230513075 -0.9416824736605588
P 1.938785823690879 7.821339959171752 4.041289241497962 -0.8843013646379286 0.11745107773133322 0.20922969039722675
P 5.232803288549209 4.2285907276284185 8.335011453040643 -0.4064263608893194 -0.20512826663434347 -1.16007017640797
Ni 6.983956318883878 6.773761318366019 5.6660892845315045 1.59720630767632 2.19558685971187 0.17481367481120216
Ni 5.57867692696573 3.4289279882391837 -0.010333453862468247 -0.3595932025858646 -1.0172327973930482 1.299925332866116
Ni 8.766259631952801 8.542414403558228 4.45303564061039 0.06526256865323599 -0.331865397653293 0.7640315865108777
Ni 7.576440989475802 2.091908990096395 4.796137588688555 -0.1558340483849058 0.05265053631618029 -0.3276019943912487
Ni 8.787729820884314 1.9974771763648658 12.872065865750779 -0.16815580317505233 -0.821192866213218 -0.9663210981448455
Ni 2.7605758138280634 9.058587359525475 2.229097944733689 -1.6473086236493502 0.9661856010082457 -1.6404622901514783
Ni 1.2837507190523647 0.6830240871404388 4.085255005970302 1.6861574781957476 0.1269137658061298 -0.7358918908518681
Ni 7.09604551213322 0.6449691026985118 11.99405452010591 1.0018961670359776 -1.8649707610846462 -0.9414724145322818
Ni 3.6174121856392296 4.338921586439404 3.321386403110939 -0.7755318738409935 -0.9838722196547314 0.2995306900763293
Ni 6.474788937494713 7.539127281815519 12.77402854098144 -0.015237899995676983 0.32427190157675123 0.25280191856122264
Ni 3.961879156505066 3.8809772635571016 11.759378877010235 0.6030319347646323 -1.2256001397899796 0.4264992203797945
Ni 7.72160537894981 3.1184338896007526 8.116385701610453 1.9380862501233977 -0.5145546185578299 0.5155493783709314
Ni 8.556064631434943 4.620310622927143 9.719839564562347 0.6258499611004125 2.2029656686744445 0.17742463007148798
Ni 4.9917078738751774 2.3164760610498742 2.5017267739616997 -1.1205237815739153 -0.37076618848354853 -1.947430924563091
Ni 3.4249023278145256 1.8563199385319549 -0.018650375755894913 2.0000475223175425 -0.2807696074187423 1.0002504039024387
Ni 6.451652958042653 -0.05453057812932823 4.65807594490633 -0.8774480891615211 -0.5160335170962016 1.389285308788188
Ni 4.739581224198405 0.9284561098029639 6.180098563700397 0.015284694073212386 -1.365711892343622 0.8511570166754762
Ni 0.4962491759023116 1.8306852732990722 5.833420718638121 -2.090851686885309 -0.578187879137759 0.2845758685387099
Ni 5.291827799327305 7.483406588903177 1.2582900363849614 0.30335854846285176 0.28126480188760594 1.0143315645858533
Ni 2.4054292748471564 1.7502460999401486 7.061264731503349 1.7530452411572326 0.06715952856563273 0.2389097339601627
Ni 3.0733650016281393 6.883999633259196 2.575165925377608 1.8014552570295037 -1.6664759406064202 0.41522904678261385
Ni 8.921714905087086 4.599145828924398 12.367429434577508 0.2218736044134824 -0.6420278564118554 -0.11413692575643569
Ni 6.209382235612457 7.9353077939526 7.994821862055903 0.8392504950458772 0.4047829117486254 -0.3509090445483053
Ni 8.08657082761017 8.970568839298057 0.7353114007020953 1.9627397870060197 -1.442818761929954 -1.4453788093476463
Ni 6.8184600306674 9.317506732769374 2.444716944274289 -2.450591699461683 -0.32811415814097683 1.4543745850883534
P 4.610334388587415 0.3179966340551453 1.309649134451001 -0.15144748928143595 0.26025374685357755 -0.0244452775265579
Ni 4.654079898535371 0.5911113188516496 8.977330097933127 -0.5513208795435859 -0.10651540465543592 -0.7828674882704582
P 6.668807261179692 0.40139258558804214 9.491800245812703 1.6815786005758138 0.493994020797659 0.09156443977255843
Ni 2.2550454084087637 0.9385248880605006 9.363951748799794 -0.6817601420044711 -0.17964014966556804 0.2055293587275041
P 8.520962723410276 3.657585500359787 6.0954569710338005 -0.7390132100896692 0.3997404642287115 0.4091633002045083
P 2.7102319225403804 1.7762509408442644 11.494199833165787 0.17036309523901627 0.5685459851726208 -0.8240030819685035
P 2.4848134475430657 2.603408478214327 4.7385049384342945 0.7737773530437319 -0.3558725592011678 -0.6202614112690414
Ni 6.334196217560433 7.837451855262167 10.564976534284195 -0.3558802725106516 0.7963596092196221 -0.4395228863329721
Ni 1.7948337595401593 2.220461746323824 2.031168715082134 0.5247135613687027 -0.20520000041254338 0.24791630833414724
Ni 2.3931949689129066 6.30272203111385 7.181569048336528 0.5511018215542445 0.762242612931255 -0.6650019487095256
Ni 8.319651939002009 6.69191547745641 11.452928947580025 0.17829957647727357 0.4461187943829349 0.0246710203841188
Ni 2.8708881638554877 7.533574646747025 0.3466167660765221 1.237329769522082 0.24652354175167865 -0.5060527517344059
Ni 4.254595568532534 6.888099328818101 11.93915839350124 0.028182118861170818 -0.1997934846849914 -1.2329537519415732
Ni 0.11597141060139786 5.990386308511035 6.41058937083278 -0.5489222974044223 -0.7090878832851465 0.7771323855588939
Ni 4.919680942645023 5.475795853538308 0.12294366936907078 -1.5255604612045597 1.226066795013753 0.4619601322905657
Ni 6.029726727971319 2.7871914445897144 6.676648507335584 -0.7660172494823388 1.2974581022725462 0.5581049923449549
Ni 4.19772733103937 7.774272122574479 5.1899239896719385 -0.591684113851981 0.3732601585499959 0.48374534648645723
Ni 9.096872778322744 0.20032611712278808 9.97357277665227 -0.2557214062008628 0.060261773004534926 0.10834294478247793
Ni 3.7722936864831023 0.7334790311294922 3.930127338305059 0.5815799355384436 0.8762934067317876 1.42773872766838
Ni 1.8756616173538774 6.283287808374119 10.573523890532963 -0.2581665253072457 0.726984046839277 0.2786818716517781
Ni 1.6054796493127164 8.34772976366503 6.150543738109157 0.6742949439756775 -0.06544383142610664 -0.33309875583976184
Ni 3.908768202074916 5.103852593475206 9.836080277964566 0.3465319985265322 1.2303227420766296 -0.1097645077203529
Ni 8.919771482813113 3.1704898433678887 1.1405686202978096 0.9283790716834334 0.9821158990852569 0.9180031277657481
Ni 4.792784722546363 9.178089320591257 12.636860871445242 -0.7260378808759238 -1.241460246750688 1.1233478812862716
Ni 0.4395308595559966 3.455543619000834 3.6382521504904672 1.3787363296277482 -0.7774195777820094 0.19327728083302842
Ni 8.63272801294729 8.084183194530718 7.04776072301677 -0.7694134196480814 0.9437198158055617 -1.019779732184618
Ni 8.517131405213014 7.352493962771638 9.111138423252886 -0.137047511806022 -1.856746316292325 0.8467961686036191
Ni 4.815013771603902 6.122899944420657 7.286608245927238 0.20777084646351315 0.20933639117842015 -0.09167936808386791
Ni 7.167267311278443 3.0223085221733323 2.578186558854869 -0.03429671639934094 -1.0433135536405 0.2486328747851976
Ni 3.743429238518712 2.708038631688325 9.501403528163664 0.4702239149612547 0.4885232274910748 0.011285343105832176
Ni 2.62399024553488 5.783023151878108 4.790137041057869 -1.173416772918205 1.6546234121432086 -0.36350436471481273
Ni 6.396515291812503 5.779636044486327 9.640995848346437 -0.1598375131173441 0.13296459998590004 -2.1966207002930234
P 3.5064797913624903 8.726178861150052 7.312709332505875 0.6670650018861416 -0.6915496172910671 0.6255529986852839
Ni 8.492681302128076 2.492809242041698 10.388394410153467 -1.0090340636323396 -0.9340444974993268 1.8386154110195692
P 0.676120310871944 0.5017860785047787 7.569192024393882 -0.8926163122615272 0.18217371472069918 1.7983511641828833
Ni 3.764260874417347 4.42500593878463 6.060525343817902 1.615088844383696 -1.8101116471529213 0.004395557964534366
P 6.971694249774286 3.0026799572062046 12.08236640455278 1.1982615998760267 -0.017977153303710972 -0.5838000831182139
P 8.332534052360916 4.924206340225846 2.256742663861367 0.6351390997118224 1.1883798219859403 -1.7903702028599358
P 3.271473766480242 3.6784541538255455 1.2927765273562024 0.4172303934833589 0.9772904526721556 -0.954835466102749
Ni 7.8779768368703955 4.655468057302494 4.223912632583212 -3.8258691240065525 0.4257692841923055 2.7677053927270983
