# total energy = -340889.53174896847 ev
CRYSTAL
PRIMVEC
9.13352537505406 0.00000000000000 0.00000000000000

0.00000000000000 9.13352537505406 0.00000000000000

0.00000000000000 0.00000000000000 13.36783761728447

PRIMCOORD
 96 1
Ni 6.394125526651619 1.9024037780331344 11.435556733060876 -0.20734712866253324 -0.655197046803962 0.4646770170010965
Ni 4.442720383829597 0.5364740658586986 6.209253835189947 -0.17219680601364537 0.04287057411128101 0.3458519417403721
Ni 2.6674187479031093 1.595142843669116 4.875143499465004 -0.5647080994837694 0.19055242570269762 -0.04640352696520396
Ni 3.392337540434181 4.31163602456583 4.613508178831909 -0.2001092161531973 -0.6873134677225324 0.6377423416626242
Ni 5.469511330626749 4.6089505495626355 2.676468245057411 -1.5826942301030744 -0.7307800235465995 0.7922694983106484
Ni 7.301175952967444 6.343900269433709 2.4304201991957455 0.39427378468718555 -0.45040739445595973 0.7296189133589628
Ni 5.332417111524941 4.742071685032912 11.471810436184182 -0.11591124404803908 0.2651190453656789 0.1723446444454193
Ni 5.776352122813639 7.970325438247641 12.36946063796306 -0.9273925394004479 0.48156787921916416 0.2663547175449929
Ni 1.9413856652500907 6.4674220695091815 0.4675625286367645 -0.1795391053113295 0.05135521454352446 -0.5962779038702505
Ni 2.8041110918789687 1.6464458569066147 0.22172729392133958 -0.4147006850829697 -0.05523860875833068 1.0906419064128183
Ni 0.6577892061516935 9.078961907854339 4.766315715358284 0.2283946933614518 0.09485725159121729 0.5321898151410899
Ni 8.474843124773 2.1290065479142704 1.429943852975158 0.6524246262651473 1.116541914108032 -0.06625321470127944
Ni 6.6474712594594765 0.9852334053638914 5.07719809261863 1.0585568529528155 -1.381634991331782 -0.7062398723133902
Ni 0.7154820338917652 7.612519573270071 2.798984443965455 0.7627900007942927 -0.9650949390472283 -0.6426356651991836
Ni 7.871929967069508 3.783362037981589 3.770759599372883 -1.8506594866682964 -0.1319104476897728 -0.17346307432057867
Ni 7.502022180685549 3.5143523087873483 12.753960144829167 1.2303885623175586 0.525647643147198 0.9989769365066538
Ni 8.37030992439857 9.01188529592338 6.943562805379817 -2.9927936474231362 0.1902436362130272 -0.6221470583275285
Ni 6.866018259770474 0.8064647357012755 0.3920483657660166 -0.6111604774090378 -0.5500145020273366 -0.6527334157548178
Ni 1.9716815696312167 6.6366297645844705 9.166633706637572 -0.9850161034511875 -1.4546360662798563 -0.14903759428836266
Ni 9.1278080027082 4.724133440774687 1.3691337529513123 0.11600020421741956 0.25875787903434144 0.05325911643445666
Ni 6.460590192368065 2.1320480119356495 7.134669041409038 0.4071061605651634 -0.17136222592749198 1.7755326236264712
Ni 3.728076807586969 4.536887032659687 0.6752762542457853 -1.4977277552630077 1.1542890509498185 -0.3118578441831146
Ni 6.099158317731374 5.529719531314232 4.896772601414037 -0.3554046184258137 0.6786128546247409 -0.9789894376411334
Ni 5.482106462414983 3.1357311389907903 9.593963968404147 0.020096770749875068 -0.7680993288223481 -1.3031237851987558
P 0.29658292959706817 5.719020982686921 12.692401095706963 -0.825451641489572 -0.06324965198826525 -0.36915744923553195
P 4.137185685802038 6.386343762849171 12.570406421110091 -0.0403398372696273 -0.6724951717627773 1.0036193203746715
P 2.2193645165734432 8.424005921340578 1.3865121120908863 0.32355096425032664 1.4976593639189175 0.6971533366310897
P 6.421480435792852 7.753504674273103 5.642229952938729 0.9406162371795737 0.35549460703645874 1.139562029152289
P 4.736134893399589 1.030407822930683 12.688511127158296 -0.1890251904248938 -0.11543019064656251 -0.5175322131289151
P 4.033100028181504 6.149511444307541 8.222623555670356 0.5694592410155096 1.4297529298849312 -1.8739950760704436
P 4.590172020950156 1.207196344245446 3.9598875137593676 0.8003059954618797 -0.8509613557249023 -0.38999855435059927
P 0.03946231066297607 5.62289062585504 3.4889391871864914 1.2470259137639232 -0.728749623380132 0.12480597543450762
Ni 1.2693499858835406 1.1758500844215014 2.485308121227212 0.7845962980361068 -0.22841243397326472 0.17674251640279884
Ni 1.8301119229904421 6.277389936089314 4.909578717643393 0.1368647063712546 0.8051039310711553 -0.2100645275936963
Ni 6.2863499246928365 5.632024151444767 9.146021166086676 -1.1681133584274206 0.08255760828825782 1.0245023344712678
Ni 8.732673418645415 2.135884092683335 10.365367839424136 0.10599475626527552 0.8943541208882403 0.21457038588384983
Ni 2.3132662931614303 5.133625927064524 7.0583255544147425 -0.020905125583783348 0.2891339202230375 -0.012581179099120267
Ni 0.39007369753351756 8.913654228205862 9.171031499209025 1.1861121089976863 1.2073869592160626 1.017916453723634
Ni 1.565997763512296 1.4748817122291757 11.566601818164607 0.3205700272451318 -0.7602983447206907 -0.4160260887626125
Ni 4.092422276886784 7.2974129404244765 1.506662727871191 0.7449043787631234 -1.226768706176784 0.23642861940952184
Ni 5.9717182351779075 7.9583605197250975 7.823714085481337 -1.0091693036586231 0.8106063489466233 0.42888237589999045
Ni 5.170013893013998 2.823044890426474 5.370194286716612 -0.4705442744151509 1.0054175499256748 -1.4091720204097862
Ni 0.6103588077642391 7.356333314003808 7.16986690897417 1.4443999903741447 -1.8756953465910018 -0.8215782745770946
Ni 4.863584109478645 4.702824925573854 6.849051822634996 0.1149203408896795 0.5574305919857496 0.622087922954819
Ni 8.140473886458672 7.220316850921588 9.004374797830948 -0.8882719192499025 -1.0315561559942557 0.32528620177387846
Ni 4.603022891454903 0.2733189265674736 10.457967175263029 0.39545700636200926 -0.44614964762087034 0.4787728329725303
Ni 8.416973106636489 7.02527954547855 4.861976608974852 -0.7239300905043017 0.6813505652708782 0.5900064690392419
Ni 7.180677349862171 6.132596154915365 7.002461258497734 1.3389567357369652 -0.8628799615393591 -0.4882149522220366
Ni 2.336027038931031 5.454906823208774 2.5002268219254726 -0.5771242137599351 -0.6999887491973558 1.037553254117955
Ni 2.3732278886579903 5.685327406786416 11.484283178729514 0.48074872575197847 -0.4347270076062255 0.06558858453408704
Ni 1.003673993529551 3.510552762142022 3.8533997389087364 1.5326695614455152 -0.35782839737595795 -0.30827218371438525
Ni 3.671531150660967 2.5863952423966374 2.5518531619688476 -0.40346290738562135 1.1536691579776324 -0.09504828455610083
Ni 1.3491952665889373 3.2004056336916498 8.2206991218286 -1.4679952611955815 0.05302128939203772 1.0522864465630717
Ni 3.553672136451125 2.7669650433055475 7.332606241226814 0.7613283286471016 -0.2261804593189524 -0.5720246877498406
Ni 4.189730858519739 7.341007258064245 5.99645090912233 1.078508356374078 -2.4892865449287194 -0.7954851770344687
Ni 0.4666464360201149 7.130744365463132 11.036393350860461 0.41142972764118174 1.0512515775406541 0.43578115990235267
P 0.31854449187756767 5.397740086542671 8.25125807174671 -0.025780965618845922 0.5751197817353966 -0.2491314116881709
P 8.710606820820633 1.634307401397867 8.264599412575626 -0.01963140107768232 -0.18397965758118637 -0.26072477295272517
P 2.0554908004425547 3.3265852897137336 10.36508744018853 -0.18926893100458372 -0.351816129743607 1.1564042975206084
P 4.138720118101112 6.040338412933529 3.643123146019238 -0.22229295133908814 1.602606395645969 0.3531446187470434
P 7.279529497319791 3.9303843993994305 10.645785342079947 -1.3308294786441404 0.9259311243635732 -0.42195453843190556
P 6.323989183648103 7.850511849561597 10.13089653724745 0.5690470931787555 -0.5706630315156236 0.8285709038448441
P 2.344740422343631 8.28258241110924 6.011142185033407 -1.2568416143027645 0.7232492623871931 -0.7291669134232087
P 7.028129205462545 3.893950765822008 1.5743165786194195 0.561592436672923 -0.6754956491519979 -0.650364658412325
Ni 5.205232767687987 2.9768534613574826 0.36632379094254947 1.6110067038945224 -1.3682721968716305 0.5331285249052754
Ni 1.4048823721095052 0.8469308208265626 7.2360374751666265 1.4526149220847693 0.5439842366728566 -0.995084286320467
Ni 6.962422622370045 0.7931407485709812 9.269178538491119 -0.40821533446894215 -0.7187464894208332 0.1252536044948875
Ni 3.00005261635539 1.4895592878518675 9.24344574349462 -0.6534242711742553 0.11923773731811078 0.478654305116795
Ni 6.355865187956251 1.7791377166741738 2.7244585285635154 0.17174866273263326 0.9307051487134488 0.06965864083840262
Ni 4.174158197389254 6.893090029618425 10.257756640925969 0.8786583074195384 1.031664656547662 0.9039739033661915
Ni 8.047101854354889 7.424533349582303 0.2962130218106842 -0.21661158468359468 -0.4345336606484968 0.43542069123914046
Ni 7.940349207262155 3.792632566455162 8.560242502389512 0.04448625533783306 0.12131004646610719 -1.0285623634732544
Ni 2.9379537758708336 8.383909744001675 12.553188812020897 0.8899572773721253 0.23123679079593726 -0.9113455132399143
Ni 0.22895465272049084 4.746601913725416 10.62573360000026 -0.11184093063340739 -0.7456818803590964 -0.7083533191119672
Ni 8.6595138786717 2.1477942100523397 6.195578207324449 0.81082772092881 1.5220930714812497 -1.6831634285644304
Ni 3.874542023943837 2.9285188439366454 11.728606814959837 -0.936240219599065 -0.41043805315187376 -0.8620975748473798
Ni 1.5146125485444897 3.7806128467790807 12.753652345016793 -0.49884080736699893 -0.29490116172411796 0.24451036797639178
Ni 3.177754490229126 8.315134296311028 8.087154190770962 1.341809888915044 0.7171814589265584 -0.2943607158396156
Ni 5.763930528011611 8.15662195970131 3.6975973193414897 -1.6111164899995094 -0.15234608983630538 -0.934812743123919
Ni 2.9344830361467373 8.652015254162533 3.599036531350183 0.8114278164066542 -0.5508076873525933 0.08654358951919934
Ni 3.622036575490234 4.626030242415426 9.532471594018748 -0.27009978640972193 -1.654902376836208 0.35878870440669824
Ni 7.312446723545168 6.1649105684518215 11.871575717720958 0.9292496472138447 -0.9080035933508749 -1.9212910329429298
Ni 0.5876729569044743 8.87754940154967 13.38601838268948 0.6377739662315081 1.120014960258297 -0.09579107625939631
Ni 4.61949977161877 0.5634015260023327 1.5230510128368389 -0.10721783003909922 -0.6553885939894777 0.26985733138161266
Ni 5.9636533320821785 5.60884326349804 0.43769955336859195 -0.0826465684576383 0.630747655512346 -0.270923824972914
Ni 8.056271914046976 8.87857235641572 11.433792135916942 -0.8028377607447981 -0.3156147401223855 -0.47690415519490764
Ni -0.021302121732921144 4.7187994618302875 5.852252633816833 -0.09081033521535327 -0.005619917289938709 0.6329909430205679
Ni 7.964005038539549 8.881705155692996 2.7956561872405583 -0.47633131341057316 0.5889003804592567 -0.5046167906188277
P 8.623061978043097 1.5509091792380665 3.833507833526869 -0.8431932817437091 0.9860288609864181 -0.02877064437478916
P 1.7145180231268526 3.2776752601807435 1.5801054071381888 0.7450007951316717 -0.49970701202203616 -0.07001473862624072
P 5.033787358843214 1.0185159726128579 8.273648909729928 -1.5617986176009877 0.21457244276637885 0.8299410447194933
P 8.606155822176511 1.5113336128577777 12.511881529188795 0.5420065441211955 0.2410049259262946 0.7144468336042147
P 6.290880153385341 8.05876536653297 1.41188413282659 -0.28372020540663395 -0.2693425965287232 0.44556292187946495
P 1.7809552882665296 3.1405445069765765 6.060443129461637 -0.16355867072267313 0.6207787172250923 -0.7091580744014496
P 6.947361438672585 4.026505622705721 6.281707353635578 0.5644278492391892 0.18049195614290203 -0.6371959822408509
P 2.315056464177017 8.519907940032716 10.1209108537202 0.45475538701201035 1.287142322168835 1.9742465020940383
