# total energy = -340887.50954001053 ev
CRYSTAL
PRIMVEC
9.11908077876573 0.00000000000000 0.00000000000000

0.00000000000000 9.11908077876573 0.00000000000000

0.00000000000000 0.00000000000000 13.34669649053539

PRIMCOORD
 96 1
Ni 6.5054700564728165 1.8508997973934176 11.618752869419202 0.2556139340887211 0.5341117147541511 0.8238259329606907
Ni 4.955290181327232 0.31442134090863844 5.749022255451294 -1.5999242208281155 0.18392540730448323 0.789329441845718
Ni 2.8564425813465997 1.6898477142197212 4.983309468500071 -0.21391064081266387 -0.3502171606876033 -0.3889516011433237
Ni 3.5868262260843853 4.175754691942697 4.516107962465799 -1.3657982814098413 1.1435235849031984 -0.23498674475667272
Ni 5.243416653211956 4.194020210463559 2.6249747812910362 0.32198079154972936 0.5261469513811197 -0.2797648203033117
Ni 7.193504690720899 5.922396040385044 2.6963133491336175 0.5396655546928447 0.23120002402073087 -0.8235706224167751
Ni 5.209776364732948 4.589770072055318 11.462009551847656 0.0007075675899858782 -0.8262841646931963 1.006287611235454
Ni 5.787333337033839 8.035040809373196 12.728089941118906 -2.506184863345955 -0.09984133506936999 0.8726954049678841
Ni 1.7819139523558198 6.735553580087307 0.2716409979046884 0.004539796851882504 -1.8747967460361326 0.6895523843553802
Ni 2.4304629674349933 1.669393616345388 0.4297485299398996 0.5530085516586541 -0.8979750054702793 -0.10827481054870385
Ni 0.6732553402556922 -0.021938684202439197 4.6589446820621525 0.6036014341148573 0.2456938467615317 0.5609252354025694
Ni 9.050103913513986 1.7936228518969006 1.2152460742465199 -0.40710333235168594 0.8672279540954095 -1.006003761446448
Ni 6.904922264804201 0.9527706642925637 4.628073858373352 0.046508942194816674 -0.9609053264459129 2.0119702418970578
Ni 0.26776265290872137 7.217743207060613 2.3237131856532187 0.7063756265603061 0.33354767045172234 -0.1017418945261925
Ni 7.660118927961988 3.8628699161218103 4.068313683848451 0.7555798561990988 0.089384144291788 0.8745699962827778
Ni 7.631557967399165 3.9187516422804882 12.619928525654142 -0.23730845091131386 -0.04321844436900299 -0.3891791437730975
Ni 7.86553533844671 8.824516096654753 7.4006227216529465 0.6530303781699462 1.5628160031219083 -1.1623808268190174
Ni 6.985060745463872 0.8341451037940059 0.6754110909188631 0.09100933860003681 -0.9868076481339715 -1.9086471189266743
Ni 2.109316304554745 6.321410532845735 9.397355768540848 -1.0013073844120433 0.7774797415959835 -0.281044972567316
Ni 9.191121376522764 4.846481311137064 1.1679937340969733 -0.3449985926011413 0.06430020473996668 0.20660485117986999
Ni 6.369896684605802 1.7852424167892267 7.053928954361221 1.3371477075526843 0.7752176850346844 0.6239604573871834
Ni 3.373457977282044 4.283523986939965 0.7074646593666035 0.09673672800211727 0.6682484806712814 -0.6521443760205672
Ni 5.931743098040502 5.458335145723008 4.580385626169238 -0.24602603328996983 0.5854723286143142 1.8328617963652434
Ni 5.3213300781955954 2.679486821537666 9.53313158399806 -0.5542840759369679 1.1138931636312752 -0.15951792499439624
P 0.10213461507013852 5.628861953681113 12.480842483924803 0.36042366890695987 0.06327921967462005 -1.119289394946182
P 4.173438445460272 6.055261045302135 12.693214929121314 -0.9943039565110167 0.4829560178159424 1.6570824152066623
P 2.0956468026761783 8.406825727044426 1.7321739270078256 -0.6633479580458705 0.8443618481305135 0.1694261852470437
P 6.545293081625386 7.930253453745036 5.693673995510026 -0.5622629803773865 -0.4973426255549177 0.8121037594277561
P 4.670364506746962 1.022385725894285 12.910512589771201 -0.2586640337689545 0.5781883933583913 -0.3582341174548089
P 4.150139194426424 5.94194734927607 8.508064848395769 -1.3871083557415271 1.3314935945907003 -1.6150680184480897
P 4.738465800962532 1.3776651076080728 3.7496474109021394 0.5282015199173031 -0.608867567609803 0.6521384624832962
P 9.05519236051081 5.657258770792427 3.8791903347422716 1.6682636286344623 -1.7463662864751601 0.13225497551338514
Ni 1.5054143082864213 1.28015477833021 2.843206235798408 0.38755549212674545 -0.621338446383304 -0.04876894187358698
Ni 1.9404218120311039 6.725960307254584 4.8446903236994725 -0.6869499137355266 -0.7287275118929449 -1.0873087282745275
Ni 6.051704603852742 5.2995445945479 8.98746494860146 0.38561559479155527 0.24959986668415726 0.24668603547147192
Ni 8.681072958195877 2.3633009385252897 10.387586704192294 0.21744770743164488 0.8277563783633486 -0.7226221703261555
Ni 2.458121139014509 5.787087121856574 6.993695602921387 -0.118350449617151 0.06749711441070956 0.2503737687357043
Ni 0.26157718051096823 9.203523326192446 9.333744709632153 0.6697818865966724 -0.016389239991300805 0.1767234902394053
Ni 1.6964864049252562 1.0088074148221127 11.300620974598363 -0.3066459609648719 1.3498273599028818 0.4544823358562818
Ni 4.031855599451847 7.490102788519692 1.5352838569210083 0.5939770236512157 -1.6677388664792439 -0.5189499194120483
Ni 6.082609168139909 7.709042795592749 8.011500814610466 -3.2622169765911235 0.14982255208350326 1.095629589435397
Ni 5.348979130694472 2.9348666748460497 5.138437796890367 1.1428047044593028 -0.3052884184957129 -0.27325607265051655
Ni 0.62651458053002 7.646239687228713 6.923198726221829 1.012903573890075 0.8348477379924911 -1.2886248202516324
Ni 4.5803591808353845 4.624322268598274 6.823271840574507 1.3097760004079506 0.8280751951553481 -0.36694167253113574
Ni 8.052020537523891 7.217305491189919 9.409514238757454 -0.4874485063696573 -0.7134189065603326 -0.6269928164556041
Ni 4.648059235502816 0.6615154358404374 10.730237071128478 -1.2984024684636863 -1.1837232970505356 0.08043259152545502
Ni 8.237985949004623 7.46186099577925 4.474319775435424 -1.2123651291569444 0.10506273136930938 0.9287284846030521
Ni 7.357867000166724 6.135964908961453 6.996925581283888 0.7987741321983857 -0.6451823428804372 -0.8453928604981892
Ni 1.9477809101071568 5.48948592518744 2.4660419724579534 1.08771367702243 -0.6327238054021104 1.1498906647718066
Ni 2.1929838694218913 5.142814955597312 11.733761802536145 0.6668621418467161 0.3711577674950124 0.6272129028862101
Ni 1.0956119434292366 3.556842688941805 4.080005257136317 -0.17172243748038812 0.20302073337303747 -0.348654958406806
Ni 3.5217524666411206 2.572073170685338 2.456352949278515 0.11052632558704191 0.7418169980870515 0.1958465842221014
Ni 1.473670788580423 3.5612836812132276 8.1744514903733 -0.38468691232969876 0.061305640888016995 0.18391975087752843
Ni 3.8265850942573554 2.497634115425336 7.1104253065549985 -0.13124890284637394 -0.35219099658452246 0.16111329450597411
Ni 4.337490706164354 7.0919363705584715 5.596229323612768 -0.08517550552707912 -0.39072849053808834 0.4225186384654917
Ni 0.5143872768951492 7.572302181403883 11.172186019055927 1.739686560462139 -1.7309057289457157 0.1417755134093107
P 0.33781634228920115 6.006565154687361 8.040663634495493 -0.42076463188886243 -1.9355089763145246 2.1264681505373377
P 8.651818947504454 1.701656923647836 8.17138109592199 -0.5803879721128714 0.22792135326945906 -0.5573565442147047
P 1.9001610710078396 3.1383316020739254 10.324577504605806 -1.2499477153964087 -0.022308176578897065 1.4008737849567356
P 4.098269863749113 6.100473447112632 3.5442018193593703 -0.7652253497086627 0.5406945101779913 -0.3126168338363261
P 6.957539360093949 3.930341993773256 10.392017665475013 1.1306955799005947 -0.5974151027984872 0.46555093496561756
P 5.90092972455973 7.876842998439654 10.412331329507499 1.6392957806472026 0.006405646416027678 -0.5413465419396934
P 2.541159487317531 8.57155279971583 5.861335588331211 0.20178069031834928 0.22656766745504206 -0.43219961319868144
P 7.193203761059796 4.018450550911824 1.4277762795380935 -0.6903188302077594 -0.6175000464738203 1.1378267916287372
Ni 5.5637699560765705 2.9427546795991923 0.42524735173625666 -0.9479533942709352 -0.10515786218627696 -0.08996084273086442
Ni 1.2944170204503425 0.9719116145548131 6.862163807593785 0.40809397839972944 0.3031819136756714 1.3582310105855446
Ni 6.743222726905103 0.7441507207791951 9.470962251738465 0.5730392450572841 -1.0216481528519243 -0.7386272875051603
Ni 2.7469771373503904 1.6177978580872614 9.075153116122548 0.1370498257988672 -1.678519759144832 0.09987475941046671
Ni 6.837121900249735 2.143257522694856 2.6916151987881625 -0.9448333605847146 1.0000832821969552 -1.499457593469921
Ni 4.012067194464195 6.768519056598995 10.636182873412976 0.77432936889246 0.7825946942250458 -0.15536842160239694
Ni 8.11959292506237 7.2589796897123 0.2411440565221057 0.594861226028382 -0.08088433435089296 0.1352053163909607
Ni 8.03428392568012 3.9373089713818117 8.412702974516566 0.08961425802472309 -0.5007447092579311 -0.7966043782405765
Ni 3.0401646989900204 8.222392321111126 12.391019539626013 1.836234312381902 0.6484661558380316 -0.636526209867336
Ni 9.480469805213177 4.85363067035841 10.235207778614798 -1.0348610519977726 0.07159416729821864 -0.04354805979427984
Ni 8.816235971434114 2.5238149959412577 6.069770414507598 -1.0889524345255375 -0.814404382536475 -0.09188377078519014
Ni 3.4325222625838974 2.8667380233885624 11.890424872198066 0.636050555782498 -0.6056287489575312 0.0850538923475503
Ni 0.7645555756180752 3.239453087285019 12.600736508540312 1.0355135979801071 -0.38089582071838274 -0.36084738670793987
Ni 3.2142753056394398 8.290083256697919 7.915979356820071 0.44706598878755266 -0.10368590562644078 0.8548686611991083
Ni 5.5956593810727995 8.255275725897059 3.44582335360463 0.9737474725159034 -0.9393988198327048 1.1930489453268358
Ni 3.275473455810929 8.562543148044032 3.706297125358222 -0.8632008352138876 0.4858819332134858 -0.2042306945207386
Ni 3.561675801680724 4.376055298188677 9.884763333456059 0.3773181306694534 -0.3805975727516736 -1.2613942666704536
Ni 7.146587020830821 6.050482647047053 11.463063717569579 0.4507650349056947 0.42434206482747566 -0.5295634332618363
Ni 0.9638229900276024 8.815178158079936 13.191914651592382 -1.9918557305353695 1.8049776683604655 1.1092152985396315
Ni 4.856120179372986 0.655644571724746 1.7257148821908883 -0.2989984717219431 -0.0335616380055293 -0.7858548530335563
Ni 6.165282753217352 5.775980081637699 0.4598788842807755 -1.2705774758316182 -0.2395095723276907 -0.2375359935410877
Ni 7.665572138184391 8.519191038683989 11.621355455033706 0.2891346915539859 1.712074969392458 -1.0459504770427148
Ni 0.24970960896676075 4.725161062309543 6.3132006245460195 -0.05442871126252561 1.2283239664790457 -1.2353099108785757
Ni 8.047196543865612 9.168050102504903 2.713490049426125 0.3455688632823145 -0.996426145060342 -0.88930678827232
P 8.709305631855678 1.7516477237134158 3.9099681438085496 1.08862153354868 1.447526194707952 -0.1464415514264123
P 1.5722206930511855 3.279367303243983 1.6944829429087642 0.2664544763476508 0.48856230825912633 -0.24816030602415326
P 4.797821896844848 0.9480469805213178 8.259630086902407 -0.29377913230453273 -1.2960319113489809 0.33362788887035444
P 8.61551588747872 1.304995153992129 12.246861465245003 0.20847584295033772 -0.19122734028253519 1.8273295536931045
P 6.491444910449309 7.786810315286157 1.5774058023027888 -0.03331198388856844 0.4386044882837608 -0.4085516347624383
P 2.153744465430248 3.5128248866950784 6.1111856311398185 -0.005178715987462049 0.2962702741575026 -0.5688403764845881
P 6.811670546184971 3.9963550185223857 6.509544461702531 0.028463397547015497 0.37290097543836426 -0.9123436154871255
P 2.2623162395237886 8.503405910097063 10.106665217920815 0.844328680899733 -0.8771989492651925 -0.5119583185855635
