# total energy = -340886.95649666124 ev
CRYSTAL
PRIMVEC
9.06468275466553 0.00000000000000 0.00000000000000

0.00000000000000 9.06468275466553 0.00000000000000

0.00000000000000 0.00000000000000 13.26707948362976

PRIMCOORD
 96 1
Ni 6.257151120710013 2.328109680136575 11.652781190134949 2.110739169837855 -0.8638366690256736 0.07612959327472694
Ni 4.913275635398671 0.721211545474181 6.339714064679908 -0.7061676243145579 -0.6718989329396752 -1.5616186403796977
Ni 2.94203345280835 1.932155270313672 5.008375942163056 0.8795445666792335 -1.1271963084980845 -1.0089756995905785
Ni 3.1488985792149906 4.545847782378788 5.1458753963028565 0.648816854309231 0.1540504741219218 -0.7340828626675873
Ni 3.5175773584626526 2.8893223222682938 2.8355062068937005 1.4634297533120861 1.7082787355748192 -0.35002304239892623
Ni 5.314288138229546 4.809421564444687 2.5717701670055026 -2.12630462837628 -0.6980226266099204 0.4271173135797677
Ni 5.430461113122299 2.989604908195145 0.5058165525433453 -0.9650250050412412 1.9455619896751526 1.4503896322986762
Ni 5.810398228419961 8.378631356193008 12.803408515556809 -1.2354919449823947 -0.75034380461114 -0.33594059616393107
Ni 2.463309424247484 5.7579137149501545 11.551486985606504 -0.7442258646388602 -0.5174730777562055 0.6089698975156222
Ni 0.7981072497512737 7.848637481658873 11.089394837065397 1.0578809099317135 -0.9033954051549022 0.5716307947455317
Ni 0.6263877115355021 0.13222743461751504 4.721634643771399 0.25023261517214973 0.3727374532773065 0.05149276856265326
Ni 8.665274756010316 2.6743080460154776 1.6069615874420642 1.480099243547967 0.2705607852065405 -0.8548732891847987
Ni 1.7310099587601309 1.5593067369734173 2.8143057267377105 -1.513591718878458 -1.047362784009209 -1.2619388263200138
Ni 1.9855643814300965 7.040167486519226 0.20726487891856113 0.1366811296055388 -0.5051425812153106 1.4593571259046092
Ni 7.596467070567934 4.039648700220861 4.109663403776895 0.8202173896738261 -1.2870263654162608 -0.11536437040563356
Ni 7.7249770787650744 4.0333668750335425 12.829133178903263 0.2801846814495497 0.6734259111071628 -0.5702182306687211
Ni 8.38290988647932 9.448662773814737 6.907929174282339 -0.03134329019797182 -1.5956680166549229 0.45452912993381717
Ni 6.82553392694443 1.084960950209774 0.6439677573771848 1.175930283368678 -0.3476509426223239 -0.1583647852265595
Ni 2.0719870673404825 6.785477093607111 9.39960652338367 -0.5272144734136855 0.22238602527352666 -0.8664756493104175
Ni 0.10057356224505153 5.309157527759096 1.6063252467088034 1.9977163030812046 -1.4989688267589605 -1.3557360120778328
Ni 6.685611483089519 2.0621972099056998 7.2859617997216235 0.5392816889908647 1.5236683863881695 -0.26813237827070596
Ni 3.5155559341960263 4.553344275062645 0.518894170433309 -0.19745583769075026 0.48369392442323156 0.6408202092569996
Ni 6.286847021595521 5.7369108448794215 4.857038343245532 -1.1217818223507325 1.6181790532732452 0.2551357089007219
Ni 5.30145254737061 3.151518272547076 9.59817474561433 0.1588270695749587 0.5875695774629752 -1.6351766162725063
P 9.292568935826816 6.10243511450921 12.651101902046898 0.24544599241678375 -0.3754952185281017 -0.3280362537151899
P 4.24721180720387 6.496984498496566 13.020683523702434 -0.5925243503650892 0.908067613819591 0.2719126712487446
P 2.406374151517976 8.644888284370662 1.674796234782297 0.7550612646914674 1.1478767196655715 -0.6388507442354546
P 6.763921277884969 8.261397813411488 6.15278036283586 -0.3456313410891338 -0.5662497329392764 -1.6368110665521356
P 4.7057125284156625 1.3227185156328394 12.766406480326454 -0.44280464240803735 -1.215355579243836 -0.1771484935919659
P 3.936447286429195 6.832223662858198 8.322889902189575 2.106672713077965 -0.8902917778934086 0.15042881820893447
P 4.856485397594123 1.2827070057095709 3.7593732400775663 0.3993010626984478 0.394604685664043 0.8657675674997993
P 0.1318013945254458 5.543905618489246 3.9688870668012846 0.3443463037291231 1.204284923251971 -0.6742031555928195
Ni 0.943669739250556 7.452483648814151 2.5392261427810987 -1.6091333981312093 0.4537804246932507 0.3005668446503275
Ni 1.8030379283682623 6.954959468105379 4.757176358601065 -0.7624135912914805 -0.4723892980436897 1.307009236296091
Ni 5.972293463406272 6.071923392170804 9.464176978444026 -0.005302643159836029 0.7507790923763457 1.2061991095555484
Ni 8.460612347526501 2.7337904946145914 10.39437206669754 0.6826191475706566 -1.1014546807576062 1.2803181001581498
Ni 2.7835374738757825 5.234618641012599 7.465013759862391 -0.8326959817568111 0.06816508701201163 -0.20778241642773893
Ni 1.0564797168208047 0.28129704989598 9.000784954387965 -0.3372873399998127 0.9062758120264908 0.11258989298428997
Ni 1.4408857207437886 1.760615212817538 11.356699642575885 0.5116343595872413 -0.862513836449192 -0.13398661349251118
Ni 4.15800626367082 7.025745576168542 2.1094785954425754 1.1930420033483 1.0221968262665428 -1.6104955685860587
Ni 5.856528399239969 8.295997707697195 8.067406349531584 -0.9745370582967345 -0.020553141561003314 1.343237108279874
Ni 6.863088907826192 1.2167523735841286 4.8417679785838335 0.6226239979639471 -1.0141011937426019 0.5594152265159462
Ni 0.9454373523985028 7.544481114652676 7.087300211258018 -0.4304690036608199 -0.2805595482904652 0.25011717264020794
Ni 5.173060380049999 4.87500454457492 7.551104678381932 0.8754012339348214 0.6258491897694641 -0.037253485034819706
Ni 8.333235424680609 8.021491918162456 9.216136436841314 -0.8658608985445538 -1.7235122646951222 0.13292937587259043
Ni 4.771358961325565 0.7712694433557545 10.4901603828872 -0.5362588430041411 -1.2521804613816692 -0.5055300464617165
Ni 8.131881625422437 7.360585894486535 4.5194568648458 0.13129852513738677 0.5572120482170404 0.9436928192223684
Ni 7.452066673404891 6.446240404126277 7.6204911994192335 0.093065192687801 -0.38017694027448723 -1.8763147253425558
Ni 2.456175518876027 5.809183560923422 2.9634804923367715 -0.5650395146812591 -3.30730204185522 -1.250888482043123
Ni 3.747457714523842 4.961599459458696 9.780186324692558 0.4111201668205629 -0.14824800850753178 -0.6665870338084584
Ni 1.0174562573238242 3.5787911614784735 4.120953466216729 0.9272454722996225 0.23287175529619894 -0.48636427216654304
Ni 0.891006651529393 0.3527349086531815 0.22715098006710363 0.516332279283543 0.7102417943839316 0.6934925999500509
Ni 0.98068083916372 3.7216414978810084 8.222060715889281 0.7149497413825622 -0.815564464282847 0.5261850037079067
Ni 5.290366440293999 3.1588878596715926 5.141218868743368 -0.008744064741217198 0.22092641000886468 -0.8812481796339018
Ni 4.186143039113009 7.136661035031504 5.998445073313076 0.5286180386294316 -0.1397494841182174 0.324533382768254
Ni 8.274840738018693 7.784377945218899 0.6748565705204856 0.5926644754873793 -1.9352762914784283 -0.03061772488585695
P 0.25789747769028776 5.720050534852852 8.471030387480015 0.24777489766027652 1.9241143613243379 -0.6806694800434535
P 8.706491868747314 1.9868787604375442 8.38069447800056 0.0466863483129454 -0.6037482441053666 -0.9046344197683259
P 2.002043974778647 3.7922100535567327 10.415068550489295 -0.15058128462639875 -0.4629662049575769 0.32051397719621577
P 4.256983535273033 5.940159162844879 4.108231183892918 0.9015946045007376 1.975826187876333 -0.44198626027180005
P 6.822950492343584 4.167950220713372 10.691063667409717 -0.08501018359380844 2.316553921016262 0.0831870143421406
P 6.496214000457718 8.241373929084233 10.681856669079615 -0.3287039692061759 -0.5118781001669312 -1.1597117646272865
P 2.5639545974867346 8.611430540119013 5.809415616803359 -0.9135417495602847 1.352672799771477 0.02646924993512216
P 6.961186905195837 4.11292759605677 1.6100526442802687 1.7256959026100023 0.196425596654023 -0.4734853593213458
Ni 2.7002149094864114 2.1408152039166897 0.24730902169994565 0.6494244059862428 -1.1737199059809205 0.36461919504554624
Ni 1.5792399744725718 1.2822719009346917 6.866416552885737 -0.34157362607999237 0.4130652063620757 0.5929321273264693
Ni 7.1803346768100065 0.9387294871191147 9.584801619064763 -1.3801360381887522 0.17898091881501435 -0.10398929579947253
Ni 2.87449250119116 2.1620628204232917 9.143777606310618 -0.003074525160265673 -0.6943081538728106 0.47265232189708917
Ni 6.646633347006589 2.2680289624720027 2.730497295349724 -1.5774934026284253 -0.3719093009490563 0.2488200510953392
Ni 4.117523390241431 7.369904388415198 10.92429886257888 1.8393823710925807 -1.286376390537088 -1.5870710190145312
Ni 7.416560310838184 6.56158849288332 11.694585694318034 -0.05443950989580302 -0.6241808009281057 -1.0259712057073103
Ni 7.6707884049269905 4.141490411591029 8.622367986397538 -1.1732792188990762 0.1572504691164582 -1.482260512865344
Ni 3.22751657322598 8.766409422121306 12.430417666696437 -0.5711433135861519 1.555485530898766 1.397907246129244
Ni -0.11081846675689523 4.9315047125295495 10.577497695293115 1.5616479509557364 1.8976561671328092 0.4193456400541488
Ni 8.699231057816515 2.5534395654271536 6.040739976836179 0.3226230531194185 1.6042159062249342 -0.33990472301800173
Ni 3.912362424203068 2.8664521275387047 11.425794280826706 -1.7364976212111964 0.7131080601881332 0.5936762045813453
Ni 1.2707688184488224 3.9094435963382534 12.628322354145409 -1.1337132836809958 0.37465292513246445 -0.025968141928987536
Ni 3.084720624920305 8.813047215178672 7.788253097120166 1.6658269941685118 -0.22855255909555475 1.9054527803590924
Ni 5.729514063706476 7.987871009620225 3.985059367402576 -0.2770690186387035 0.48369289598196696 0.04500536106609669
Ni 3.157618804078195 8.777676822854115 3.780706064602582 1.133863693215931 -0.036000329354008966 -0.7784624172242272
Ni 3.938704392448881 3.0005822390780352 7.121078845281142 -0.4407205061854991 -0.4893030430798928 -0.08385550116407493
Ni 5.131235933564733 4.845091091301974 12.029473148986638 0.7634291770401885 -0.15606313367657637 -1.3479653669934786
Ni 8.266664394124087 0.04568781429888047 2.547438745406944 -0.1074515433164601 1.2812483252819031 1.0391177703915975
Ni 4.425985481582372 0.68984139767367 1.6287730272194474 -0.15339767102927132 -0.6574956130301515 0.38057597548511873
Ni 6.385606740810294 6.120102181305868 0.43505038678236363 -1.052831263322948 -0.38559836840037465 0.8780065327681524
Ni 8.1983982678821 8.916212370239098 12.01299536857465 -1.7871018165213095 2.1057432592851604 -1.2485647190059528
Ni 0.6366652489054618 5.139203789754709 6.119678860618642 -0.6604035307055659 0.1835726519507548 0.28960288943965606
Ni 7.348103826257186 6.061925047031393 2.588871597594818 -0.5476647708482374 1.6799634335698939 1.7240550245724695
P 8.767279631671064 1.907526527118946 3.7315918002015276 -1.2121275592248415 -0.4423863239236962 0.5008673508787245
P 1.7901026259984154 3.628946051466114 1.5047917345541746 -0.21682755734914272 0.20401652162740344 1.5502690196948334
P 4.990524862305354 1.4901975952301005 8.335082807037283 -1.2067596100447089 -1.4125915876142963 0.828584787801915
P 8.603254196224407 2.014489784276755 12.609881163436778 0.23350450378419144 -0.9197411935027773 0.02504845832819557
P 6.471349575509931 8.036629938455128 1.7942932288614708 -0.9502277921274086 0.14653102581642508 0.2823480076494556
P 1.930378592482915 3.3200397906674852 6.2349834388981975 -1.5433766634503743 -0.25566972702732094 1.4196680348451034
P 6.81383142143674 4.316719794990827 6.2450262009833795 1.1549133147973787 -1.6913377368451064 1.57458754183554
P 2.621687562303521 8.824078934158424 10.282251911489132 0.18506029223987483 1.2107661601009405 0.6762600381218482
