# total energy = -381160.55853344116 ev
CRYSTAL
PRIMVEC
9.26902155316336 0.00000000000000 0.00000000000000

0.00000000000000 9.26902155316336 0.00000000000000

0.00000000000000 0.00000000000000 13.56614997011650

PRIMCOORD
 96 1
Ni 5.79775435636807 6.8627093026997175 1.288854646900027 0.799876364123629 -0.0750849540602965 -0.34685595752485426
Ni 0.4517693230083434 4.900828230228077 10.463340384523546 1.1118005427683046 2.0591294160813636 -1.6760772111416102
Ni 6.647028443419066 5.818118396414466 9.290587646050078 -2.932792327168839 -0.5914899955633038 3.0009034210144643
Ni 1.1680542715187499 3.26615288268945 7.0386612823959975 -0.15453666972972094 1.5610619965452794 -0.14069976384662866
Ni 6.3920840094290226 5.929550571852687 3.359887715542063 3.208062344925591 2.311158975252936 0.6162378919319451
Ni 1.982059732089757 -0.1142518117523383 1.7555952932961443 1.2550058466456062 0.5987027112616593 -0.23023200368050672
Ni 1.679880364974346 1.8881830832095114 8.804376493271866 0.5226422806619709 0.29819834441815096 -0.9622075901971042
Ni 0.38193744257796414 2.2804109933612167 0.14204960697270325 -4.452448507073822 -0.6225476362000568 2.199853605408024
Ni 0.33743687076970397 0.5266036942958188 3.322078450292516 0.20123535933784054 0.4176561681668678 -0.18557271309991913
Ni 4.8722240301447 5.310704357151899 6.418064149550117 -0.6643761422000687 -2.310817275642801 -0.5620056129509418
Ni 2.817448825062692 0.8157554518139565 10.43512270263313 0.18754732032778668 -0.9045395460616745 -0.12983890987272478
Ni 8.31410828982078 9.348364237229502 5.129388394763379 -1.417577727974978 -0.3808775658859376 0.763864207695078
Ni 4.38413590053017 0.19149520170529305 5.064949230991622 2.5154981703270805 1.2843966411028978 -1.6086621149217457
Ni 8.412916058093234 6.7137932046635775 4.888141720618837 -1.435231436500999 0.43983630380833283 -0.9477039972642903
Ni 4.828196178428551 7.8846930657564025 11.729523931947252 0.10497917051656758 0.5609841136649629 -1.5291450932320245
Ni 4.269320532275865 1.1004274912827436 12.21889582102761 -0.6186305605338378 0.07452908155682648 0.8759169972289754
Ni 6.077169006890878 3.926162821489486 4.794223361142229 0.621104218885311 1.2522015444275918 0.6699009286730399
Ni 0.867103049740684 5.321308117649431 5.241715957670186 0.08221873689160034 0.9292331921536126 1.2160641752750863
Ni 1.388110108906774 3.298297848952947 12.118831173451428 1.0978975595339673 0.7289314003736349 -2.0680084637385483
Ni 6.943080987379872 4.301780645267435 7.822581353261682 0.3656008422325252 -0.7375762205328266 -2.0438894592031573
Ni 2.8173654038699665 4.161642310510284 5.5876525210764605 1.620053644588139 -1.0711357180590908 -0.9312309393099317
Ni 5.931413645156886 8.912386546004067 6.956925197763712 1.0292753303798792 1.686471667002057 -0.4591640576026672
Ni 8.772396515589538 4.3486170104720046 3.141051681372111 1.3437598135525632 2.056667841914748 -0.45462271808888804
Ni 7.15330239304772 6.767303265286174 12.397873209313396 -0.23707319497205623 1.1533511125165814 0.30905662728889355
P 3.2698326841907788 3.9259774410612076 11.130022164937326 0.648640990852999 1.1292686176460809 1.6846168731815052
Ni 2.313056486781065 4.124343768340644 9.245371505788661 -0.87271494535191 0.27144910134876477 -0.17142110418988543
P 6.485571359409884 1.153817054626959 4.878767032360791 -1.2401998919810253 -0.12494635766711384 -0.4031998835322218
Ni 4.659388760438126 2.2988841530391717 4.12401471808045 0.987714219108641 0.4815491101660868 -0.5250210653067926
P 4.088899030453789 9.745727185244524 0.8018584080080569 -1.7011151279468444 -0.4380401311398585 1.0401120159840667
P 7.1387685674706844 3.1326882433503256 0.6425183684898155 1.6522914215759221 -0.5097553973969736 0.19008191382418232
P 1.2839448462570704 2.8133889936833927 2.2579363971388693 0.04464977749889085 -0.16943749810095335 0.8421468427570658
Ni 8.088741303162577 5.423424926566656 1.3063944161216 -0.4990850621673211 0.799456760087707 -1.4338283855058853
Ni 6.104188204312472 4.09144801134262 2.368730863903813 -0.2555694540040308 -2.1257004191333775 -0.4895061602296343
Ni 9.238952708459518 7.199063551768274 11.088889028608746 -0.5928639930926951 0.9672106998386504 -0.32834812852865386
Ni 4.701015935608069 4.285291056172061 8.817902776221208 0.361939334220538 1.7154631691384006 -1.131624005252135
Ni 0.8959074606866013 8.008425232610904 5.656758637130129 -1.095781541632229 0.6018173456312409 -4.299788485541523
Ni 2.0896545326626135 4.82073461619034 3.165376374268678 -2.5122251560027635 -1.124854033518153 2.107024439990429
Ni 7.393314433539929 4.5398461912627175 11.4780210856082 -1.9415981199313983 0.7776918576067896 0.37918320890265017
Ni 9.295716195598402 5.379916140049686 12.565754652064571 -1.0698069719453382 1.17952905646353 1.5848716973703674
Ni 0.4892449034869888 3.147806017276439 4.81626787477097 1.2709654552986562 -1.6347426140588814 -0.33292957725174915
Ni 6.542019699820695 2.9573276272202538 9.712928752971346 -0.16179309418181811 0.762432617454874 0.4360953487086618
Ni 1.6018722807547423 7.045003146847406 2.505233888462423 -1.229676109631566 -0.0458247716435985 1.178749755095344
Ni 4.509777485795941 7.9626548048689365 2.9534049773578803 -0.36749214571796707 0.9281615563559885 -0.6733397791512596
Ni 5.746088831006844 0.9422423718326774 10.401139689423252 -2.268504888027835 0.7739892119442219 0.9749666896349856
Ni 5.343720611428304 3.140288840909745 11.97417604455927 -0.12822065754301143 0.6123552690480873 -0.707129216896879
Ni 8.553981294991779 8.846984330907402 13.633302143685693 -0.5995609454968964 0.5984000924195759 -0.7879356468219849
Ni 7.936201017753591 0.8387704319847354 10.123495421990505 1.9992952175325502 1.1540849053588123 -0.352276100099161
Ni 5.752419572632556 8.970957492318666 -0.07362198328653377 2.527359440541041 -0.527525319785885 0.9882286968512142
Ni 7.942921058278688 1.3123636659121682 1.75862070188565 0.054098067395984245 0.6233408215253136 -1.2522005159863272
Ni 1.0475291860734663 7.498944201573032 0.2698907310199989 0.6832094728564879 -1.2983307346854864 -0.7156351974853611
Ni 8.669797717558787 2.7393017055218793 8.521766811067677 0.5438042594515666 -0.36384400744241857 0.3047513150453203
Ni 6.1122337148997605 4.853343033524533 -0.01836193142098799 -0.7239763703612049 0.441548144293117 -0.44620158390472825
Ni 1.07874725019557 4.551506620201438 0.7451625847254938 1.4302031300484725 0.017901305760453044 1.4156026065264782
Ni 1.092956660023119 7.3273375391156 7.529511580391878 1.0194791702250636 1.4748917312050986 3.5484447789109597
Ni 7.4345615788319 1.5960142592211408 12.545907823413073 0.07144170088075438 1.2033477561496826 0.20231110890052253
Ni 3.534657895008067 5.910067088840615 2.061973527112064 1.5207663822500261 0.2101167209878704 -3.8277105480906664
P 1.2163829491709615 0.8373726635555154 12.434678639543813 0.3837152924450488 -0.8911273864208265 -0.4365751165585578
Ni 2.7333788008383806 5.588126168070713 7.532320093880298 0.01701067562538361 -0.4640203572537041 0.792282610936771
P 7.836596113639539 4.763146186145616 5.956055338585809 0.9127171967764602 0.3306672635801337 -0.8931490448365457
Ni 0.839564787119909 9.340485569027667 9.75954266166198 -0.7340376112519487 -2.246270759219983 0.09369691273452894
P 2.995284269910282 2.1396145580836765 6.934215168397452 0.37836148433230327 -0.6555521161505355 -0.2781486248561274
P 8.191979663670887 6.807493742136957 8.723210453456538 2.9756873267601525 2.871434235776332 -0.5415056932253771
P 8.57681089473428 6.994727974698269 2.723322839506412 -0.01878088015192895 0.34665952524333205 -0.15185140958807397
Ni 9.618463521231316 5.387516737609105 7.987924937949724 -0.8906774433676016 -2.5695887815238976 0.302909119630259
Ni 3.8326476644443837 7.24135809648002 13.57754527227236 -1.0842473157403842 0.1595248669729317 1.2001490467067266
Ni 8.190339046880622 9.009646387700394 7.999728109818218 1.0877180478978041 -1.181060662616708 -0.5361878805568895
Ni 4.4519109851088 0.8160687447377472 8.48034911578169 -0.5455880908248668 -1.4012329680683673 -1.9481220370928451
Ni 5.8318828932141455 8.070295950548863 9.65207113907393 1.7627562977974094 0.32102716938720843 -1.42551986564019
Ni 2.4295680859541187 8.434475801902027 11.73942695442589 -0.9657266590939562 -1.9532770989312231 1.7098625351221715
Ni 4.645058853332195 5.576206206532404 11.658369362161103 1.1716781929605433 -1.1630554842885388 1.4442570370383772
Ni 4.373875093824954 5.885096345151497 3.9887055434799534 -1.1629937778126678 -1.3354998875366162 3.071005577148189
Ni 2.4989837873230125 1.8977579823300974 0.48743744431127317 1.7593583278594538 0.2715591445640678 -0.08496930305354398
Ni 3.031081230610866 6.927861254218205 5.71630097688891 0.16560938260411479 -2.0388475259038756 -1.8363672384153407
Ni 5.100659062890914 2.540824149985476 0.7968077182396084 -0.15088107525500466 -0.8571183764652336 -1.2798522162653247
Ni 7.85557906949526 2.461499864725095 6.197885034177288 -0.3717720040402436 -0.14444997491768025 0.6376788354145404
Ni 0.7266514220597416 1.062507924678371 6.298098912998235 0.7944942738761092 0.17665561311594738 0.5038667998266806
Ni 6.608209781737543 6.644340427209028 6.50681410268632 1.8682653726755178 -0.09963950347120905 1.0773876125060735
Ni 5.224984447115908 2.756403050030573 6.938542874495615 -0.43179106490635316 -0.6528665988985725 -0.22897267735210888
Ni 4.559922891645282 7.213708605602277 7.453364715672191 -0.7713998539504908 1.406540753434526 1.4677957435902658
Ni 3.5893914664573017 3.4848090978439714 2.2502579397995732 0.21187149889544798 -1.0064197659379441 1.1914191230328965
Ni 7.088465588257305 8.794280675147817 3.0323872357280877 3.0549379821623646 -1.6151142983049924 -1.0140726544975116
Ni 6.074582949916391 7.979598576013594 4.719202682524333 -0.369873244355634 -1.2253368588262639 1.4956809000363078
Ni 3.966538678768549 2.4661529134748856 9.81977647041824 1.2590352795199735 1.6676897584088635 0.7914004654421338
Ni 2.5126834009727954 1.6327381220631167 3.9879593872561325 -1.4509249359768561 -0.22619768571013302 -0.12639645985007908
Ni 2.0720341229547397 6.59411160016696 10.156013002914841 -0.6491613821328432 0.6225376088977279 -1.3500271346185135
Ni 3.6080407375421215 4.12464037702589 13.66260522798368 -0.45993358877884016 1.2624468763046839 -1.6795731401100105
Ni 7.820987081578487 2.5691873555120903 3.791616487351356 -1.8207555000200124 -2.531362391052847 -0.06960953276802205
Ni 2.794433844891913 8.993916858360961 6.254795898756654 -1.5441212549258825 2.532860058644296 4.305087529156934
P 3.0772780333378744 8.304598273850091 8.818187335178617 -0.7855416926685117 -0.5031070388425205 0.3046672399719462
Ni 2.373564658571176 5.741037214336255 12.332593345299395 -0.6437936900630268 0.07605914504810772 0.07834742686165216
P 8.70347207235558 3.245937146985677 10.63940173867251 -0.6470983289562274 -4.180095662963865 -0.0020167733197126556
Ni 5.630309484525491 0.8755675200958815 2.2637017284583316 -1.3249203122485569 0.7469075252360814 0.6238262458021643
P 6.974938613979536 8.990709776951743 11.591583282167342 0.4354001224138502 -3.184348803358735 1.3205262969459193
P 6.867445772642233 1.4437242373903318 8.13103492097218 -1.0309601742814696 0.2669414432863983 -0.49390480351796223
P 2.688535275237805 8.513679589884028 4.053185490945932 -1.5469422693144455 0.1514973686827649 -0.8549365383225664
Ni 4.262424380343904 6.508706836859044 9.730008778730788 -0.5462591487499625 -0.16486427690797414 -1.5550618130977865
