# total energy = -381177.8327561175 ev
CRYSTAL
PRIMVEC
9.11980774020898 0.00000000000000 0.00000000000000

0.00000000000000 9.11980774020898 0.00000000000000

0.00000000000000 0.00000000000000 13.34776047209647

PRIMCOORD
 96 1
Ni 0.45760732835810486 5.4013338047819355 11.071647218721676 0.1460096060953163 -0.8864050412444928 0.6156761058912043
Ni 1.5114348547274776 2.129310948171923 13.326938278880613 -0.2548588010902514 0.6754162020643142 -0.3303695298340569
Ni 5.553324520392703 8.641254938186025 8.540951644859884 1.7281739318368494 -0.3835420000919782 -1.3640658720997667
Ni 7.133577444242877 6.552052904406048 11.106471204534692 0.005419371243358409 0.8651433036522391 2.5438926623093736
Ni 3.194322094759314 3.6449135550315335 4.013377498781419 -1.2371454214254178 -0.5317766388630712 1.3503487796239906
Ni 5.909708366824815 7.833312931862424 4.122495998258368 0.3001212724724767 0.1922418975899786 0.9803775762379114
Ni 3.5099130412198094 4.807652561242408 10.991907267862784 -0.25725686900878275 -1.1176680572926752 0.02701509513626315
Ni 4.984859545223737 5.76965547953125 12.786741059748316 0.23946920600805854 0.6025573091210591 0.6518065330651742
Ni 0.9382002201162684 5.390754827816346 2.4799602595040677 -0.8815716244115914 -0.23050942571160948 -0.8024888620458115
Ni 6.622904690652301 6.460946025193784 8.996043730246342 0.5149767936969132 -0.07965997502548862 -1.4687812474319866
Ni 0.5883735154412751 7.5422998672314625 10.7848438573384 -0.4452448764184138 1.8760591576883239 1.0265175651290837
Ni 8.044400001556822 4.879206572683791 7.381898864933053 -0.7981182437819416 -1.2318139819101752 0.24862336170350083
Ni 7.503020855342853 4.9031278283568405 5.090595508014017 -0.9356401241212208 -1.1587121197181787 0.2847350198243935
Ni 5.735939550357302 5.656661061769494 3.185963790975726 0.7422846817520894 -2.4614080733508965 0.6083680022655651
Ni 7.2128832922538715 1.9609957767263253 2.077966430657905 0.01785579723449828 -0.014319244836149532 0.6602729186649725
Ni 0.9199970838892737 4.131437057755837 9.205629679588554 0.17703999303855963 -0.2501086879997757 -0.3049333491491394
Ni 3.4713271347185994 8.891411264191268 9.03699440289167 -1.6211967570536467 -0.29934299954555543 0.3970734589195097
Ni -0.27016792010488816 3.1396397276164985 11.756334111607673 3.3928223323162277 -2.9863170385598568 -1.520862027287626
Ni 6.2716188167406735 4.143694079343552 0.7532450474884191 -0.860736175723479 -0.8991422863055031 1.7348983950448766
Ni 4.889986185419415 2.869967013071292 2.3336156168582964 -0.11504143984857607 0.043257268026738405 -0.13491992394005795
Ni 7.611254733470093 4.608238845441073 12.353726204912112 -1.2496787780057381 4.346900608537978 0.8038191508214608
Ni 2.8493836070270406 1.298140791562673 3.251781443355596 -0.775047220895091 0.4673170257271048 0.5994547589363354
Ni 3.52011810606851 1.2821902478447305 1.0391592276181214 -0.7131589680307266 -0.5022341493192641 -0.29242364671790283
Ni 2.519702557625309 6.480772487196533 12.040213662633047 -0.8029300633482882 1.547453147512593 0.6229302163504562
P 7.729201206828671 1.043360723038851 11.11095632597579 -0.9702011499255421 1.9117393846987525 0.9677200353749011
Ni 6.569499096591538 2.6972196150694225 12.12018069670439 -1.1904814417099756 -1.935499206122512 0.11591381515120036
P 4.624672738968651 7.949909673677117 6.159190739038888 1.7108560093836922 -0.42885537931679696 1.4101636948990939
Ni 4.876352072864628 2.783292360415302 10.446691418537242 0.3110086088089418 1.556612445414358 -0.7175010470495062
P 3.2775859393246747 8.463637562856894 2.2480298692451433 -1.486779740891936 -0.21957812351108633 -0.10980461692966897
P 2.008145182685024 2.6109188745303196 5.686212886734401 0.35178219118187803 0.3121656052315204 -1.4701030515672036
P 2.690562155427285 8.56002481074422 11.133927297683483 -0.17776427279909388 0.18535879731690014 -0.347125409136157
Ni 8.077997373230293 6.4623778350072305 3.6370376890768075 0.29285044984267633 1.766736879711712 -0.7571376876045218
Ni 3.935023758697328 3.7988285500731105 6.6313943196671845 -0.44936764033753573 -0.2343552818202609 -1.443720962029249
Ni 7.791060862654175 4.576264799543356 9.784709198973252 -0.7182502665107049 -1.106368573119456 0.23010036319864885
Ni 7.640720832242348 8.529810887738192 9.872044125708818 0.3091378741487901 -0.5377266857989191 -0.8057101971965865
Ni 5.084940315241292 0.3692245357144811 2.6732089852806293 0.5443004823616948 0.9995050410959819 0.3693127438664736
Ni 0.18332181506359338 6.390231036063466 8.47937835099707 0.17187490389785237 0.02803993685635171 2.5555233045697667
Ni 3.291776360150929 8.50504148994635 4.649545190587831 -0.6984540577203842 -1.0073926713741748 -1.31451325798262
Ni 1.5357117829019564 9.02885588647435 13.460949293553744 0.11598143516434219 -1.8753459336713831 -1.0050791927496496
Ni 5.681074787059908 0.8466036072289609 0.27019619150884794 0.668663456721513 0.5381306061055571 -0.3959385739841181
Ni 0.8699503150150862 1.0552620721251376 1.9558604129941508 -1.0115192919480387 0.1611480043986515 0.38957432232898714
Ni 2.2709780414335135 6.575554648923564 9.580208454420704 1.1338189560209246 -0.700530994854071 0.0056674826984224975
Ni 0.9402156976243674 -0.15689626018817274 8.692835658720224 0.8159552719633625 -0.08686266342151493 1.7614236950289148
Ni 0.49210482505442377 3.0729830529255646 3.254798275752335 -0.6793376486059075 0.9964156035373808 -0.05171516898610448
Ni 3.163971374637351 5.961299119147515 3.527546189463744 -0.08367475261183653 0.9646197991830225 -0.830496403002331
Ni 9.188571079231545 6.686889261678649 6.2262760446930825 -0.9363029545162004 1.025794313809814 -1.3178466932312272
Ni 1.17535170030002 9.237088456349586 6.3856884598336725 0.563123528605469 0.1764643230407477 -0.9021880151103624
Ni 1.624246876334654 4.8935155510105215 6.9063984738107385 0.3815753632839106 -1.2488213151014493 1.8167350660067096
Ni 5.835619048834783 0.9307493372017119 6.734398900042643 2.5284125643959037 0.9352251480709893 -0.38039676959477714
Ni 3.968803526525378 1.4488364944759293 11.967495051744676 -1.530709866615983 -1.451592908578158 0.7930038053735117
Ni 0.6470758938310139 1.060287086183792 4.306628564229066 0.7597864380812785 0.04632690809099763 1.057835915626391
Ni 2.5633590772238177 1.843368496638261 9.792744661563233 -1.0375779367083036 -0.1865708153471303 1.1270132459530011
Ni 7.421845446747422 1.9460392920508387 4.683809220206288 -0.8364132827073982 0.10998330859937831 -0.28516773648643795
Ni 8.000934997920622 8.853500223462 5.433979980509276 -0.42875356363161 -1.0936698946058647 0.8615154770916646
Ni 4.508723503502714 6.583762475879624 8.225196541860267 -1.844250497818159 -0.6525266990606504 -1.1046161092047233
Ni 5.41927246658479 3.5536242796646915 4.606205128317517 2.5901995157957134 3.200418198116772 0.5303383637546479
P 6.597870818436318 3.2892775328331956 6.509301981715023 -0.07364745028282155 -0.39476743649415236 -0.049846748318798026
Ni 4.185362480857148 2.2532856144393403 8.270913226024748 1.274188076001012 -2.34900587089738 -0.5175486681891474
P 0.4653837884085849 6.38809700105489 13.098371273712127 0.13915890172207002 0.09639811371577592 0.7213129645964287
Ni 8.36239857725776 1.2767183632073573 0.08859437218293549 -0.40295382895968673 -0.3167030880905578 -0.8347677766841752
P 2.3713688849138523 2.95736213053787 11.578541635970145 -0.30993260213594365 0.5563047059114226 -0.7497172267707346
P 4.064825982103548 4.935977375796536 1.661369053695366 0.9453866619850234 -0.17169955466225267 -0.4548368909822231
P 6.067116248226582 7.8506952853938134 13.07526624083082 -1.4643198692265234 -1.043247476289255 -0.5209396961485674
Ni 3.6725921714889123 0.7881666152441344 6.487371580069206 -2.786918475320439 -0.234425472936564 1.3635773624991225
Ni 6.644427436892634 1.7229596751928653 9.145431652731267 -0.648652817927541 0.58402016954882 -0.681284230809317
Ni 8.429410924450124 1.0238625741143448 7.587761196779533 -1.60629952822684 0.6815115163287747 -1.9718499768374038
Ni 4.615853884894751 5.730960135337292 5.442322780619724 -0.43214587714261066 0.7428348978286045 0.1843216143016374
Ni 6.4356659181691205 6.707153474452388 6.662508367696061 0.9502051664195893 0.8993387185870254 -0.6304046703506304
Ni 2.1585034527123086 7.3111856997642795 7.378028418532884 1.1377830828749953 0.21274567397028524 -0.6936201266668506
Ni 8.895989407671202 2.122544050837038 9.407848648247315 0.8080774118771824 0.6711782527235667 1.4443434261045964
Ni 2.5815074946044385 6.564319045801492 1.1990212492797503 -0.3732791847133894 0.3809593269664665 -0.4745076299382731
Ni 0.6884241900933241 0.817028070763959 11.301988938474215 1.4596769711378732 -0.2164066677616402 0.030313049161244568
Ni 8.760341387510723 3.470150679521564 0.9062097585646393 0.024820144367473384 1.1100429366472495 0.7041629351797034
Ni 8.155771093542823 8.108767604507788 12.946847492257081 1.3784907892758453 -0.5580527989507809 -1.1759657645923038
Ni 1.6436447073741416 2.221740199504884 7.6906992025585685 -0.01740379729874422 -0.16163497133739904 0.3191325234676568
Ni 3.8072005335682912 3.4225726425996053 13.237921659599827 2.425421113733326 0.2954164107976396 -0.17554669632248476
Ni 6.976279000533856 8.45999875957304 1.6657474733860376 1.175881946629246 0.8972718087556676 1.2745994525068176
Ni 0.9913139803297036 7.715713011197546 4.075378511626722 0.3248570846562599 -0.2714750694906937 0.6648289134667711
Ni 4.649268860413643 1.69367597257519 4.685985206330416 -0.4141388990422287 -2.736969654206138 -0.4210554236564039
Ni 4.517150205844269 7.049383379289162 10.669358820085868 0.628594356614769 0.5500314713082011 -0.4620385509369849
Ni 3.1302919246943195 4.165599857508503 8.751112142089019 0.1295306346036866 1.1347047010599876 0.32141257775108517
Ni 7.413218108635831 6.20871950283407 1.190286297436957 0.6186423876083798 -0.7495048536496124 -0.45799060611985637
Ni 0.41135348751838974 7.750824270954024 1.8208617231439725 -0.6721426735193651 -0.23197958249923273 -0.5246513406721997
Ni 4.962862568981498 7.175692716335192 1.8172037682638884 -0.3215293058346075 0.15484751610192043 -1.5900416716070809
Ni 5.6316636687844275 4.092148926059497 8.382287053953068 0.8305822778479179 0.6164554072593899 0.03734141676293569
Ni 8.928866314534085 2.969610032317857 6.155920375987284 0.7151088926682458 0.27826458160870143 -0.15405330233539918
Ni 5.463129621953336 0.3219483644283501 10.634641536023281 0.17139539315827254 -0.16215459128629492 1.637081546604703
Ni 0.7750185884412997 4.929383754808503 4.78841523881895 -0.24117796116904916 -0.7972026739462076 -1.2200583840361439
P 5.650970301746626 4.909602891844398 10.712258395642872 0.9010680425733063 -0.06397187486627047 -0.23444501332058978
Ni 1.799575179923818 4.475217329906532 -0.24921880977070512 -2.065951066988887 1.264384716757345 0.013515260877615433
P 2.257152412916417 6.30020029416322 5.429027924912454 0.5449301455258938 1.0880882867530293 -0.10454156875851672
Ni 2.4703096789652874 3.4039955942557234 1.7931913145135494 -0.8280245444230708 0.0475911195154019 0.8535154896053236
P 7.691326645330321 4.411314837149743 2.85959779168347 0.4078206701336847 -0.505257252416304 -0.8492096631411181
P 8.211447519728095 8.085685371145802 7.77963556753134 -0.9742102710849351 -1.0783738876787428 -1.1953853067694962
P 8.102146624096566 9.249126602551806 3.332895749239243 -0.24790808080403115 -0.16305370606179662 -0.5841605517814262
Ni 3.768550788412979 8.262965313588962 13.129177984220538 1.402979775556145 0.2111222794342493 -0.5307355991930666
