# total energy = -340891.2245849413 ev
CRYSTAL
PRIMVEC
9.10145304136467 0.00000000000000 0.00000000000000

0.00000000000000 9.10145304136467 0.00000000000000

0.00000000000000 0.00000000000000 13.32089651500970

PRIMCOORD
 96 1
Ni 6.407095412792541 1.8539023102288625 11.397172832120573 0.1811067069087655 0.9442479203948899 0.9487740904000176
Ni 4.633431514129012 0.2695950559003999 6.173089769408466 -0.3262871322345671 0.21076258210198545 -1.227752410246292
Ni 2.7564024112745242 1.6714363761247537 4.811614304348973 0.44093442196851806 -0.6952962288176928 0.748382310009395
Ni 3.6567090620947726 4.6173947535598066 5.134499278983061 0.3102020537472464 -1.1708544115076676 -1.128795534664404
Ni 5.051352042969418 4.91597702781257 2.674077036486421 0.40946926148070123 -0.21669823086013001 0.5426644894201686
Ni 7.313272500938066 6.25815923234164 2.723896571108282 0.028867574963969637 0.02946021424264604 -0.46464487821158046
Ni 5.014654983596525 4.618386811960512 11.330115145104799 0.5315742930442782 2.1934273901667067 0.23026208558749375
Ni 5.424074755131802 8.060401694108066 12.449523809665491 0.9559045307972118 -0.46307701950382824 0.3966535977732717
Ni 1.7465870753415145 6.321004766808365 0.40061502569268337 -0.10515349131090278 0.9738973678302066 -0.19653769675185506
Ni 2.616649597120065 1.8119082050833937 0.2937630547741055 0.31509640572507025 -0.24811711149104365 0.03683105278542044
Ni 0.8291660518911105 0.052333356000530004 4.64447703775375 -0.8560428840128677 -0.8324684391270374 0.05950766844732977
Ni 8.373974061810026 2.195552661106757 1.4009985256564146 1.0855372381964012 1.28818001940473 0.8347484934104655
Ni 6.937646425199304 0.778617490866529 4.8419594595213855 -0.27452954004630137 -0.14472508295593786 -1.3302625503970769
Ni 1.0944133435895185 7.272607207962349 2.5452241227052204 -0.4021364752647139 1.3393115479732225 -0.10775904725454989
Ni 7.75572144619959 3.96359186168188 3.7869708808340397 0.4528319447370524 -0.4812202660717583 -0.6787635212699923
Ni 7.390234389345106 3.8274705273611977 12.584077873742125 0.6654048405748992 0.2125569549982468 0.38124060565231116
Ni 8.259732621024172 8.897080085484887 6.547953143367601 -0.02194025171651705 0.709284572676985 1.133795816092473
Ni 6.708271601212286 0.7650208299049304 0.47643104113964246 -0.25256486284975216 -0.1804186797028054 -0.9457412171109648
Ni 2.1346730405350103 6.112900038990604 9.426213091480369 0.02072103459743528 1.3283905301853445 -0.0076228066525804205
Ni 8.953618312871896 4.90685737168865 1.4674564269051573 0.03215653012788655 -0.07660061937387452 0.2206549015150329
Ni 6.634322293820232 1.6882012529513584 7.049831847703327 0.19725683430606672 1.12149308746572 -0.22304962699945458
Ni 3.5102120711061584 4.658496916289962 0.5987927984861339 -0.3246539675065183 -0.9850986358626648 -0.10146447249508976
Ni 6.165178786271829 5.484845158264939 4.909549581550383 -0.8164988031716583 1.8990707880921485 -1.050269673243359
Ni 5.399610048883207 2.936137909413388 9.279989144088278 -0.04769499208311786 -0.25426101960525244 -0.48898062674346754
P 0.1342573567017423 5.609553270250898 12.426678251944287 -0.7760810614762441 -0.10369464737718916 0.3069277538713488
P 3.880522898165909 6.30145484529721 12.57908299621637 -0.25323360678200263 0.07900820037410264 -0.5106051469917787
P 2.48581620711874 8.884146920462843 1.278182605794371 -0.30180123127806086 -0.33021706341659257 0.3583865838722731
P 6.432597684707929 7.947834920714231 5.777379516854685 0.3365386347592462 -1.3973686000169547 0.07555906548323763
P 4.658214771240219 1.0076127842543785 12.60604423108252 0.12898016141685528 0.9087715818651512 0.9850202172162457
P 4.105201372292706 6.0562798985246395 8.366055797510814 0.2818733820058823 -0.2374354634074814 0.13194695735466308
P 4.669391355791289 0.8629288027466872 3.9466222021578825 1.5356098750207618 2.2771299106926848 -0.5492853371707959
P 0.3852426712083537 5.5637911634733905 3.6471680086868847 -0.9109241094317795 -0.5150420997172097 0.14435612965229333
Ni 1.418907455152457 1.2877828186481726 2.7510452959107132 1.2036172077609852 -0.018946716305831886 -2.0760274773882825
Ni 1.9006473739538574 6.46322407478476 5.0181280981443175 0.22386800913569188 0.966114124340362 -0.43575904841516566
Ni 6.249822301194425 5.620274782141093 9.042917221115234 -1.7023438581476231 0.3245567798070217 1.1805762667811217
Ni 8.687191472836501 2.1106907113069413 10.189660280123997 1.028279285015197 2.1363226747339144 0.7760252685376442
Ni 2.4481907995176635 5.189857958033082 7.075540722606753 0.02122445659641506 0.5137552625849863 1.2023049167074649
Ni 0.18593267763464824 8.925321894818738 9.2757005393322 1.9141618780973164 1.2287242872412583 -0.011340364713483694
Ni 1.239244768639333 0.8429119766854757 11.365695456167906 -0.4255052318976414 1.6959459250410793 1.3127793060106487
Ni 4.005613271187002 7.189019461612981 1.3292881757558623 -0.20139682461636926 0.5110743733187133 0.669505235896518
Ni 5.8722667173735585 8.155156923555287 7.916409423044904 1.0609099265660245 -1.3776672649332855 0.5674355257172614
Ni 5.276694923181092 2.593841355357052 5.134526583342713 -0.16872787362843844 0.9851749976265548 -0.2789199558045132
Ni 0.7720790068750888 7.45980589773955 7.220911863832365 1.3850193344229824 -0.35736277059344906 -0.2929273258271987
Ni 5.292404031434468 4.510461779707593 6.984292283084229 -0.32040393398091277 0.5361994505211152 1.049260001031922
Ni 8.042280700752057 7.176368441640679 8.900769814619256 0.07651243053544242 -0.6552476975362392 0.8054039788100775
Ni 4.58743276956785 0.49062475743230793 10.451242416611723 -0.02769875146684907 -1.147094332973592 -0.4684084590190707
Ni 8.40820462736098 7.018658460288125 4.916849857176126 -0.1822729593027248 0.49596117182635874 -0.35797957824184157
Ni 7.335052278487503 6.159781624513862 7.002355937284968 -0.04657039156037141 -0.15641897435409835 -1.3023920492390537
Ni 2.52592631144819 5.360155249185415 2.780803407350597 -0.27662627467433004 -0.06944241106253847 -0.06157689227153266
Ni 2.1030181862446025 5.071284225515707 11.634511427672889 1.4387425349780514 -0.1322997127083915 -0.4626417317386226
Ni 1.2956282713216434 3.4113338833514177 3.902623046868602 -0.3855348621522909 1.0476175803324923 -0.0672294625716197
Ni 3.7337255592211176 2.8877181782963754 2.883720820043257 -0.16902817847767665 -0.29300214492919213 -0.09656806363473691
Ni 0.8533149377130593 3.4492778418151064 7.869346718602619 0.5909750036000984 -1.005213918555301 1.7121029944169157
Ni 3.879321506341201 2.677565623504682 7.1989327644574646 -0.8907314365339885 -0.7840501957246497 -0.013148878677132193
Ni 4.151509566263262 6.795399812863255 6.1427446142360544 0.6801362332478028 0.7555140359581698 0.13505130731159967
Ni 0.6964404697658706 7.535939553903798 11.38565039234724 0.22823837028924565 -1.1036424324375447 -0.11231478494603238
P 0.4434127891572559 5.575541139577162 8.173115911044025 -0.9622178746097492 -0.24241183357615026 0.005817892233357722
P 8.65457186450504 1.574387580466727 8.008963010958814 0.5175468684169344 0.022914699814644408 -0.6346377345953715
P 1.8327141271385607 2.9742820998478616 10.91005395446764 -0.2306302675601899 0.326568925141044 -0.5172871869976446
P 3.992498077100608 6.480889995479896 3.93029055450443 0.23516260821290466 -0.8723778737274653 -0.2510697663614644
P 6.907147455467517 3.9957837017121194 10.407790258660814 0.8924823577868243 -0.23435296782741574 0.16386746021234358
P 6.440679775165054 7.810302861144837 10.25976786411295 -0.6872882709115519 0.5968294054983464 -0.3200090125353392
P 2.3705372006660945 8.500802812395657 5.927439726777943 0.9157256445854809 -0.16586263626550143 0.7705459905906279
P 6.829539363882036 3.908300533385668 1.4768345643004523 -0.34500347769714773 0.6822951885723347 0.8565421922467894
Ni 5.004998341732775 2.853005235724894 0.6823987477419371 0.6946850775962552 0.013307258631867403 -0.695370533699054
Ni 1.6292511404617176 1.1893323991946538 7.060128321728267 -0.40745377371256924 -0.3937719053501025 0.07369527280162147
Ni 7.036160554825346 0.8763352433360403 9.32691896731359 -1.638252426984353 -1.59252355748867 -0.7606487860815739
Ni 2.756648150511396 1.6343297513570736 9.259381633713254 -0.4088971910273151 -1.2803116724002468 0.03039095358703153
Ni 6.325610102136411 2.024827601653202 2.6912869743753602 0.04740420031557643 0.06806095733397956 0.5873376639578272
Ni 4.2498416668249535 7.0565205056728555 10.505991298296173 -0.061412855889842626 -0.3409532188871741 -0.8698103701106051
Ni 7.847819051307305 7.053380504312825 0.19139445971046007 0.9146609507663924 0.6693815658344602 0.5873188949047499
Ni 7.651091140011399 3.79017277207595 8.223203028390481 -0.20605900597872898 -0.08115507151377636 -0.14986883194040643
Ni 2.971287721739309 8.408614192755767 12.375032965806998 -0.028744162012227917 -0.005961874010389732 0.21200288226698974
Ni 0.06417525678179777 4.705332994547131 10.248871604320978 -0.41268288332199243 -0.050108486620616934 0.14897254537838214
Ni 8.878767961611311 2.405068114173227 5.6197933152658885 -0.5234231246920534 -0.48164218410052534 0.5367373253024563
Ni 3.9856355813746256 2.7482020019255717 11.475619167547386 -1.6228245224650568 -1.482144813223086 0.17527415938738844
Ni 0.8355124952196618 3.4761999404324224 13.049296834663147 0.08231772436330984 -0.3991527100460416 -0.6537160913830612
Ni 3.5085556066205763 8.318637226247725 8.005952250234472 -2.0259133343407107 0.00845224453241125 1.6430701600879705
Ni 5.595928394784325 7.929895956422571 3.6418263657935435 0.6653976414860475 -0.07517391422967698 0.16497303457169651
Ni 3.2432573467841506 8.584345051478937 3.350312280109478 -2.058916271629293 -1.0838197412846624 0.7123333868056376
Ni 3.20087187915033 3.8602630633037904 9.314344399548315 -0.3130312956659254 1.902330946900659 0.15128422423069432
Ni 7.185488097764597 6.182507953197918 11.469438370667392 0.1545423261566758 -0.7976986397460198 -0.636154171239898
Ni 0.6217311910301575 8.969600464721797 0.3115800595926512 -0.5611293809935756 0.07307486560880318 -0.2606700084553898
Ni 4.5879788567609 0.5920531723785872 1.596562361085804 -0.33694666883094226 -0.5438171149673731 -0.07090408320972949
Ni 5.665035729064677 5.718570476889916 0.511525334600937 1.7037340536269303 -0.16821828098187158 -0.9050838486009188
Ni 7.884415994694805 8.987603139185978 11.454439175764978 0.1362998350067201 -0.48210626822113745 0.583108456367828
Ni 0.14887520071434254 4.867821238838864 5.977259261399804 -0.50139828368153 0.03882442906636539 -0.5392120120951939
Ni 8.258713258263814 8.790747807545028 2.3496329829161784 -0.08538967842041423 0.2636301195249782 0.5692697507125228
P 8.593410098883552 1.591252573278724 3.551976819630547 -1.0958093095463708 0.33933728055030593 0.590064575970687
P 1.9361157371423907 3.566431747630554 1.7083382181950402 -0.36043806708466314 -1.538983162368369 -0.5938759792969772
P 4.986440478622327 0.968785984828594 8.302701491809234 -1.1094865499231472 1.1873218130350713 0.08909489518614334
P 8.441534149043404 1.6463618725105866 12.685955900477346 0.057849564018616496 -0.27759223813202516 -1.4513833636705133
P 6.426727247382652 7.993050940298689 1.5009716182332185 -1.1732941312974117 -0.921756167050277 0.14310014575800517
P 1.971647810503446 3.321748279331728 6.0964946695660895 0.6360433566936465 -0.882090730139855 -1.1911617556064518
P 7.012278341582669 3.891371830401149 5.9196598045676385 1.4165328316502315 -1.217556957770529 0.47846610036538884
P 2.312078566650198 8.691733097992026 10.112918646884818 0.7908901014646185 -1.8597568209838746 -0.6697921710093175
