# total energy = -340862.9360558607 ev
CRYSTAL
PRIMVEC
9.38415831966866 0.00000000000000 0.00000000000000

0.00000000000000 9.38415831966866 0.00000000000000

0.00000000000000 0.00000000000000 13.73466426609482

PRIMCOORD
 96 1
Ni 4.75775882495963 1.45979026596087 4.614435515135102 -0.16128144465272223 0.8021942136235282 -0.6877477270464736
Ni 6.3867360791693875 5.975109363735966 12.281207371463635 0.47122818785605297 -0.18171040193103544 2.4191409371515693
Ni 7.605832071371552 7.967000168145354 3.1775698092492894 -0.9677506315025204 0.8470311674325605 2.7326561144324484
Ni 3.2163920717367067 0.9177950711026979 8.49332381880387 -0.30226814361215043 -1.0423596743676629 -0.8403486132060625
Ni 8.82124947355799 5.291783115839844 2.254023187583735 -2.091906096291752 -0.9674564973008692 1.751519034320693
Ni 2.8899078236826266 2.7103607247771992 0.6380711449602812 -0.2524113679910233 0.1783538267539767 -1.0704608034792533
Ni 9.189755982046842 4.4909953597119125 6.940042938325923 -0.6871944256461648 1.2413926267375457 -0.9777558223443483
Ni 0.9360857338569218 6.525856224534618 1.1485815506302652 1.253568085757815 1.594094758630532 -1.2536822427381764
Ni 6.308847566081264 1.4910864335691698 12.045479194226164 -0.6156120854224881 -0.5163466774612463 0.6815644810538971
Ni 9.119722009374955 6.142288142129326 11.771349164788788 0.1761262229750386 -0.1885618776352301 0.1895476385872671
Ni 7.164166665529085 0.8812850651965956 0.6004782071975079 0.656400837304076 0.5751120684259128 -0.04215092233643708
Ni 6.797518220364504 2.7307431163949585 3.0927163739426122 0.41596772472085136 -0.8445963327388228 -0.6907602886205523
Ni 5.878780979778185 5.851088328919986 9.128346050763868 -0.3279709476948932 -0.11522218840081445 -0.8580336891906513
Ni 1.990333034147627 5.542199377497259 9.20193661939484 -0.05473724364187993 2.2869898342058996 -0.0229964608951733
Ni 4.067197391088697 8.788686444592232 3.3831907917228303 -1.0778534963988986 0.4297370105908018 -0.19558484592028252
Ni 7.1209620011606845 8.292151865734553 12.871042066426861 0.7492616272905548 -0.3125574413533004 -0.2998510495302255
Ni 7.491045048227707 4.656043934193105 10.862896961593382 1.1477751610907008 -1.2263912682327074 -2.1664693735206235
Ni 5.890576866639845 0.701173978383145 2.581526555218703 0.29686728431155324 -1.8567231763638732 0.5775191352055087
Ni 5.157298744627088 2.425711053993824 1.2661997743040725 0.9102502232932066 0.40068842996427767 -0.9639250871088432
Ni 5.475534317620389 7.006043599801993 3.962876519589091 1.819596189604589 0.21389264309053485 0.4799192878721477
Ni 7.300818777286824 3.8625195165145962 0.5002263066948911 -1.39499598601972 0.9489491825253011 0.11320001576446312
Ni 8.531569893977597 8.259448074395745 1.2784029336317584 1.2716640240275778 -0.03425352186623133 -2.123139343274421
Ni 3.9977827728582342 7.172218273267592 1.4231169757020288 -0.15829819365468223 -2.4120858300770007 0.6806010886993633
Ni 8.9833045015723 2.604272816287895 1.6467583571735362 -2.080865007986242 1.8668515230471268 -1.3835340081267076
P 6.847526399430358 0.08481777550550419 10.064404570561999 -0.9840611957370858 -1.024168605280933 -0.277046135820568
P 4.851534717886088 6.7073739966627555 11.084079693615603 -0.8285313088561602 -0.08987291100274845 -1.5908808796789247
P 5.7707223980661695 8.37492952524664 1.1372041972244775 2.2636876691448498 0.5573735134955692 0.10457962108530376
P 7.02317907268138 0.06381884469378235 5.211329912314736 -1.3390703784966937 0.3243570050913898 -1.8863381710168288
P 5.165594340478883 2.879763548664764 6.146111248181387 1.6143504235557744 0.26921404137065896 0.8759149403464463
P 8.425012777578123 5.9416923763737 0.21604865906914625 0.12597248493878305 0.06935653621695152 -1.4685290222118643
P 3.49450098425232 1.599773753880812 2.7572064425285134 1.5684906849091826 -1.4315892117627216 -0.2160667679237182
P 5.73494060283665 4.5529777246452925 2.404321742200841 1.1762994937826388 0.44943526035067755 -0.3994345029525186
Ni 7.112891625105771 4.624963602223484 4.235729365094987 1.5238180245921564 0.3480864874978457 -0.7491814088719226
Ni 8.099222957231095 8.929889873078615 8.355661033207625 -0.6480180125570194 1.4580651465660632 1.655148174298427
Ni 6.10762306172601 1.8022181988025066 8.36329786115354 -0.4162477178551154 -0.9045254049942874 -0.23025051562326795
Ni 8.52379042682699 2.711214683173708 12.533856124357639 -1.7576074066066183 -0.8128519504476905 -0.626732877925998
Ni 0.8263961854491575 2.5289555625475013 6.552753098777168 -0.5843711251303355 -2.3704509281450337 0.6969023969625482
Ni 2.227545785212875 3.5875261445225077 11.990512425965639 0.41629862569770887 -0.16353527368390547 0.5894433974469203
Ni 4.2916946077883535 4.6716216368107295 7.548475158016622 -0.5823906043651971 0.250551174853833 0.03564166046300959
Ni 0.6462353625972288 0.7948907511129223 8.876521226960126 0.4725898440902699 0.2943540309713963 -0.15877153374667496
Ni 8.951651735952272 0.8198948406458502 3.0618274788003395 -0.981898383757812 -1.4318625200287662 1.1864460952983373
Ni 6.657515964128154 3.9818109355960676 7.30321549129197 0.8688048116642263 -0.6195052498293073 1.0303940173653545
Ni 1.7913138069701695 0.848349485150164 4.563864286577043 0.531540097372233 -0.9902894360349849 1.1453722080761628
Ni 4.825305995707619 7.793937522558469 12.954260781374508 -0.8975839406794477 -0.1595955723098671 -0.7090243770370628
Ni 4.85624556530419 9.243865038247577 10.863075260599249 0.9369184766130122 -1.0152916145062771 0.4036739949551628
Ni 9.320955897888412 4.677148905992525 9.19528888172356 -1.0366669948582599 -0.0003555835672058392 0.43708342365354397
Ni 1.0381037329334164 1.5005644333545918 11.44954573484656 -1.620209967660345 -0.484142839035192 0.6183068586458319
Ni 1.4787181130571039 1.9206275070128591 2.510682729693864 0.9686921694801833 -0.05509848363604059 -0.2683272678903314
Ni 7.076293408112557 7.301860418847401 10.44749218406728 0.6408618611282124 1.0841154181482102 -0.14107463068754414
Ni 2.603662846004675 9.369509532432742 10.955235201483083 -0.6061666237388722 -0.7739485885142735 -0.705997674395597
Ni 6.150893415201834 5.634727177382667 5.862860755386136 -1.0078343868972837 2.194592099898769 1.4722884892542967
Ni 3.6798850295602543 5.9712993955053895 3.406485087631101 -1.3938222774265931 0.2121700039724733 -0.9884865784982911
Ni 7.2309818719372085 7.879652423588217 6.720439560129334 -0.6217169127686455 -2.05507581483728 -1.6283637071157309
Ni 8.999548479422364 0.27153249444667915 5.646265938309553 1.7318233556639788 0.016048568822430425 1.002348424082048
Ni 3.8733488350813063 9.303116613143771 0.8443837398934121 2.000186361888252 5.929829066139046 1.578009165922579
Ni 4.2265216290658225 4.53100941029116 12.975974785041329 0.997149910600244 -0.008276895296811552 -0.30430728552936626
P 1.780381262663222 0.2840350084210533 6.962128554657597 -0.03581186749228671 -0.31930607293104357 -1.1657965373687857
P 5.7356350305437 3.687692649185473 9.451660330176843 -0.5651269321887428 0.040565065906555946 0.022471441629638718
P 6.185361428282879 3.63866042257277 12.090844091812983 -0.8202850096869678 -0.6482177872726513 1.8769587866844577
P 3.509609478959775 1.1520837184717698 12.479507772122714 0.4683786342223997 0.6179427904381939 0.7094311255571782
P 4.427980737376161 6.826449580105549 6.664113965760956 0.5119529192689247 0.13934864913537293 0.8849888776232565
P 1.2249704752374864 9.009683370282024 1.4235289402471574 -0.7394814079753393 0.4215570458831708 0.7398315922259066
P 2.6736686662019515 5.3156939509420775 0.4906816793862249 -0.3399456035582662 -0.5142617699077595 0.1482652348987124
P 8.14754198782034 6.5289717650581425 4.710990057305584 -0.39015204920932806 0.10198923465030822 0.5146070690623202
Ni 7.859711087406017 2.505072879919878 5.709513287768749 -0.2458252301330734 0.010116776719027738 -0.7991384575163398
Ni 2.9975441182754894 7.913182020848923 9.013428587820997 -0.504237552902538 -0.3302435457791538 -0.7665983187967894
Ni 1.7601771700513273 2.8239559598292137 9.729594697349874 1.5431581196816648 0.3129996710970416 -2.3590501425072596
Ni 5.099238957822724 9.126375377541157 6.077918447349005 0.28068604656600044 -0.7918871752705652 0.9351978943774798
Ni 3.631603535603822 4.510467487983943 10.141991852171794 2.2971156097859926 -0.30320633915570366 1.021219292844622
Ni 4.121569203719129 4.3475772698895305 5.015981767826444 -0.3430352982271834 0.26030671157870006 0.7050728485884825
Ni 3.1577504671237335 2.5236441290043836 6.594465681991229 -0.1807441813630242 -0.6090133491590479 0.04392292663519533
Ni 3.1235076738395695 7.998099268431384 5.423749717406632 -0.7474659688427127 -0.16239036144618482 -0.029622965072755435
Ni 0.5441695043138971 7.56511420892705 7.934061772851462 1.258204298978246 -0.1228226264558917 0.8354388346092708
Ni 5.151977926925767 8.479440895157776 8.569537259652686 1.5382128598612475 0.00597678640872519 -0.7999318999519126
Ni 6.781452541520302 6.372021719106474 1.5487896223618038 -1.5684246075579376 -0.06935190823126121 -0.1086231950270581
Ni 2.171691275586308 5.795083672762165 6.6885615747124225 1.096323273068312 -0.34935352713572737 0.15719699017070346
Ni 0.48022585031600973 4.165674747275053 13.664383493020404 0.9325781973664455 1.1489241870934794 0.6075938431037019
Ni 0.709203064141964 1.413695280865827 0.0772400677562682 1.924642723023982 -0.738033105564587 1.0796524972808503
Ni 1.5720154139151898 4.623837503239077 2.408126079936495 1.4415231830469817 -0.7573266636868764 0.3606247291741725
Ni 2.4751092627764595 8.168215288342406 13.686647408357944 -1.7298184094188078 -2.1129451763502383 -1.181708837723668
Ni 4.136358637047668 2.0406227379595845 10.125304003638709 0.7784688449821303 1.186829446779685 1.8329756962352883
Ni 1.6468822280618212 7.876555651381099 3.2502257157232024 -0.04003027644900847 0.02615377557723238 0.1637479039153438
Ni 1.7215050540951644 3.267676496318223 4.546723183202734 -0.22045898345414291 1.4596839131164085 -0.739316857373017
Ni 7.735258381312683 1.9357829225113312 10.224289981199687 1.7169844908789333 1.4115263795745754 -0.8665157585197334
Ni 0.8379715445930369 7.2899519220873 5.614730474667067 -2.003528024666975 0.672520625684074 -1.4544936271647209
Ni 3.889020379280965 3.6892691877636428 2.7824507665114484 -1.2866815804823324 -0.06134677853859757 0.5187907681263646
Ni 2.7506187634697348 6.441614636342801 12.069583342987388 0.096242304864202 -0.6992536708035442 -0.5695340601175031
Ni 0.8240473306508495 8.209852798290838 12.311711516119571 -1.6807846439196088 0.5124866802852077 -0.6858196567858253
P 8.710544559232618 0.3720706117744993 12.662412522833314 -1.3348121174409722 0.45821660608773346 -0.4849514509794165
P 8.285601723308588 1.8074827115546073 7.774726273884492 0.4186956651749757 -0.1898461436642924 -0.13457153946170372
P 1.9436656154021774 3.933951728758787 7.8191170958498 0.13871307243390305 -0.6219858501593158 -0.6877978635581187
P 8.94126347282112 3.242977391926905 3.653956600444293 0.2503400872842914 -0.009674289864970435 0.9909149854341257
P 1.8701219675622236 5.7094250766816375 4.443383894651202 -0.0660315856087766 -0.307405979059348 0.27298225016383953
P 1.4723462696370035 7.433557695073751 10.407757781402493 -0.8030943568402943 -0.4574923263271992 -0.026916621885185902
P 0.2999036199429828 3.5958405086907095 10.962500416764145 -1.3391300280900356 0.777944597047544 1.5444331297393465
P 8.201247525218331 6.244378399223987 8.03218253102609 -1.2341619133170616 -0.14385836408026836 0.36210182794033124
