# total energy = -340892.58687457436 ev
CRYSTAL
PRIMVEC
9.08724990553119 0.00000000000000 0.00000000000000

0.00000000000000 9.08724990553119 0.00000000000000

0.00000000000000 0.00000000000000 13.30010879004661

PRIMCOORD
 96 1
Ni 6.236361650458865 2.196252040711246 11.575510927949828 0.9436102868108911 -1.4077645985392981 -0.07510320889274164
Ni 4.56647039736008 0.42013628627936134 6.079426658660966 -0.31164495684136 -0.18544981436880964 -0.4962113401639518
Ni 2.8036620119764093 1.7719592462355904 4.86611065602239 -0.3625864808862336 -0.31928293300259203 0.1693436528355664
Ni 3.492402871647414 4.434269082887658 4.675054857544463 -0.3327989652111559 -0.15000690018016746 0.4750411338442399
Ni 4.806809988036916 4.847993405495605 2.355436126909194 0.461580894574276 -0.5606341865247119 0.46459911257530956
Ni 7.456270453045871 6.124097762708502 2.3409655898480253 -0.34614453328012645 0.6020042648310664 1.0461901038573467
Ni 5.27423087149292 4.399910190254978 11.600514496603312 -0.8087338145142589 0.2169190886216845 -0.41621557906559936
Ni 5.72729389978901 7.961594256674028 12.494149219206367 -0.9946029758086743 0.1170085908772759 0.14689329425185024
Ni 1.93888294334474 6.267885321059968 0.2895843077003097 -0.3230069188213986 -0.5911030445375304 -1.2132331335841944
Ni 2.679166685589815 1.5611713928878939 0.24818097878917086 0.3109001082555355 -0.9316510575664857 0.3838320205285712
Ni 0.7913031992133154 -0.49807944784747066 4.301561608584599 -1.137638586877331 1.3766539931774227 0.3196649989323591
Ni 8.515989210848725 2.3094428279719335 1.488575169279337 1.5592812504957725 0.9513518784295228 -0.48748038804885724
Ni 6.799689371483053 0.9571418786603807 4.943251413406562 1.1361470899334691 -1.680059592828126 0.11430584723413217
Ni 0.8670536073320024 7.3459330623169645 2.117750013261912 -0.6046933816274555 0.1603720454645754 0.5059002853169416
Ni 7.873938642197743 4.087417833774525 3.745896256845753 -0.17013452416797797 -0.21964934306865397 0.3866124114871857
Ni 7.394449890607331 3.7986886363087398 12.966861608396306 1.4820298849117766 0.10019897551910485 -0.36058153464106285
Ni 7.868849782141065 8.69975158239542 7.103228969163792 0.9593251264429865 0.7700284275242609 0.6070683096175351
Ni 6.924411879122178 0.7307703001141168 0.5761025772164706 -0.8732422786102897 0.10577415561403718 -1.114660895035235
Ni 1.9059053127274446 6.422323136530053 9.233134996886093 0.4190039404440139 0.33315917676405205 -0.02954557486760073
Ni 9.329334443907538 4.762918570048066 1.6369108963064594 -0.16743486584862777 -0.5329881426726691 -1.1572237080981103
Ni 6.300635770424733 1.8635859890061037 7.14882152037159 0.5798197583142272 0.4156154835877552 0.3100246476291177
Ni 3.34615266851852 4.059365492712086 0.049864467480376595 -0.6725723048576158 0.9904971811704169 0.4619043393519658
Ni 5.871872048899282 5.5409144002131665 4.670679346620731 0.003285355619491116 0.314490139599639 -0.19279777009344862
Ni 5.1789783159320235 2.894107412233765 9.38043386867667 0.6596669096498575 -1.3111008898669614 0.26511853114504663
P -0.0630391626771127 5.567812660512752 12.665414804413874 1.4730068554775597 -1.4222903029592988 -0.03807675226706346
P 4.152964168754562 6.046983358349623 12.444153895324533 -0.8259447790759067 0.7728543270088302 0.8324571262731276
P 2.4327386373451674 8.70516758345574 1.436704236976613 0.7913924950223338 -0.5923394880477928 -0.9589350900934195
P 6.418052128982483 7.896693116451177 5.8603076144204795 -1.5560272623348492 -0.3808821938716279 -0.13574884759925654
P 4.725351878129658 0.9627850609732328 12.62208316103126 0.5805928890348259 -0.42844528836257184 0.9943504934782358
P 4.137234138829365 6.098480804673187 8.053202824944337 -0.9132694697355046 0.19393316924947246 -0.3649076728202425
P 4.902035281847508 1.1870947424715317 3.8370286532107603 -1.1003097685198857 -0.45585556205472455 -0.06532890311479717
P 9.46273527539332 5.882395084516484 3.5860815154907804 -0.6210201438119369 -1.2855464384366246 0.3585411071722664
Ni 1.4682996968535145 1.1905660720101945 2.636840092068393 0.5652914827910651 0.7619716186580554 -0.4372849981413889
Ni 2.046884910797636 6.673821870331175 4.71448988808368 0.6651348747429643 -0.6128080403147897 0.9446050466239926
Ni 5.9455332982197 5.71979691845551 9.02085229089675 2.20786721974112 -0.25101037387843866 2.068652782190766
Ni 8.568431731182814 2.4040320142754417 10.42731234208651 0.03312969267443327 0.27739811984334806 -0.3335936931983094
Ni 2.4493683050303843 5.177015469910161 7.014092132921012 -0.05339229957821127 1.0610767911611918 -0.6881390489476212
Ni 0.5370728380317682 0.11888122327406607 9.359924853923244 -0.5362868680285989 0.02396576678697808 0.12079325473068873
Ni 1.2830379290401204 0.9109059501454176 11.559710017473842 0.34015412002464646 0.5716264238701574 -0.03860537107702383
Ni 3.9553255663033187 6.9889586165910815 1.3356231192007995 0.9364189112687744 0.9260293405043344 0.20268700418270255
Ni 5.583351858185823 8.14991842777153 8.107866269203164 1.4129386865410698 -0.9996881036410655 -0.03790834500999923
Ni 5.448179012930305 2.9179069202488375 5.023877131204549 -1.425009501662675 0.6287779333804848 -0.2332661625211402
Ni 0.8400144946558483 7.452608291255083 6.925659558561074 0.36019664049781835 0.4050065977236573 -0.13851535460080014
Ni 5.399789406141355 4.216729402714762 7.3937701642997595 -0.4634254039821825 0.5397611997304446 -1.6136924782568016
Ni 8.57004017445073 7.143214687059143 9.455805338466135 -1.1745511436329643 -0.3134287882146602 -0.2859069286453076
Ni 4.586380562331834 0.019047784937148943 10.468515751495422 0.8721169067565947 0.8125534453706652 -0.2738060316167156
Ni 7.967364660488296 7.12616700586927 4.615523373406418 -0.1131863889177083 0.2780444951780953 0.24446434522980479
Ni 7.310638182923859 6.066584556817935 7.148995086848523 -0.4216310936542158 1.9408280745345932 -1.511674704361403
Ni 2.3889199173571267 5.350173020588742 2.603163651918314 -0.4611903440040767 -0.8009032627262465 -0.7552597538555186
Ni 2.5852953920443027 5.087142566409182 11.166970881524623 -0.17525590455494336 -0.28573183652002404 0.9532133571182939
Ni 1.1171501784425086 3.429973463452092 3.7400040838801276 0.34948259651442387 0.053549136871049716 0.3936037552033544
Ni 3.580621895629973 2.784433390762246 2.7143925018821506 0.21381602421632853 -0.0724238622883656 -0.18498958690293948
Ni 1.2540041649667504 3.3905257107627342 8.136927295026837 -1.4703905009006355 -0.537866296700577 0.30806135325515976
Ni 3.60430326939373 2.795119996881271 6.952007131504526 -0.22380578843918875 -0.7203017497230949 0.3020560276013443
Ni 4.293471229819491 6.995855839417901 5.960244647408551 -0.14200074204623933 0.22365923555899547 0.0838084499762234
Ni 0.8171818700515449 7.405899825734856 11.651919252975842 0.22196487857570804 -0.17268145895954776 -0.703782411911833
P 0.2997056868630388 5.6114587227488695 7.99012004346674 0.08092830021495094 0.18147308910924873 1.1798044216121035
P 8.433558765180637 1.7439705159238597 7.949768109392311 0.7186205053659303 -0.14362825034733329 0.035634204263841854
P 1.6058443143854484 3.046582381681989 10.332389653704288 1.3076651247125353 0.22519984057323797 0.8400367383925983
P 3.925973748476406 6.409782731390381 3.6075746794301655 1.0147817647493944 0.2696884099039162 0.838264219873208
P 6.940432701050613 3.955298304553015 10.273349789796718 0.3127759851220097 0.5191900604473123 0.1538764104379027
P 6.574062038720078 7.716102195189805 10.3654136292971 -0.8307812812326015 0.7439319875475253 -1.6582851772655116
P 2.4234423804916285 8.66795529429128 5.778126159405166 -0.038090636224134396 0.21905541823839694 0.7887576285026481
P 6.86223691392969 3.998744447286906 1.8032021208085647 -0.14525473020716273 0.01892563325990934 -0.20598135866325815
Ni 5.22284247217057 2.9829716309735104 0.6815664757160983 0.7436085427698355 -1.3474280064327697 0.06325530841522009
Ni 1.3750009000643784 0.942229701244293 7.363193385159205 -0.07152577595412841 0.294575402953583 -1.9738456671111941
Ni 7.0847291454077475 0.7373322034122014 9.241261724651608 -0.9635386503037019 -0.7206851012044426 1.235000350057957
Ni 2.7437043358086175 1.294805917921189 9.36340981433706 -0.4118657867373358 1.6324047099543242 0.4099109770038102
Ni 6.636727715418032 1.9032063994473847 2.723782357411732 -1.2881465950636333 1.1066724775131198 0.13840942515055515
Ni 4.271743614827495 6.728218149437026 10.1941216910643 -0.9555972839694382 0.6342785514837399 1.2249645630885095
Ni 8.193891631011292 7.2868205004085835 13.467557275547914 -0.278243755673095 0.8112668653487577 1.5692285915164716
Ni 7.769298957282296 4.094133311599321 8.14549202824723 0.5895565259860168 -2.1386222694013686 0.7923072935271193
Ni 3.176484621878804 8.277085405687881 12.459076977440741 -0.1276537292959479 -0.18087530762424978 0.29361895257758464
Ni 9.27135778826181 4.92478066885084 10.498853535958318 -0.6205241780121249 -0.47397258337040954 -0.2268620587670093
Ni 8.564487864638888 2.5956094209091773 5.805271592907504 0.884376183739922 -0.27303032979295555 0.19956774182743048
Ni 3.696066320915761 2.3706363701534903 11.467659808848612 -0.8488044572828994 1.1602149295159503 -1.1534452148922845
Ni 0.9508989378408484 3.395251080815364 12.626232399427472 -0.34086014495273553 0.39680220753599404 -0.3810619139826018
Ni 3.280915300041924 8.384732970386828 8.160388757338145 -1.6293906057183487 -1.3545777301036734 -0.7955646241221525
Ni 5.5990728008609185 7.948381395026866 3.587451872806043 -0.015443074027947597 -0.07283292480132618 0.3220957198610388
Ni 3.1535393153732456 8.74934979344783 3.577436814469498 0.8397742287598312 -0.8526860517254927 0.3421372118929462
Ni 3.305387264564486 4.147784436196872 9.104190552849948 0.008151682572856929 0.5761986166218721 0.14019145675164243
Ni 7.154182997931305 6.148424331229443 11.703244950272495 -0.00566336893336444 -1.7118065462224197 -1.6491107098550952
Ni 0.44109239373776465 9.172215889657595 0.6629412479086556 -0.06773314168091561 0.7014365373874759 -1.1189304689448665
Ni 4.58260026628973 0.505929923209907 1.7396940560262297 0.3359634789820665 -0.11096315601414437 -0.9563490745337981
Ni 5.987961668942255 5.642764299347543 0.47667715640909786 -0.6016512523670219 0.5623712238204767 -0.7062887232734546
Ni 7.879227421756648 -0.16815047587281334 11.705758483650488 0.43138740171003126 0.09515909910235225 -1.1071221634560289
Ni 0.07427918232730092 5.197852534392239 5.8789937268036 0.40456796752434193 -0.8764101348153099 -1.4999065080818814
Ni 7.7630923654631685 8.88228717517845 2.6546747291170303 1.2737293911970387 -0.824901939633689 0.33594059616393107
P 8.740553335349858 1.6077708114069051 3.677812761637458 -1.1689525664992644 -0.4197372190656126 0.9464156174701702
P 1.809144273649747 3.126804625575482 1.4177118842650815 -0.3662978682995498 1.0565375085299418 0.9168386751440016
P 4.589079475611893 1.0158091653138006 8.278559357654297 1.004537461313567 1.2631919820008246 -0.07818081937680084
P 8.527857159480906 1.6802598054642675 12.562538046018062 -0.6440150620452134 0.3899710435467736 0.6732256221708987
P 6.325171345698004 7.7789223551394775 1.34613070649283 -0.5202064175269686 -0.08802145961630647 0.6825612977495277
P 1.6679829305775309 3.4321725779765857 5.950149621271115 0.9608482479557324 -0.570561730051069 -0.9526891091837075
P 6.991148643865474 4.094251445850636 5.865281975125884 0.46165494234532106 0.9936611807206951 0.7412169026092074
P 2.402777973761474 8.368239611453129 10.295454525667916 -0.1889100050032682 -0.39468181875888153 0.47904716967983957
