# total energy = -340891.9864304909 ev
CRYSTAL
PRIMVEC
9.08587867131638 0.00000000000000 0.00000000000000
0.00000000000000 9.08587867131638 0.00000000000000
0.00000000000000 0.00000000000000 13.29810185016431
PRIMCOORD
 96 1
Ni 6.4333289404636345 2.1024359353436064 11.51249855317912 -0.35449547634798306 -0.8929438708042752 0.6361192042369045
Ni 4.51316481318468 0.11138832715062033 5.820260199025942 0.6429387982618991 0.9796761792955128 0.35693519613772723
Ni 2.6124626375967916 1.363072574531034 4.657234136618025 0.5521150933101072 0.8579136186730192 0.5774489440892056
Ni 3.5577301763845957 4.205389765760224 4.835415482193732 -0.275230422768068 -0.03404449117921879 -0.754952507027745
Ni 5.319327552537271 4.21800096508198 2.8216840698028394 -0.7030470764077053 0.6839520074494673 0.3092067797135127
Ni 6.954385899184119 6.03503128580384 2.6695673838051723 1.239901129793684 0.04588339279567582 -0.24473456817205597
Ni 5.058272092225544 4.506959158187015 11.818568181214026 0.18370969174925136 1.0041805921947802 -0.40860331393598015
Ni 5.491877470634863 7.82529460854163 12.662731698695804 0.3477555865209882 0.06757141929207072 0.326496934252528
Ni 1.8442970420219966 6.490642661876915 0.4289397798129786 0.07158439710620576 0.10345887721729925 -0.005165603361339491
Ni 2.7800244084122196 1.748877146289233 0.1441965257319797 -0.5076422077087128 -0.2179344172600763 0.7046211057630445
Ni 0.32057614160631526 0.14389305739095185 4.820136668952044 0.28372894715738234 -0.1655276215235859 0.19722546684749903
Ni 8.658687725680462 2.428373653837362 1.1567795209571197 0.4939150879306074 -1.6353198267185902 1.534286528223648
Ni 6.8233947892260876 0.8623034738548928 5.104263900472513 0.1898461436642924 -0.18532125921074535 -1.3981679559897984
Ni 0.6973747906211972 7.129261802171027 2.571866023987616 0.14816470476510613 0.06844508014627568 -0.2228979319129387
Ni 7.583128689577114 3.905428573823312 3.9248814396359046 1.242806476365937 0.01399682849972428 0.5046900670589243
Ni 7.568100646581305 3.865441622659734 12.747786424265556 -0.3878851075520223 0.5949357880200593 -0.7978685896649808
Ni 8.101423541241537 9.17664639984135 7.010067796823489 -0.518965346031016 -0.8161668737535364 0.6588768096483943
Ni 6.65022703139227 0.6981334614737668 0.5055846162673016 1.15892654972183 0.18087556473456592 -0.09291092649812385
Ni 1.9490663067043903 6.387672401132352 9.205970164027974 1.4387204234908642 1.2126073270747375 1.0432389916488227
Ni 0.030486756631281167 4.8149795243302655 1.304983827683931 -0.15476164125633346 0.7945541805797671 0.9997377259320781
Ni 6.391488470091384 2.068145829983156 7.2459626424653285 0.2760241223139569 0.6388769694876998 -0.030574530352747348
Ni 3.2942942159127098 4.372133807513002 0.48225298893420654 0.28113084741290295 -0.6761147707932356 -0.4788898181663688
Ni 6.014188280584744 5.548400720620916 4.861067642889059 -0.9001254761543789 0.9885557411733298 0.6443878720035999
Ni 5.182103529946152 2.5830698207337663 9.44677229263356 0.8098064787531472 1.351209327852073 -0.9672526088201794
P 0.01938199596049621 5.841347614375987 12.627013293239258 0.1863638415426468 -1.1825017659386086 -1.026731995132735
P 3.99791373080901 6.158562889534812 12.94281662288324 0.3212408280599113 0.6196628584530941 -2.3956353978304614
P 2.343102684359931 8.370983383804823 1.3738538779281486 -0.2964165699273798 0.5534096437518146 -0.4996679312539846
P 6.5420596481606434 7.873458850331707 5.911551471580172 -0.07940260759904391 0.15559416445995786 0.7629812908694925
P 4.7936822251874736 1.1284661064567925 12.825447061933259 -0.20166344801419464 -0.18371509106589004 -1.3777392558218013
P 4.016358064111 6.448629559813661 8.363508431584355 -0.042077903006656564 -1.6269855958212818 -0.43472109406895454
P 4.8273726625686475 0.8885898288676959 3.6480147336039184 0.1323717035969075 1.514734060013017 1.5555204979017598
P 0.2916984940527595 5.310423391632862 3.7241598467421775 -0.6707293381116062 0.9474659131115551 -0.8970938884169067
Ni 1.2833530768011479 0.7214323796443558 2.612518061455482 0.40126692817556703 1.7149242659157948 -0.6072912242616186
Ni 2.062503499450872 6.290335385041598 4.549081290791956 0.639993085370014 1.0316039785130555 1.589605869621243
Ni 5.970948584927514 5.8465810803769465 9.229228195745431 0.30345316505918707 -0.25353314030029245 0.4629775178114865
Ni 8.560042343089467 2.7106355545071428 10.483398339476299 0.5727006307709427 -0.766979356285292 -0.342082704505927
Ni 2.5698044381618907 4.768505255936333 6.860198048572415 -0.5592578750024756 1.4949620195924123 0.7715551485814325
Ni 0.48953077759179026 9.2419738660686 9.163495499338245 1.0114089916224194 0.23373436040681037 -0.06899761021563601
Ni 1.5441995619079758 1.1477735982138026 11.27817283874972 -0.7474595410848096 0.5633240746520491 0.8923401757820052
Ni 4.224560969340127 6.8217865887362095 1.660241676012921 0.025850642514516773 0.5623223728604122 0.3873068664510491
Ni 5.728446488459465 7.9930562686834845 7.980655861742322 -0.14903399474393686 0.6604210142070627 0.31437546839864566
Ni 5.454062044426545 2.8964508551766106 5.1483603944698295 -0.3847897564561502 -0.762956608279144 -1.342337993504372
Ni 0.7839232346120574 7.469418920476416 6.682695418118707 0.12405007110508959 -0.3305063125222372 -0.07442212366531699
Ni 4.913497704622625 4.626892754042326 7.235430292138398 0.9078840370538751 0.13331838378089297 0.0736505356066151
Ni 8.251267849032885 7.3549913669762805 9.013825640413597 -0.48932361190518303 -0.601405454904803 0.564683416893421
Ni 4.736277644989455 0.37372580491501334 10.379407734579118 -0.6087261569359323 0.3159806081022365 0.18393492038618
Ni 8.049706720968171 7.351211641531144 4.422922051006338 0.7034175723732466 -0.90675403721449 0.47434179378437014
Ni 7.493414725525952 6.24165324817851 6.993059032320372 -0.2367716045712374 -0.7447904788930786 -0.29506314122327887
Ni 2.291285919423352 4.986493652281835 2.536905380795793 0.05966347729890369 0.7868696674513158 0.6135271778690015
Ni 2.397209090671929 5.256244298293072 11.617992870963729 0.17918634995760108 -0.2120167662240607 -0.6408875721598253
Ni 1.1153460979404992 3.175877961762538 3.840664432061444 -0.02694953200565036 0.5578959616579425 -0.5292721272736626
Ni 3.595645547256127 2.6945626354868364 2.7079988325740207 -0.5381028381914151 -0.9202926951308732 -0.21559522760393837
Ni 1.2822264278703857 3.268581179831609 8.176696410046302 -1.3588840707885113 0.4083624015697677 0.42873402324758425
Ni 3.7672777916278566 2.5079750351470884 6.897352931415681 -0.5982013461452085 0.09210051478168654 -0.39774965905092785
Ni 4.130776531732662 6.88485167122346 6.224655386729562 -0.0600375728088708 -0.8791630149700989 -0.6442354055861356
Ni 0.9405610537383308 7.512776732553806 11.501873526891757 0.2555527418334824 -0.2076839431766617 -0.5844569999759225
P 0.474227432478222 5.681690557832841 8.014566177382566 -1.5474022396699996 -0.6609660880772552 -0.9046668156681581
P 8.568846559330664 1.919900636803212 8.283986097417353 -0.08624508444217405 -0.26914487869562037 -0.28795301254105893
P 1.8082442762376123 3.1812840594545 10.532255833793933 0.2776547159388444 1.1259889184535448 0.37670569389643505
P 4.115194250149946 6.008836698163624 3.6611002157820107 -0.08996289961339345 -0.4039334192641366 1.0355261963855973
P 6.7589123096969095 4.046632211185993 10.467693398534186 0.11951335957700064 0.6350388266885322 -0.6050584782763581
P 6.250030428131435 7.935179222804822 10.540633922334706 1.3039159420827477 -0.7286249248768096 -1.0172387109303191
P 2.5023963057641216 8.418338982410722 5.499842151705073 -1.8607826911452277 -0.7618461488237848 1.678665540694077
P 7.04080168934926 3.8381658154811245 1.6083785730961255 -0.3313581189995713 1.0415957996184448 -0.3277714300895775
Ni 5.16036102275814 3.063313013349549 0.5773557875082315 0.9367251296552837 -0.9370984538343022 0.041729518528302326
Ni 1.317098029453165 0.902583898893177 6.965506105848309 0.9769587803643497 0.5934957131394231 -0.224308181996904
Ni 6.992373957083442 0.9023276771202133 9.296530023365055 -0.6794021832952557 -1.0273133215575017 -0.022348028677896998
Ni 2.8254538007816556 1.76041621195107 9.124678809322106 0.011215409099845202 -1.5624766175046185 0.37734409881138237
Ni 6.627376047030444 1.988789767392225 2.730964299004618 -0.7725079994130051 -0.84304312931909 -0.388970113086085
Ni 4.108161780211157 7.13808419016917 10.498545407480115 -0.10348664513144112 -0.9946518267687385 0.2210981597000386
Ni 8.093727802174154 7.5814023726670765 0.07757250464650689 -1.545627921378396 -0.7552196446462025 0.5826199467671836
Ni 7.920269296229174 4.118283448831067 8.400663314427623 -0.7698307096911581 -0.01911126690815418 -0.5966782246324627
Ni 3.1671918619415016 8.445006035731582 12.425214115158528 -0.636076009703795 0.44541456922705874 0.5885342553690895
Ni 0.31303667964868365 4.946833792743316 10.28036348192312 -0.20714632550563677 0.5899175088698614 0.3923056052172211
Ni 8.654953429627694 2.3875235442187654 6.084466641992414 -0.6661214070259496 0.9169731438393369 -0.47092505479333735
Ni 3.9499130348314635 2.5874037847658107 11.369611302535226 -1.7463768279981216 -0.41155391192387186 0.4113788197985883
Ni 0.7870287878744321 3.4474730411039745 12.671136136284147 1.8377633474319188 -0.02127022223268595 -1.1979342984435948
Ni 2.8496949245499863 8.414032276014101 8.009366329131959 0.9041520808152688 0.055669782758478316 -0.2904806640589191
Ni 5.722813243805655 7.855187148720719 3.94396451019461 -1.5009318640226021 0.07384233990244701 -1.322653370591251
Ni 3.102845670589432 8.48074079576938 3.4474267031237575 1.0087972650311854 -1.4321126883663593 -0.3869266002934949
Ni 3.373813824316171 4.235963746824855 9.330879186935585 0.30775102110359254 0.7308612704064961 -0.11078472145475114
Ni 7.195888549020041 6.097078749902017 11.407457620730357 0.3064024774954981 0.022895673651250892 0.25820277786181983
Ni 0.560086258292914 9.189094053350576 0.12127285434236224 1.62796132947099 0.43078730623218714 0.5017950048993165
Ni 4.416273005139147 0.3882686620003172 1.5958118945788922 -0.2279378083296913 -0.5809153053712511 -0.3575334918433584
Ni 6.215158826548655 5.602925077342713 0.4555386890452834 -0.7236943203444116 0.5545614979680707 -0.07279692935706816
Ni 8.160817928825336 8.934117045737878 11.075749460817834 -0.40336083459011823 -0.10155060445099284 1.1370796290500675
Ni 0.3172716076053625 4.837612447608719 5.8403263616355225 -0.6653917279487765 -0.11638689813287696 0.678001189182671
Ni 8.272347087092303 8.90892190472979 2.3301598504738785 -1.7545452227415266 0.2985554706472536 0.06857543507655287
P 8.52655179503472 1.8286875028038585 3.749785658389929 -0.4405392434126284 -1.6354054444538608 -0.3065865684818462
P 1.7954967887387485 3.195748777984929 1.4725519586142908 -1.1286487246738948 -1.0783368637932202 0.1519732798779189
P 4.642920243670264 0.9535447740775156 8.079581089390311 0.5919466234847484 -0.4838391917518442 0.10935287410423102
P 8.448458669551659 1.5784078943621611 12.417461135056758 -0.46559644349157236 0.3127469316562872 0.029620651079910278
P 6.236419782177552 7.85366980701558 1.664789158189102 1.5388160406628852 0.12292984145771732 -0.9315523272050924
P 1.7087629928270212 2.9245534772963437 5.967150687725429 1.2945432426185963 0.1517483083513064 0.043071120157861305
P 6.870041689311024 4.113413417969064 6.17692817569408 1.1554249643264747 -0.2243531763022265 1.1718468573279237
P 2.48771352615032 8.698274898191189 10.174790116995789 -0.18206701393950578 -0.7845911558297842 0.17493323110820194
