# total energy = -381175.7370048573 ev
CRYSTAL
PRIMVEC
9.20005387525454 0.00000000000000 0.00000000000000
0.00000000000000 9.20005387525454 0.00000000000000
0.00000000000000 0.00000000000000 13.46520880214147
PRIMCOORD
 96 1
Ni 3.7319374026466354 5.149389683656704 12.803824282234412 0.6287110846982915 0.4128129811419536 0.5049512911401111
Ni 2.1624266332836473 0.5694722869590836 1.501950174661895 1.3305643979082118 1.585315212665689 -0.4282874226284688
Ni 4.726895615370695 7.3832639343501265 6.580379843757486 1.589655749022572 -0.31048358954340727 0.30457519447877224
Ni 1.787248441425462 1.6067525869363561 12.613668371309528 0.0721001604003597 -0.40804821276345854 0.34308903428325427
Ni 2.04404034164973 8.650249336305741 8.50330607783691 -0.7617828996860171 -1.8549791970895733 -0.682903768690611
Ni 7.181184753767365 1.3211921186409612 7.1482752415041 0.036396793461479254 -0.25647345387553894 -0.35646417003857966
Ni 4.721099581509227 0.8033900935488005 1.8839713664981117 -0.007716137697335099 -0.13554238801540527 0.1380283876620526
Ni 5.096526174818618 1.694051896954559 8.905445027204669 0.3883242519719699 1.0305297716122703 -2.574706562366437
Ni 7.441261073179798 0.11735864563022479 11.284195284289666 -0.7776008405548802 -0.17710272795569498 -2.0408483583839887
Ni 3.3719668996344923 7.569629423130687 1.872727980812239 -2.1346314030744202 0.4511784682940294 -0.304622759887256
Ni 6.483609078405345 6.3043092309035265 4.490445033984054 -0.8279720939185805 2.277525860579523 1.5424397534584016
Ni 5.456827879765703 7.401857242975565 1.32981716903005 1.6844698060806798 0.5357525927916837 -1.001508444679256
Ni 7.492192570730728 7.190771209773158 6.702253875767407 -0.3933340464817355 -1.5410089345491462 0.6173887177069367
Ni 4.941956071792395 0.6453405301949473 10.822485986901267 -0.2867929307946867 -0.8907003261857369 2.1680786269892725
Ni 1.4700857885044447 4.103518373489211 12.904180308532291 0.20134000323650486 0.044572644404052265 -0.7103230412438282
Ni 4.344384980675065 7.914042635254352 9.14978465468053 -0.8220613848611003 2.007237612308079 -0.5728117024275102
Ni 2.914457426782219 1.2081878584498358 9.510544522304283 -0.7153246082234778 0.8361494875230503 2.610169788270053
Ni 1.9507425965875955 8.778038082870484 3.545146871382901 0.8229599854159699 -0.6509441850648788 1.3469392397218094
Ni 3.746151485687854 3.0225396582179713 11.53840472942677 -0.2224060798781847 -0.2735376084466773 -0.9361486883265233
Ni 4.242797987185657 3.1518188134899474 0.4072661393217207 0.47768859876941605 -1.1567578242052852 0.17496999788340833
Ni 6.613550637547204 8.872706635941125 8.626849919602158 -0.9858617392809342 -0.8272920371324203 0.6777175965039812
Ni 6.007101494562705 5.579547396715098 11.511326211229218 -0.6307525406083524 -0.7228507413971939 0.015609424402482796
Ni 0.2707612618357806 8.702119239339003 0.82231644411993 -2.6496395642299015 0.037832754577057426 1.0901680521001935
Ni 6.453524902648203 5.038133433677767 2.606581308114798 0.829244532873101 -0.313502321765073 -2.3874317789737467
P 8.482780757924315 0.8873332239596012 12.977229655299656 -0.07707498790713177 0.3833339978462301 0.2231193038951254
Ni 8.328072654091867 1.8723673387053033 5.108915887201537 0.101928813726018 -0.17062534776146743 0.3716660745899986
P 6.003798675267044 5.293674126592259 6.864118701410706 0.22833324399589708 0.5305175696449895 -1.0342606994096124
Ni 6.453175300605765 2.399061215745255 0.7879192831655557 0.9004077832814881 1.5951699939725816 1.3137555538809889
P 7.8345449708147585 3.133657907390682 2.6271158280811413 0.2874835291038081 -0.33129384142053914 0.38557882801634885
P 1.065016622017833 6.97541635163151 4.577242021067597 0.21630922295182745 -0.33452623231490775 1.935105313118203
P 2.150144561529584 5.98365975761188 1.0490986890224179 0.17949745344011667 -1.011732179289793 -0.7213330192010867
Ni 2.989769066766307 6.311282871644784 8.189688205625137 -0.6091910123874928 0.1126711398441866 0.00195403840257728
Ni 7.134982083843093 7.243027515063852 12.787828148782136 -1.252096129197979 0.6143234485180517 0.11558651371876867
Ni 4.233266731502355 7.608251248766309 12.276445921195583 1.569073553995846 0.6249919839754914 1.0373467945341037
Ni 2.129269639574552 8.282992390724896 13.278271054037418 1.9551910281244842 -0.7460346357128249 -0.5232886559967181
Ni 2.473121648419566 4.495045060858235 9.804382278957078 0.12517467162783602 -1.5825685031584875 0.4950016361265669
Ni 4.1200600701287655 7.314107130323693 4.047439445866074 0.390053833068567 0.5577527512118587 0.5449432581520163
Ni 6.288586339047576 0.33825929617138495 13.259904986739565 -1.3193029660617794 -0.6345785992226619 0.5046790113153309
Ni 2.9373747606693876 2.1901003949587183 7.5553417396594815 1.3863156846369027 1.1653067422165606 -1.882198180706526
Ni 7.374588283665422 3.5909097787380007 7.158562741605518 -0.5501240310220074 0.34897403230912155 0.9318845137335305
Ni 2.64818027114339 8.292302845118238 6.081723130515666 -1.0058104144887194 0.5375515936736356 -0.5475752964582247
Ni 7.898632545225846 4.160908308771491 12.86533400158521 -0.9477325365093806 0.5525449817586742 0.003948443124786749
Ni 4.127484513503693 0.7068530095618677 5.055323734106581 -0.025383473070111125 0.2123885477411826 -0.14790965133150655
Ni 3.091034058374523 3.1587832541774574 4.931255489277675 -0.5008588662382923 -0.29288747372819884 0.08953841048146516
Ni 1.9268868572180937 6.354385123455859 11.998780019021657 0.7065962272115445 -0.022077805735645845 -1.3268746077614504
Ni 4.372969547671225 5.312994239463817 1.8325209859157743 -2.007742062748323 -0.026825861943592506 -0.387416652556036
Ni 4.785849559790196 3.287924408643209 3.002054818541869 -0.9675128044601015 -1.5245273919543552 -0.11440509181615782
Ni 6.600955763965697 8.887757923873444 5.533231566129721 -0.639597392593492 0.43089657811654175 -0.9897101664927471
Ni 8.603329062189097 5.770834914251031 8.39015829680731 -0.383981658732558 -0.21647788731920783 0.5800678697692913
Ni 6.2415556642859515 1.5611663206132245 4.075002806896165 -0.20573067610503282 -0.6394642094497375 -0.7862515742513427
Ni 0.30816316034436975 8.415059162282626 11.739520664382079 0.14794384700355168 -0.5896102620420878 1.0393877362235326
Ni 2.10530349956007 4.88386693242524 3.2362550667816605 1.5092051597749878 2.0652774379606305 -0.3732269913192153
Ni -0.06358709148717588 3.0381705495364373 8.886619877224772 0.8714839011582862 1.0719006212495734 0.2961615164937803
Ni 2.150724164915731 3.2006434987325023 1.4172268796932335 0.157591911616277 -0.8286958594584825 1.586552170396584
Ni 0.6715671234154018 3.588342963742208 4.187531424308499 -1.566459770522083 -1.3363329249608726 0.859820348777429
Ni 0.31441643687713106 0.5572270154200143 9.863602104929909 0.7882886592860294 1.6711376077481477 1.1874521679653487
P 5.387404274180566 3.6617501926003846 10.011557369311058 -0.49922750128245635 -0.2698802141997481 0.9363795733904067
Ni 6.694860712575223 3.845456865847669 4.458734288724202 1.596072451182193 -0.3681863435715143 1.2875513846817956
P 5.8148295712756966 7.7941475348057025 10.649647337146922 1.3943359838382179 -0.3613698348703131 1.401826121567676
Ni 8.065135117963694 6.740897781532024 10.543541277256317 0.09153795740999719 0.4441071632695448 0.013831249456137472
P 3.9794096484238133 0.1290445539013937 7.538227799676779 0.2789749774121647 0.7676509284310199 -0.9191202720893269
P 5.933924267048237 5.167449389164737 0.24419150661051234 0.18360170541647736 0.09364806177446452 0.07670243505906144
P 1.1754632672669136 6.771313159224108 9.67876474507695 0.0853883928688336 -0.13677831730503542 0.190319226645969
Ni -0.09512211572043486 6.2255659708712985 -0.6470581802297666 -0.2571349987189378 -0.12300671744223976 1.2268023876281968
Ni 7.713067461121392 6.897629897189113 1.6557759933398757 0.7380282204685806 0.20457805055782832 0.20084686565017024
Ni 0.3669285036620293 1.2733978394182228 2.98863010011226 -0.6668382305873162 0.8752166287278411 -0.41959863660521934
Ni 0.8933325790089078 6.910758373888024 6.896273809266604 -0.04362647844069906 -0.4690322086459987 -0.5676422424114289
Ni 4.5356724982109995 5.009466066197873 4.643679289206014 1.2242582810501046 -0.7608573025479541 -0.49576191133135905
Ni 6.29906520026696 2.50100701133085 11.810200077303866 -0.544530853204946 0.2369397547179855 -0.5528784538386929
Ni 8.46635866198349 5.672219538122344 3.7173267972888624 1.8445374329309585 -0.5271082868531244 0.022460900106677447
Ni -0.14376831992027153 2.588711123713981 0.808592723943499 -0.15649970699336274 -1.1215113422981653 0.01786968119156922
Ni 9.406962957162229 4.855604367310273 1.3728587004863848 -0.23718863750399796 0.5094985441911614 0.8242517076442
Ni 0.378553691578459 4.697078241172256 10.891737551481308 -0.3164585761799195 0.4809793537055459 -0.45366986725731545
Ni 0.7641629043765366 1.314420879082167 7.689334082466744 -1.0280717969900812 -2.2285820836909687 -0.10147938489342521
Ni 2.5363260176708096 8.446909748359454 10.927124638219006 -0.4649500681568251 0.07854720157728408 -1.201815378665556
Ni 8.751587928343945 8.255778631737241 8.476806243020128 0.5063605127828118 -0.9928836791247222 -0.6264135469133664
Ni 0.8080462407508463 7.03380909277236 2.5083256540876717 0.16872993051096746 -0.37482158949984473 -1.8262304070916549
Ni 6.093885601571 6.390633335224402 8.964085249791351 0.5951427618245427 -1.232351342470884 -0.8596336866879196
Ni 1.3573299297645254 4.634076273103474 7.8368863844937176 0.46376916047484645 0.07376237859413103 -1.2361668595622324
Ni 2.9506872384432667 5.906011303975708 5.775995224398488 -2.2788556351345397 0.008821197836055774 0.1732087922179275
Ni 8.788415743498636 4.927493587299971 6.103832699683729 0.8931708992134165 0.2136044224261547 -1.0950189524345917
Ni 3.7642755915721264 6.141376279020043 10.494177468864109 1.049734369565179 -0.17442312424100284 0.09730339913886468
Ni 9.135423370779337 8.925266543005513 6.1857959785278815 -0.6658447563257952 -0.23314146401781782 -0.8184638973178292
Ni 1.4818986575173412 1.213965492203807 5.152286780582063 0.6118125091707399 1.0827159666975226 0.5437793197509022
Ni 8.349665180239272 8.452641381844684 3.853433312447499 0.2909180087066538 -0.7638284693611361 0.5594275678111204
Ni 7.367108639968004 1.7835684199261173 9.487801069432958 -1.1429083199167027 0.15806756570111488 -0.11224819337415506
Ni 4.491457039896374 4.371092736706559 8.174660837832564 -0.29816800540084776 -0.2247668668008774 -0.08277255251254131
Ni 5.2785032379612105 2.9225626741345256 6.126481392001445 -0.3185146873779998 -0.2780771481882437 0.13059584264340732
P 5.958074408137686 8.30313130838006 3.2594014820071635 0.5532998576468278 0.6063041777580009 0.7314749927310951
Ni 7.41519732091069 0.3357881617345751 2.0210061670799573 -0.6582587164484212 0.31132305472556704 -0.6625848546276009
P 1.5418646078491618 2.5365192187995254 10.638026749257365 0.4814722341815643 0.920406337890602 -0.4805183549087273
Ni 7.410726094788986 4.371442338748997 9.895380010582123 -0.6009172024144748 -0.6214276636630007 0.29938285164455536
P 3.955075506259397 0.5815243573694372 13.19544665016242 -0.4498885458380123 0.3533253672992818 -0.0715273186160252
P 1.111173291673363 2.958120881871943 6.606287195112872 -0.23966872361337432 1.7104443757675702 -2.7658014908361657
P 2.8300561336947503 1.835824725216811 3.1363434030798287 0.5079173157469704 0.25621300112530065 0.8625611447473597
Ni 8.63576845170582 2.410515282661965 11.271846972148616 1.0006296416187284 -0.01028389842451132 1.5456042672293122
