# total energy = -340896.0533523572 ev
CRYSTAL
PRIMVEC
9.03408046579329 0.00000000000000 0.00000000000000
0.00000000000000 9.03408046579329 0.00000000000000
0.00000000000000 0.00000000000000 13.22228994054291
PRIMCOORD
 96 1
Ni 6.369767541477787 2.065868356513757 11.275717725407427 0.24607179892624073 -0.8836141087629169 1.291875465978446
Ni 4.497761518242388 0.12751243251273237 5.841739991247728 1.336929420894291 1.4453965499594592 -0.16629226760375232
Ni 2.804657390990556 1.6383485653896706 4.728793672297134 -0.9388367766816477 0.6171683741660146 1.1434909318930502
Ni 3.324993325089705 4.48759817768886 4.954246378240005 -0.2897849235434751 -0.7387239609840245 -0.1948065729933613
Ni 5.044476967378249 4.4938316932283575 2.6048443088921007 0.35872236994513707 0.8155405530234471 0.25278623483193885
Ni 7.334670576589473 6.091879225543106 2.7534097625834475 -0.6358736638850017 0.6980709633493526 -1.0933791028383235
Ni 5.15709581479183 4.372856321359655 11.762205670127106 -0.2769368639362134 0.3669714973278067 -0.319700737266301
Ni 5.473487381783521 7.7522890154943 12.623121921735343 0.7547715013651904 0.9657737102818077 -0.38020547951957745
Ni 1.8011517299364481 6.400727335323956 0.5256009962099009 0.3192150558791341 0.18353382829301942 -0.7494482893800641
Ni 2.7057703459248534 1.5149068895466444 0.3076402532190661 0.8295522939215068 0.22732280045351175 1.4772892849029977
Ni 0.5753932342497444 -0.0018646342135539061 4.659363150083728 -0.11257163815184483 0.5609398906905888 0.137377384341615
Ni 8.574534885556425 2.3242611267466486 1.3949776641989176 0.4779593359322994 0.4729989066032305 -0.02026029291093285
Ni 6.797413809728761 0.6808299876721651 4.725540499911956 -0.9058266403042142 -0.18976129725996996 -0.3192831901129082
Ni 0.7972819954385116 7.242712671261153 2.706523788237888 0.16835326389783908 0.9424849149571962 -0.4899201078386014
Ni 7.53602216259572 3.8885663684236844 3.6908175737176565 0.22714693699727978 -1.1608597621888008 0.5064487016212439
Ni 7.79422521713828 3.784042057130958 12.51071898884552 -0.7657670811447457 0.549127471436693 -0.025494030506046417
Ni 7.783781820089499 8.854726892016572 6.7904521473016075 -0.005757728419383632 0.8794995723739112 0.18338419008903256
Ni 6.918886056024527 0.5920891184070554 0.3454623346069768 -0.18611598719789882 0.2320474596226907 -0.48203196333977627
Ni 2.0301295340873073 6.560476980664428 9.360045474113827 -0.3070074580693487 -0.04164801455808956 -0.8040145546617186
Ni 8.946314400044718 4.95166985848368 1.3760042883495671 0.37323778995249274 -1.0151921128139354 -0.16996483135933307
Ni 6.308182214763654 1.831325558779811 6.932049614709456 0.7109311071414725 1.0149627704119486 -0.40546399697605007
Ni 3.4006537492104125 4.230506315046821 0.4848807818001486 0.0020573967496609726 -0.05771432399233286 0.05932794833635589
Ni 6.151540293112437 5.616867273272446 4.77910446655722 -1.0670630906516139 -0.2607366000272671 0.462466639613339
Ni 5.276472154413445 2.745755186182555 9.27678467807518 -0.17843173117976366 0.35656701416503106 -0.7741200810951313
P 0.15019520181210808 5.592339744736598 12.451206080196261 0.6693561119131634 -0.4822484502259565 -0.5003736990717577
P 4.038477900108343 6.093695075722002 12.753467441890374 -0.5614230009745943 -0.520133141086872 -0.3497695316272234
P 2.3661702261491513 8.386960272300515 1.469339890952921 0.17389990474768113 0.3511419864947178 -0.3187751401282381
P 6.245115298848829 7.655786967678493 5.727988270140448 -0.1583447306219015 0.5111551059579778 -0.08491839521095053
P 4.834416527777691 1.070357856695091 12.627075235358653 0.3355356474160286 -1.1316636002408187 0.2991910473487234
P 4.024285359655372 6.325021740800788 8.215880986614993 -1.4825261078219047 -1.5629954661225662 -0.43499491655563155
P 4.769054955417892 1.2033124192962192 3.7243096203257395 0.36877846862955843 -1.147307991646295 0.7818519025217503
P 0.09415047666373423 5.491501338284618 3.6922323107227077 1.499859714004346 -0.4458642551699676 1.0922799562368737
Ni 1.3612642826187797 1.0227030820996605 2.5795633380432186 0.2366834157328053 0.8396577577866249 -0.2782242152890692
Ni 1.8354541335646661 6.616135950575794 4.992300635496561 -0.0861016168857743 -0.19008911291303393 -1.2116141099235327
Ni 5.878367767194593 5.59770598854886 9.098151997690277 1.234274784745842 0.11094721517454442 0.7714543613375101
Ni 8.576648860391558 2.2865528747729376 10.179682301729853 0.3852795516083752 0.6390911423810349 -0.10887362047496735
Ni 2.306445920016376 5.237182938353629 7.041332176197331 0.5764449283047234 0.7941024377543291 1.2385289320365058
Ni 0.7826765975070553 -0.033674535034022214 8.922612586465842 0.31329149130584755 0.09028788705297998 1.4806936825988564
Ni 1.4868741377798917 1.2003221386533591 11.504542853597972 -0.08402262286955851 -1.708224742408432 -2.1254962735423715
Ni 3.9828821687604226 6.781540930304275 1.6255743755739473 0.332565251933795 0.35285588386203104 0.36999177221136925
Ni 5.6139673334345055 7.734537047327472 7.951951228448539 -0.32073406362682183 1.194798838138407 -0.5829338784631768
Ni 5.198489971606287 3.1360364975185155 4.956084813620132 0.05866460372074412 -1.5420756852507636 -1.3573182689632883
Ni 0.761361587994172 7.733181935253668 6.914808072090427 0.12555982288139667 -1.5171627240591679 0.18880793220776515
Ni 4.966820011468805 4.4963793039271085 6.895939491574784 0.10229673858839801 0.6583841862826918 1.092218763981635
Ni 8.007736675486791 7.514015142517148 8.772116549773349 -0.2230455132343965 -0.4458472858891031 1.4047186126241227
Ni 4.515694168019057 0.4005431233668516 10.41814679380539 1.1935148292196605 -0.9162745751104155 -0.0437005262117441
Ni 8.185762265662632 7.2171371893882315 4.893265431510788 0.31449579602659383 -0.5304635764786025 -0.6289437695343878
Ni 7.310847706332003 6.121935611340072 6.950217150578918 -1.2551829956534188 -0.3446730909409225 0.5182060992674883
Ni 2.2150932980810216 5.146544008777145 2.641602175598051 0.028168492014416006 -0.5441197338094564 0.17776632968162287
Ni 2.4342420226565578 5.112512627563688 11.408799668543494 -0.37968457401910094 -0.09756179500657391 0.6680165671661334
Ni 0.9215575169109516 3.290573478415091 3.784113426366845 0.4803702593666373 0.12440976843735348 -0.15178713200904184
Ni 3.624238207307532 2.6964110385351154 2.7940947440792807 -1.134483071967485 0.6478943424949616 -1.4743014059192674
Ni 0.9581636110646359 3.3198258310482673 8.075143563669986 0.40856191917508344 0.24049147662498582 0.5642522428932734
Ni 3.6212750289061484 2.5073548360785143 6.979267139809072 -0.1481032553995514 0.397423900280393 -0.08385035895775238
Ni 4.139325340640815 6.850904600322041 5.9352481447884795 0.013719149358305406 -0.8757807287614272 0.011225950622806473
Ni 1.0415481740060242 7.421768146613084 11.537783752768377 -0.3913054460874809 0.14075067168922212 -0.04293562302126154
P 0.18946905993508723 5.829312710122899 8.098229252959305 0.8918233840465867 -0.4988135536734893 1.0106595150509046
P 8.559330528088346 1.5985805430637774 8.059025860664164 -0.9940550737250041 -0.4592486468966736 -0.424028904462431
P 1.8293199929105814 3.206104825814659 10.181877583289417 0.39978263032055666 0.2262884456517264 0.6768346796783956
P 3.917258608066355 6.122134361110897 3.8021219624196476 -0.07935092842550205 0.5283519294522385 -0.8375114008675835
P 6.815626516000683 4.016597357156659 10.389242253271156 0.7769616643089845 0.35497884374230476 -0.4156424801709487
P 6.2027815976632015 7.729414723688494 10.138072230391638 0.8261651226168288 -0.05505863153704066 1.1572381062758135
P 2.42269646778775 8.623851930962386 5.755755419940735 -0.33950851602084753 -0.4154226508506587 -1.2454441710991002
P 6.910150100188738 3.9069145859029866 1.5504858087483855 0.5775021659246442 0.9409656500991923 -0.2342246697796676
Ni 5.383327258473113 2.83010639573659 0.5531323565093462 -1.0012402786195338 0.1664331640569908 -1.3592964757355814
Ni 1.3933894728484197 1.128808357478491 6.876555968471095 0.286631465516158 1.0187754592898197 -0.062039176619931864
Ni 6.742811827234965 0.6268920100945315 9.151041118522786 0.2753060132010097 0.4811359338880682 -0.11912512299964646
Ni 2.7732278249588025 1.5000367930567715 9.094714530063062 -0.18823509042343065 0.2326501262036961 0.22447838902618114
Ni 6.3319689486991555 1.9513162158748834 2.454757516045897 0.8065370639732562 -0.4249370180989972 1.4560625143137376
Ni 4.145902151239009 6.8292679775436405 10.671697296894555 0.43191010698272064 0.12807256200092137 -0.6157036166950299
Ni 8.182979768871087 7.248087949153908 0.1847839857919232 0.4794786007903032 0.6640223584050758 1.0214164964570924
Ni 7.60384100484935 3.801504934722042 8.16349506406589 -0.3909634893670299 0.11540447961494964 0.23895292849327232
Ni 3.2183279367203688 8.460723539517897 12.468090776635854 -0.7371039088820983 -0.4659425139770815 0.5157830916482923
Ni 0.16206327335448098 4.80987093108086 10.33997579871595 -0.5401154977460698 0.06480619784210774 -0.6661625446765302
Ni 8.585818452090964 2.3257878863498007 5.719579348018471 -0.25731780415370525 0.5560010586280747 0.37300099135133824
Ni 3.663789411701617 2.399641494372103 11.435271331201225 -0.3457485833932884 1.8864860094486025 -0.6111823317859088
Ni 1.1249688732693806 3.154791248619959 12.558980853650016 -0.14303406840676014 1.9187831789194116 0.05959174352070382
Ni 3.069012654348184 8.347119977330685 7.763665633057907 0.5388394592471236 0.07511632151886419 1.525825284830172
Ni 5.579827543255144 7.578653988437585 3.5141010218051116 -0.4848797172012165 1.2149290332293785 0.18158724608960986
Ni 3.1896899015606506 8.632687261683587 3.5321231089786513 0.040237250253492 -1.1233414535283686 0.13233622237328177
Ni 3.7469661907916882 4.483243750891705 9.446599192491817 -1.166760186833636 -0.18382899093593505 -0.2924791825461866
Ni 7.125504510957624 6.246687228854442 11.589416233004444 -0.0030315877374721984 -0.9795797629269647 -1.9921385518831112
Ni 0.581388250064252 0.15766457956291416 0.3648015907162542 -0.041814107822308634 -0.861210544256736 0.18954378193252516
Ni 4.725881084746506 0.22887481563324993 1.5472461874839454 -0.5389016799436267 -0.08139881209346628 -0.00985735241005399
Ni 6.091707578013757 5.714010740803188 0.5483325495439335 0.00892069952839754 -0.7780330429962923 0.2321212502834196
Ni 8.218628250492618 8.924488061575987 11.015225434868189 -0.4756985649225808 -0.3238677241597971 0.4535757648816124
Ni 0.07740671187981556 4.991844414431713 6.107349184977649 0.16324705301952533 -1.1986254109733485 -1.5470744240169358
Ni 8.013825645738416 8.810694783698443 2.5272822108278223 0.23397681543491966 -0.1917806416828439 0.12459977296097254
P 8.368133248555136 1.6286278947802517 3.5672150912418723 0.6107740406038966 0.4581430725373207 0.240781754171895
P 1.723594148912416 3.146814155545501 1.4271480248310175 -0.03624355571306661 0.22223175908384954 1.6876289205349517
P 4.793103677687661 0.9584617357208726 8.107406071923105 -1.118395679487319 -0.6580437722241377 0.01010752074764711
P 8.48278476407942 1.6123665498946071 12.427630743744272 -0.2819134912151983 0.049144580045450845 -0.8472687373646633
P 6.472042366727999 7.734184718188283 1.4561709118196964 -0.8952208397639098 -0.23751208228168771 0.032373274124382956
P 1.7141173984762819 3.412253508562172 5.9790399465655195 0.16615342803304287 -1.5165960529224205 -0.44390738855391293
P 6.890374497991696 3.934197508988901 5.9666244097453305 0.8117574318319309 0.06517566536638453 0.7310484467166377
P 2.542443204709538 8.538335325024882 10.32794421031667 -1.0278100586882621 0.014282735171259274 -0.5529167632757962
