# total energy = -381173.24507353536 ev
CRYSTAL
PRIMVEC
9.21271514082464 0.00000000000000 0.00000000000000
0.00000000000000 9.21271514082464 0.00000000000000
0.00000000000000 0.00000000000000 13.48373984410966
PRIMCOORD
 96 1
Ni 2.690103521221762 8.27907068199064 7.023477146312446 -0.02406629692058436 -0.7695106073475779 0.7657413701131328
Ni 5.55038431100954 3.0753516177800733 5.091015317187918 -0.9582288080550142 0.5490950755368608 0.775219227696581
Ni 3.9207379698493354 1.7625673909041684 6.653119560753661 0.9891946603089092 -0.2108559131467401 -1.4756553488440005
Ni 6.633053346555759 0.11962341714066176 2.553213633923758 -0.5568106990135637 1.9731396421831053 -0.9804068868139503
Ni 7.839412291574008 5.9594564881499075 0.17770866294955523 0.020268006220416707 0.015086204909161115 -0.4302885122188977
Ni 7.565343237731954 0.5267793495938405 9.332527120043572 0.40848375763898037 0.5693761943834 0.30882008579805525
Ni 8.19852391612486 4.598185743059247 9.243305661882331 0.24647777611540775 3.7021450687823148 1.0917636787220875
Ni 4.2873395315669365 6.144346462318995 7.386648814294277 0.8557685473055583 -0.07793193659078836 0.7935049133796462
Ni 5.4203929045854125 7.4365218460927895 1.3669817070213697 0.5244199413876839 0.16943441277715982 0.10604746388008188
Ni 6.526434597686416 7.570622123336562 3.945517408960532 -0.18053412223474713 -0.667805993817224 -0.5505459490507745
Ni 5.960073740044337 0.5100674848700015 4.855089666607225 -0.09270343847300809 0.26971129272205163 0.2706980821153531
Ni 6.291289264052861 5.617462087775953 5.172618781446103 -1.133653634087654 0.3025260252592274 -1.027715699202243
Ni 2.166977934334357 4.821428249116616 11.54868805383476 -0.6117618584384625 0.11408550369320998 -0.4421492682122256
Ni 4.852484310849836 8.54496805776762 6.367480258341225 0.10757521337851796 -0.838430313137427 0.0511667526818022
Ni 0.007396888746841436 2.9690276757856817 2.8335270658858884 0.2824372249291523 0.8993148073276254 -0.33660702610333637
Ni 6.4707068856056535 4.744584994617421 7.193669155222211 -1.3262346601846062 -1.1778881784259974 1.7050345176059087
Ni 4.773089134339338 3.2193832016237884 8.205152464453857 0.5135737427017995 0.2317651524955815 0.6100942409280524
Ni 8.648776928610078 9.06454674944076 3.880296915506317 -0.07514923163932863 0.2772813917598257 0.4219265134074475
Ni 4.850181132139275 2.9417856779971525 0.7002123915851083 -0.2174291954888836 -0.13981658991072696 0.6726586939238351
Ni 6.387875366458996 5.382012734552604 11.22754571223475 -0.08070204313675779 0.2517937890116825 0.12725417986468407
Ni 4.171250111839761 1.9340528649777846 3.416631111482269 0.374328194803194 -0.2514140370747605 0.20191901566842643
Ni 1.7254770009492753 0.8498775505548586 12.498644246992447 0.2850718343385219 0.02386755064621696 -0.7603546518799227
Ni 4.917424737772848 4.1357074579783655 2.9867833411011477 0.26482516827434394 0.6546514587131371 -0.3094168388417897
Ni 0.3351668574043637 1.9181425064452213 4.839718251892934 0.5597078180557006 -0.45031792006594695 0.7837756019070243
P 4.431868602012132 8.693265128583297 12.852511994255092 1.4572189965156839 0.21451587849683054 -0.3786720735941866
Ni 2.5628206529612547 3.7954174098502276 7.439787753504367 0.5265992084271898 0.36065044020578535 -0.5398661007394251
P 0.8420273962377786 5.174588459879376 7.934938010501799 0.16532810391827013 1.3643677196109019 0.060769822989205025
Ni 4.237894891008588 8.524681659684989 3.4288471713630906 -0.15305699986040092 -0.7049304094733473 0.7405049641438473
P 7.262576577156294 7.928591371246974 5.908830777548783 0.34959443950193986 -0.0677349414531285 0.4638475791212657
P 8.570256960009592 2.4893031885201107 10.373310547559507 -0.3056373171946994 0.054564722619757644 0.30307778399763935
P 4.776470200686443 1.314903151289622 9.591307673604916 -0.1016418786132185 0.8934161824550032 -0.25919290968923103
Ni 3.4655008786344617 6.221235780392402 12.837706240232114 0.5612929031546333 0.6755419290089011 0.800174612090338
Ni 5.528808132848995 5.239206441782908 0.38245388014665754 0.329928071421264 -0.7208509373583456 -0.46822385381209036
Ni 2.133858224476473 6.150924340716361 6.400326350568296 -0.9984655440878739 -0.0233903538994823 -0.02635226474128365
Ni 0.28773795885349923 8.47683081879435 6.278487275508072 1.2001469898241974 -2.6955427545199186 -1.8010726768791046
Ni 6.568232684925698 7.630173112076856 12.61703131780128 -0.35174285330351035 0.48269530795538806 0.13547091134752154
Ni 1.6285592408088196 7.928167586364231 4.337543299828286 1.0758572919044764 -0.056121782694232375 1.655378288031362
Ni 0.07402139994301518 8.689570829931554 0.03623729256050082 0.5089537274312848 -0.6909502931441712 -0.13979473553385602
Ni 1.659182304944454 7.0460777783634505 2.1677131089787687 -1.9734273486268528 0.5535317711519757 0.8531678764579178
Ni 8.032298902226167 7.643153827289585 1.8957325775914513 0.5838769591027363 -0.6388389171609126 -0.029828653325658303
Ni 5.982608040548478 1.1065944559915382 7.693781380433679 -0.6582219496732148 0.28343661272794407 -0.4242232798614242
Ni 2.662981288726182 1.751770089109053 8.772844559390641 3.2589622170992523 0.8584129269069409 0.7853789418384023
Ni 2.6586697381800093 8.282866320505647 0.46735549631836837 0.04312896997899024 0.5010424430040081 0.5669997237314235
Ni 8.270576558906086 0.7968141556064748 6.9588094157487665 -1.5602970933547968 1.7471394171957588 -0.060312166626496126
Ni -0.19888961564336907 7.637137924497597 8.414797003404068 0.9274678727230737 0.05484522997465393 0.24879691116688762
Ni 6.873219609778339 3.314955905397276 12.598532186398044 -0.098669683358772 0.5157440108802408 0.6213232768746526
Ni 1.1752752451405017 6.187038182897975 0.10478541861573608 -0.8450349629381383 -0.9500426726997963 -0.48835841977843636
Ni 0.3460793181350072 0.07123455370323496 10.538392263546276 0.28395726111810454 -0.7597386155624787 0.2900057813050296
Ni 0.5193529801595039 1.7317047961826353 8.669410646042262 -2.748444744725273 0.013636359836512 0.585277696105005
Ni 2.7328873689491644 6.756780106887159 9.502099113244455 -0.7005829311379289 0.19078999563480042 -0.2577847164877947
Ni 6.4097832023538635 1.1697476162351526 -0.022129862322565468 -1.1970135864015385 -1.269805373552284 1.1279087611840768
Ni 1.7640874888531393 1.1246421643675033 6.849362363422852 -2.057371552849992 0.24754761214081886 -1.915086446794115
Ni 2.9329322590337514 2.6634972007573476 10.938117220207697 -0.7719367002905674 0.17869552636411162 0.14413989987642917
Ni 7.315789218085122 2.0764077347202106 4.0198124265343615 0.8664661362287207 0.11858570555640867 -1.8482285086293007
Ni 6.568177408636644 7.983876873015309 8.048915875987133 1.5916280422575944 -1.2213315943216128 -1.5509544757976321
Ni 4.722907476593609 1.9479180008153687 12.098015523005001 -0.24885218988485527 0.251346931282251 -0.05727055158669492
P 2.5440451401127517 1.9755929962014838 4.9830644097523855 0.19872236310799968 1.2758448948781447 -0.5158054602457955
Ni 3.5750676962533245 5.9114858819663185 1.692748831472187 0.036274923171634305 -0.5594231969357463 -0.32663037450659876
P 5.806285891182681 6.179207375282065 9.105771805816854 -0.13080461622010375 -0.41956058427843224 0.3169797387907122
Ni 6.037386843000489 0.36997157280689486 11.043519890717864 -0.22849470927442586 -1.1485439209359252 0.4335625549844791
P 0.3205462789497151 5.21167884983427 2.6518062656225343 0.017430536771621596 -1.0488177712881808 -0.6122051166234682
P 1.1008088710706059 2.806257429952833 12.721166318749153 0.26593537061938716 1.7346484838175995 0.6760839175553001
P 0.6537618833504906 9.25297440610927 2.0920426330789907 -0.5536451568013884 -0.97684719448715 -0.7220557562997242
Ni 6.902746360847746 2.970041074418329 1.7762805169468554 -0.33467304230541717 0.385013185320866 0.3543761771612993
Ni 0.3586463824513186 6.137722520347419 10.402610665843795 1.2896668883629017 0.7898058672615043 -0.9417236113111395
Ni 2.5040435322677084 3.767290991436842 2.8742887227054177 -0.5448648395055972 -0.7675478271942523 -0.6634549159373799
Ni 8.323420691241225 5.9314406223146285 6.840840602193771 0.84940146743695 0.9784001407965666 -0.9503470913140925
Ni 2.77978008749621 4.0155091674315475 0.4307257421055878 -0.9893790084055736 0.36519177971956457 -0.7108655440108596
Ni 2.7252684537746252 5.831851174869921 3.939611137475166 -1.6764374226945065 1.006263442865738 0.32029311943466127
Ni 3.005832471580465 0.19333619113646158 10.486614042318386 0.27504607467140374 -1.0591878016685952 0.6747006640545283
Ni 1.7752809373864715 7.667235863887223 11.767933162922077 0.35588695737887094 -0.4319620432665786 -0.24170812264090633
Ni 1.3289893922834204 3.771528840264277 9.443754990148491 -0.21267239753018857 0.47868747234757564 1.505326650656188
Ni 4.555623000488059 8.389079709921932 8.827979893907045 -1.1461674502839485 0.25394477391641423 0.5441801547337466
Ni 9.008699272067048 4.38560234807436 11.688797784970127 -0.6686331177042099 -1.4363462668317328 0.4769110971734431
Ni 6.438195214927358 3.180266014403601 10.180317990686662 -1.2480582116831795 -1.0080740137119155 1.1672538386406026
Ni 8.394432297245277 1.2983294772884169 1.175582949816233 0.4479314221116415 0.6221629991671285 0.548849535184958
Ni 8.967306544280824 6.62998551251329 4.14410576882856 -1.0436863635988864 -0.5102950719505276 0.3560695057033223
Ni 3.833309305996396 4.581916088647836 5.532647992395243 1.4107550486261897 0.02700146828950834 0.39520915201726126
Ni 9.509824895911162 3.3847330076124673 6.78125552640856 -1.2111461691481789 -0.1467138312511925 0.48391992439110854
Ni 4.586246064623693 7.2220590572800845 11.098505979253824 0.39535210535302884 0.7044113037450837 -0.6254982341879486
Ni 2.737972787542086 1.7394526893649667 0.9640562532237514 -1.0746560725075234 0.1016699036376765 0.6100430759751428
Ni 7.552970561698813 7.422785688262997 10.194596777420662 -1.1441607042665651 0.1060870588687657 0.8138199707879146
Ni 8.857767364806488 3.960610599686588 0.648265577675605 0.9667378739672899 -0.5232693727230084 0.3023200798960084
Ni 2.1863706990772904 0.6099241010451346 3.331130668845812 0.7452843878103615 1.089303390107053 -0.6081862252720623
Ni 1.6590072633624513 4.184663824650075 5.08413802555818 -1.4043810267790457 -1.4889201842737068 -0.4356703453561013
Ni 4.281286777915579 4.685863150212928 10.047327845581382 -0.25087821917594855 1.0203623441609653 -1.8667697619665982
Ni 4.545857522755275 0.47765623278348657 1.4910456527159952 0.2392915427796137 0.4794588032959614 -1.2453863212779712
Ni 8.268043062324468 4.351377112435406 4.866577922015509 0.3280668498428092 -0.6997300962193305 -0.5477269915447406
P 1.5077068475082018 8.992180874354895 8.752767289934928 1.0785224974414651 -0.9273652857069383 -0.13270286168408113
Ni 8.216774304227355 1.1639343931696937 12.171946638342565 0.9273020365691707 0.9287066302261812 -0.8148597249063385
P 8.799404816280843 7.253078268153936 12.048219878011164 -0.6796214983949134 -0.6882853447174985 -0.094424792039489
Ni 7.614704963856721 2.887550425720835 8.301546942391274 -1.0254274173886986 -3.293582378276283 -2.9428301710208156
P 4.31660832662076 4.370373730440123 12.05405889667818 1.1608160534350587 -1.2603442281393844 2.0557849250891627
P 7.312196259296645 2.6415340885734273 6.085104099525916 1.1727464863240578 0.041504289891373676 1.2352176082750856
P 4.603427777804487 6.351264037675899 3.500473265447121 3.384773236759506 0.13466024252076808 0.5496434918411631
Ni 6.9208954090869765 5.346119997527204 2.6630789435035096 0.8869747977050337 0.6911580382796032 -0.331179684440178
