# total energy = -340892.2144735886 ev
CRYSTAL
PRIMVEC
9.04938144235343 0.00000000000000 0.00000000000000

0.00000000000000 9.04938144235343 0.00000000000000

0.00000000000000 0.00000000000000 13.24468446638159

PRIMCOORD
 96 1
Ni 6.673747029364289 1.8313052659504345 11.192182017331092 -0.5542272545571035 0.5182338671816301 1.2469770628038588
Ni 4.6689470184008 0.25997606569904164 6.016623465962118 -0.5428904893880457 -0.3515705893917042 0.018696033747606512
Ni 2.987834339712084 1.8417120548490895 4.831661235053013 0.0034553055384521137 -1.0534336727936373 -0.14894092080949833
Ni 3.4707817396628804 4.201899382010819 5.0482509453644795 0.47131663380480115 1.1885824249150496 -0.38732640683507485
Ni 5.112230978575245 4.558951784432843 2.574051363719913 0.5543231567050195 0.623951458526119 0.387174711748559
Ni 7.268752922299471 6.114486193950572 2.3856595266329754 -0.3787296663049994 0.01397343146095658 0.2735193536142322
Ni 5.198317746221249 4.543287304794955 11.580410444478991 -0.26510978939429825 -0.49100614181392854 0.3678276746805149
Ni 5.6709488510899 7.716253894323284 12.313517140913818 -1.3741916476798592 0.4088393412061862 0.8389455622109487
Ni 1.884886654706031 6.857440427498025 0.24048369762277838 -0.7951301076878952 -0.18130853850692644 -0.12774680323038645
Ni 2.970079452912813 1.6645975571756337 0.4118319293082143 -0.0682285932600954 0.5158723089279891 0.4835252600558511
Ni 0.2730524221847428 -0.09921199079262034 4.694564912916628 0.6255424571623227 -0.24296436364551055 0.21634316151355645
Ni 8.775583559771496 2.304216901650267 1.3743476901013223 0.29072311908702836 0.368247792937069 -0.14431010690570634
Ni 6.977960092326099 0.6721934986655886 4.862468045007526 -1.1956673567862892 -0.06006302673016753 0.08132502143273737
Ni 1.0848941686122995 7.557663480889434 2.4685971094644295 -1.0088533150801013 -0.017109148876460856 0.36820922638964976
Ni 7.750858729756724 3.964371212435258 3.6509105863642857 -0.4135490879770298 0.3144225195864972 0.44244571640672187
Ni 7.599109648851034 3.660194347000051 12.44863979291212 1.3729019823341582 0.3808508264130602 0.6060498956553498
Ni 7.646863235823383 8.53610977314097 7.154606736968199 0.6916434625564541 1.3215385402605175 -0.22448533100471663
Ni 7.064291193276681 0.7079566549503575 0.6550910722833557 -0.23078067709512512 -0.17664275760014095 -2.293991205224398
Ni 1.8637111016426808 6.336938093695561 9.34122420924917 -0.37406722783232355 0.6366622212245682 -1.9712714786261147
Ni 9.187837190264649 4.771395068071819 1.5514296100008345 -0.47881705594690444 0.19143148587354128 -1.2019138519166332
Ni 6.207450491651341 1.9292557729409048 6.964187838391436 0.9199862196340478 -0.0842337104391001 0.44609539734416725
Ni 3.6092553776865475 4.312853850433782 0.5837095498202338 -0.27687438612939413 -0.15894971119575205 -0.5148253557207133
Ni 5.89721054050996 5.522946214187725 4.747397917809687 0.02784658989862301 0.17413850312104848 0.44998676197877335
Ni 5.393892982462753 2.6568622552082535 9.233306713308282 -0.4571434276282127 0.605558557841228 0.5221465719724749
P 0.2664563278993258 5.604589735443087 12.54919290206542 -0.5178584861200823 -0.32916162556888473 0.6296688206258704
P 3.8270377964996167 6.134720611322218 12.68832895482594 1.1549505957932171 0.32603670678665786 -0.7464375275781983
P 2.6814132276274276 8.745602958361719 1.4666902952826653 0.027909324815758387 -0.3525252399954897 -0.2549210217867545
P 6.2274315263367575 7.716317239994841 5.830310271840416 -0.36700877832364537 -0.6579720384459378 -0.3803913702781384
P 4.958463885561381 0.9670259726079685 12.29429896910158 0.6710594677575152 -0.05161926683818852 0.9586532971869425
P 3.823562833945631 5.896224157910001 8.126951936110627 0.3613191841380358 0.8783292062148939 -0.09305079451009782
P 4.817013000974532 0.934339606084541 3.8914341012663285 0.8493256198936923 1.3872250838250497 -0.27848466803930744
P 0.22246185406480337 5.659519482064682 3.5825280289803065 -0.16488356018168376 -0.5652575442293363 -1.7849282059087581
Ni 1.6429604856480824 1.1318785581443136 2.7101667328853285 -0.06055025077923121 0.4834938925972834 0.14055783895212567
Ni 1.8798913960346766 6.385822853374285 4.590978451033912 1.132097602454444 1.296176407346645 1.548159172440682
Ni 5.967089865619015 5.7355795348413725 9.463896721972018 -0.3228248847175795 -0.4547181060161717 -0.5173774327186057
Ni 9.006288495582199 2.488878583620661 10.18283118180321 -0.7642259619098709 -0.3525653492048057 0.29486259517669866
Ni 2.0130801951741577 5.297146043231867 6.941963461994735 1.9266029320741465 -0.026579293150425193 0.6464077306471061
Ni 0.31475287777073563 9.465562713133968 9.372640947526962 0.17886856160686615 -2.122110387789274 -0.5725093406957431
Ni 1.5656063712952977 0.9632614298411508 11.547789233503451 -1.294572296084319 0.9440167782206902 -1.3571732587449916
Ni 3.847055028711638 6.887321485709641 1.557389532756186 1.4389695633871926 0.19707017221655737 0.7539438632575725
Ni 5.532610953790998 7.754279396020804 8.183983854089751 -1.1489393566021309 0.6411215425475022 -0.3935417916171674
Ni 5.605223192158656 2.9645683794873516 4.786549162584591 -0.3415204042445537 -0.20985909645110953 -0.2739574695929153
Ni 0.6660489685245568 7.301882708523798 6.933208185247389 0.1843619806212696 1.2743721669873602 -0.30163796622731925
Ni 5.1668258980757535 4.298745864439866 7.183916779197637 -0.01536285560931548 1.0578384867295525 -0.367120107090529
Ni 8.208133033963621 7.212936336276077 9.114158029800336 -0.3841225551857965 0.37990337489812637 1.1277413823682771
Ni 4.470475980030974 0.3120036756251605 10.111733809923928 0.2917705865149362 -0.4985147914861479 0.5785961703197712
Ni 7.887920664242835 6.984611387839588 4.472875876044821 -0.20066226044318988 1.1232080132742979 1.2112258733461785
Ni 7.038916727127265 6.150665621791289 7.1948574816137 0.2293442017589147 -1.0897469054023747 -1.1741297398248296
Ni 2.31388164125354 5.065355181623042 2.576422301712476 0.9310553329640159 1.095733462003113 0.5481602224274171
Ni 2.212166591496252 5.427764817982463 11.436441116978667 -0.17846566974149264 -0.8818611306275521 1.0760704363565468
Ni 1.042126790929653 3.299232611704792 3.726789651507956 0.35962482715474836 0.35934843356491014 0.13685596462050623
Ni 3.9135770332281705 2.6127465196596074 2.6369771439683363 -0.8930351449665007 -0.19913656782728284 0.07778538371059507
Ni 0.7366902515686264 3.3732927511366113 7.811569221376982 -0.677553045901659 -0.3924130773293629 0.7570800948937091
Ni 3.307277511992535 3.0192266446594176 7.420493858761676 -0.05264873654396739 -0.33283521776573 -0.22291078742874512
Ni 4.131974809993508 6.766729425828357 6.034172026859745 -0.3995036656275571 0.010521725466930266 -0.06918838607020342
Ni 0.5251935332503449 7.269784551807686 11.206394071213992 0.8029794285289849 0.8079254596803506 -0.039263059265680765
P -0.027829563391333467 5.576038936334168 8.041298633845708 1.0436750507449766 -1.035649352227023 0.5216562625996177
P 8.426286477424382 1.4761441842934693 7.714260315545568 -0.05246953065362577 0.5523732320675002 0.31691777520452513
P 1.8988769987384835 3.4358782746349568 10.518783141029589 0.058909115631382424 -0.27966943237602804 -1.4244253470244306
P 3.9187713782958475 6.160113176234937 3.7968137667234276 0.6845045375188276 -0.8263839234958541 -0.40011970194500124
P 6.985995943232191 3.99592640625231 10.383991696399715 -0.5388299461654269 -0.13293580363049365 0.3298825628953093
P 6.2424173023508205 7.75081348284847 10.275902262207458 0.7879294761743979 0.09616080089398922 -0.806054982130515
P 2.1394276617854793 8.454900622204857 5.67035430671543 1.1208019749359666 -0.5694592410155096 0.4313879159306635
P 7.026908197676382 3.8597422617863466 1.3037788021104608 0.20355963659564297 0.7932979395751628 1.4554310513773256
Ni 5.389558328651922 2.6998015711422685 0.37931569115982566 -0.28884492822770896 -0.03684570807343977 -0.881310914551037
Ni 1.7593898299699036 1.099255537292443 6.935419854122895 -1.6948532061975328 0.45528580559418363 -0.9048509066545061
Ni 7.0068457185561055 0.6356837683946119 9.326562401098213 -0.5209461239064705 -0.6934175237377413 -1.1044122207240334
Ni 2.3701325975961827 1.574293777680262 9.103496048339123 0.7217821909233635 0.4402556507339386 1.7725288038031408
Ni 6.458055017712602 2.2202205411656455 2.558369690256888 0.25192774348638547 -0.9480580381695994 0.6887535426031687
Ni 3.8903382211483915 6.916605284732292 10.53115364574651 0.9515285132167031 0.5616988803438003 -0.11667563301788937
Ni 8.179165963298757 7.314434200873741 0.4535577231628299 0.47006450656525495 0.04288060141361002 -0.051970479530020174
Ni 7.275693798025792 3.875117161211403 8.232432433572898 1.491850213436308 -0.49760564940831725 0.20652206165807657
Ni 3.194603661055881 8.697568840558189 12.364893195361066 1.1387577880834387 -1.5654354430226267 0.009637523089764047
Ni 0.057175803147375255 4.759241748514521 10.263094672356793 -0.18371483395557392 1.5207872081856324 -0.21298787188807836
Ni 8.60007985203192 2.3599067963305473 5.59732308197733 0.3953922145623448 0.4409272228796664 1.1645693498299041
Ni 3.506092426865099 2.301836914276053 11.365621561116074 1.0790811981584125 1.217807126108122 -0.14964720284790356
Ni 1.2735918747990407 3.4067845126269782 12.63700538679227 -0.8042217855765182 -0.08001890102680412 0.5004575170348156
Ni 3.10367547422659 8.32680662493489 7.860256704535716 -0.5033844608736233 -0.5634850257099456 0.5009403702085051
Ni 5.608444772026414 7.873324011639766 3.592580987056407 0.30412885096997305 -0.4545610116130171 -0.17124421229238895
Ni 3.2732518369847585 8.397672332643907 3.717557472347602 -1.0019203354056938 -0.0666656196483497 0.3120020830704627
Ni 3.681677579039535 4.487787447129345 9.72324114083182 -0.22462057103100025 -0.8464675816196068 -0.5603629351411962
Ni 7.371291465787001 6.104785256820697 11.580198688948355 -0.0004602274658701752 -0.3820006237467872 -0.43453263220723226
Ni 0.9040449911314741 9.289552240021935 0.39700632734937397 -1.4688910335369734 -0.8105387289334816 0.49995409503583577
Ni 4.852468478283167 0.5307245153154387 1.6450689915727665 -0.46151044634765687 -1.2430957254715815 0.2213087330489479
Ni 6.005803120322011 5.49549943964023 0.42910810381814657 -0.7461102261457667 1.1198408965742777 -0.6475729545998008
Ni 7.87246432038292 -0.29873366237212784 11.627151405644591 -0.1998032548770043 0.2385397522152537 -0.24762191702217998
Ni 9.157431267917273 5.175341366209349 5.738021058010815 -2.0630539479467505 -1.6548807795696532 -0.509897836512109
Ni 7.6607811848026275 8.857100389683742 2.690618258642829 1.0236834381143984 -0.6857906033201028 -0.14859022233829894
P 8.644077945619102 1.6300470180320994 3.549986452563295 -1.0408188122431044 -0.39789466926922445 -0.5956086457173678
P 1.8827871981629978 3.260356468132078 1.5889646352128701 0.48904773253597705 -1.2440308356913414 -0.28489391399976094
P 4.412288456015017 1.111788930879084 8.124051609291481 -0.169288888338231 0.13454659976103925 -1.2965566735041993
P 8.697089223330686 1.6167263282418212 12.346165500034312 -0.9605631126151456 -0.027381734447062524 0.4161060500709285
P 6.063121903699473 7.698589501340524 1.219088354053207 1.556078941508391 -0.33240687197905977 1.328761283261202
P 1.6763979508485432 3.2793692189808374 5.851077697791306 0.29623273605134787 0.10011592888699532 0.4808860226607911
P 7.1170943352102904 4.036286648415789 6.058066014171057 -1.0457944110808246 0.2594775308091854 -1.1752121742557309
P 2.17511842301704 8.486691099944835 10.13610469964825 0.6011843400329323 -0.7897827273330528 -0.42635472438213023
