# total energy = -340860.6597317619 ev
CRYSTAL
PRIMVEC
9.37057847129909 0.00000000000000 0.00000000000000

0.00000000000000 9.37057847129909 0.00000000000000

0.00000000000000 0.00000000000000 13.71478878533570

PRIMCOORD
 96 1
Ni 3.344509380868224 3.6301152416855667 1.0360561330784248 -1.5078483886367773 0.2616092324402075 0.38672194048185654
Ni 1.009286264539989 2.5533795534058474 0.40632514897435745 0.16902715003641214 -0.35190020481698103 2.162133208039115
Ni 5.89868543344299 5.474779205165982 3.574156021250874 -1.7656793849814751 -0.046591731716610074 -2.5501777239871366
Ni 2.395541529861528 6.117816410680221 7.9156274818713 -2.0675351236465556 0.594237476401454 -0.9748651310601147
Ni 6.850389493359383 0.4956698663387406 7.023768621276077 2.313598180822048 -0.6615561562527704 1.4989392590726054
Ni 6.9171080119793995 0.247163999751787 1.307123541418386 1.8114617334229124 0.7582206362560555 -0.330677805103095
Ni 8.905244902228224 8.477562330832695 2.603615224518475 -0.8277306673317358 -1.345919025987411 -1.5885463180084771
Ni 3.2698820940297675 8.072481594677543 2.4939935124291126 1.955181772153104 0.08402082309734563 -0.3012042211240103
Ni 7.914531124191729 3.8825961076543476 1.8884301872257314 -0.2683802326154539 -1.4805317030996954 0.23902671915400128
Ni 0.22389216815167312 2.7053141125217106 8.295266160455496 0.5582880548900384 1.3848969499125052 0.01825149001102018
Ni 8.726669788556643 3.0873713374058833 12.723415471811196 -0.8330173696519718 1.0273724569302114 -1.0094675516253324
Ni 0.7608131949776379 0.05450396960018611 13.431646602830355 -0.19279854142439698 0.2205168332752718 -0.17252642143892222
Ni 8.417834263742249 4.055811250448028 10.077393694481643 1.162403709637153 0.6419640930534557 -0.6996421644912144
Ni 3.0524753032287846 8.549781379007479 5.548646538091505 -0.24689532326880065 0.09952894603527375 -0.28910255276446983
Ni 5.956426937900369 8.616584232833617 5.389527556471995 -1.8713183005692289 1.547872751548515 -0.06101330645857879
Ni 8.927022126564308 1.6961777772370477 10.417287064536794 -1.2118915319546355 -0.02100025640075093 1.1151961987134147
Ni 4.668187923248124 3.882202543359117 5.971926811727529 0.27144370203212603 0.5021868410210965 0.10235176019604955
Ni 5.482032032892372 6.513920132672737 10.702500298116751 0.9552576412418322 -0.79867488761636 0.2814175254153863
Ni 6.196969686913827 2.5136670419014053 3.182406807067729 2.846634917344465 0.5500142449170204 -1.1466767858201994
Ni 1.1784626880183282 7.135020814017108 12.464424864987734 0.16896801466370254 -0.40430314389872946 1.0252847211632472
Ni 4.712520129932295 3.6232184959405758 8.419508786112669 0.65836438878835 0.8831777925564468 0.27785500487510856
Ni 1.2130682342632326 1.3882324573761493 5.195518163022461 1.5200259045395756 0.11013140414146841 -1.7102703120835514
Ni 2.621419323588423 3.526158044273985 7.0941800848663386 -0.9057664764902402 -0.3004519163390181 2.2100490578837872
Ni 2.863583182675092 8.846453892983565 8.183751591517645 -1.167262580391351 -1.1964682554210297 -2.616365118447488
P 8.57250503176781 1.707965964937045 1.9617493413114697 -0.1756207440935298 0.11108502630398932 -0.0546858215786542
P 6.62691993829616 8.21099748544174 11.379366228921736 -0.9426810901284024 -1.5088462337736726 0.8867665383489697
P 4.89094531434855 9.130832208022927 0.8683396457238213 -1.4610108594579483 0.230244602085997 -0.34937126774754024
P 2.503509334853077 7.467929354889765 10.010053906509869 -0.26012107793045525 0.4859361834901889 0.07365927735736347
P 6.056898280125624 5.56587996893337 8.745413756645917 0.6100410190926138 0.29693104766995315 -0.423187125287426
P 2.5987893766126735 6.1878146317604905 13.95178023834905 -0.29585298411442595 -0.46651047066540946 -0.5568055568072411
P 0.6841852896384266 4.828209291573128 8.438256502433324 -0.4809821819190232 -0.7168646990170879 0.5989299967811169
P 8.680622766014684 5.546361054005631 11.78522753426243 -0.17292211421544412 -1.106126632311979 1.231407490500376
Ni 6.001265155821266 7.5944134229140605 2.0821659597842954 -0.9938601841053787 -0.12288330449049804 0.26171079101507827
Ni 2.335382416162019 1.0805963666043603 2.864168843828709 0.6265012215311662 0.5581533290843871 0.1336953075043375
Ni 1.3475079233982572 6.437062648161308 2.088803140506003 0.16294674817028712 2.5350149002037696 0.22477560855162576
Ni 3.060187289299609 8.35450789452398 13.281374384332919 0.34121418585804464 -0.6138447091094202 1.5515388875461924
Ni 1.0768481352212134 6.721141104690018 4.448940750838016 -0.28451699027631644 0.13813920220830403 -1.5322756684412062
Ni 8.819073062729675 7.566133017128217 11.05049921853796 -0.5804591916704389 0.3560144840956707 -0.5069184421688109
Ni 1.299736714420049 0.7327426901492501 9.445498106753808 -0.14316545177830184 0.3071465547503742 -1.6503049872735127
Ni 0.3294686015207743 5.052325416549944 0.9031335405957289 -0.4397188043938621 -1.8158788886540016 -2.8635656316615328
Ni 3.6858982952452513 2.8175267895546736 12.385523657314645 0.5873824011528336 -0.571701242972151 0.02733596881079163
Ni 5.112250265788006 0.6352971077080405 3.011054535271473 -0.898422377420343 -2.2628232642620256 0.061004307597514296
Ni 6.5365969325407765 0.7694369383324133 10.514141363477313 -1.3066066015410336 -0.3099120333106534 -1.504188680397003
Ni 2.340611198941509 3.0687707391670163 10.289767547592904 -1.604086065515289 0.512685169449259 -0.4864285497455752
Ni 2.8721572619640408 1.1132434619515705 0.2993824852660992 0.5155858880358217 0.37610765530112006 0.6375428240573084
Ni 6.511680564421307 7.959800388721687 9.09545546317094 0.811845363560047 0.43126244609639275 -0.12118380530088807
Ni 4.939653581172545 5.063888710366951 13.167582764829804 -1.6317732470179125 -0.5735683780878768 -0.13921109511624413
Ni 3.501147970369937 6.68944980834551 11.770347055671337 -1.0340773797542127 -0.9745545417982314 0.3849921022749434
Ni 2.7172241177416603 5.358790185014499 3.5616069425800974 0.8353496173295742 -0.482823091782504 1.7445613720559376
Ni 2.199368469846073 9.411621591512924 11.338536744465118 0.8832353852672594 -0.3623249996947308 0.9286469806328392
Ni 8.404321889606004 7.572523751636482 -0.1393048934703493 -0.44899740148231065 -0.5715780871307252 0.2916875398828267
Ni 7.843689551050251 6.143379348713284 1.8951507660957139 0.41712317848153324 1.1993234654816378 1.0926638219388536
Ni 3.676330934639769 5.515203880633223 9.531051488074135 0.11230964273970981 1.0903619132785545 0.11891763497453067
Ni 7.092244123356942 7.1941397935077935 4.22268719691496 2.1905503257292276 0.10836917003472303 -0.6545851242515758
Ni 8.603671575718677 8.507707481731655 5.649958421204431 -0.9969935875280378 0.10364245398301507 -0.5060414388804961
Ni 4.88101250118321 1.431740053156028 7.544409205089343 -2.259484943917412 -0.2655900714648265 0.011699290714799205
P 4.351790341618229 4.035683247920528 10.663398748327761 0.9237482577796414 -1.5691643139374396 2.4745790635152156
P 8.910473685007714 5.2779502046584765 4.024728104645436 -1.3283648191537316 -0.7670276930247242 -0.8697589480473796
P 4.864023642439097 8.54138534070923 7.5458494629983175 1.9575710983208865 -0.4588282715298033 -0.3915646132861385
P 6.4063927448687075 2.1225297264915595 8.917644051643673 0.014420803411020327 1.0064161663935183 -1.3081883442058566
P 2.581435065308703 1.489837639594806 7.837755163712884 -1.061850436102423 1.7088772883907666 -0.021040879830699244
P 4.09394013419309 1.7650421583239158 4.541364640283654 -0.34233261573320395 -0.7158527128128059 0.614439919491258
P 2.1970258252316057 3.2713439042691945 3.011534308888516 0.1542150247242441 0.17036463790091305 -0.06875849762163642
P 8.257990936407946 2.4522054177962525 6.0018245793552 -0.26842291292793125 -0.5294536471568495 0.934226531603146
Ni 6.7343067674233215 6.983039402008956 6.90786487338856 1.218134941761186 0.585097975994031 -1.1065860884469005
Ni 7.173393332802075 5.0300328103986764 13.49247196465822 1.6720464927156622 0.6144118944667999 0.39290492936411686
Ni 6.495619392944521 4.3247374816103665 11.294333851763666 -0.6031034114325161 -0.3244876171319831 0.433676197744208
Ni 4.2894666242949535 1.887262613149881 10.097732535024443 0.626708966666598 -1.1224112284046155 -0.15259034463662755
Ni 0.11802056156114915 0.9343844197527169 6.952396673393883 -0.8323064596278763 -1.686171876373451 1.8385580754190722
Ni 8.997704399872003 2.8530975053807386 4.055545126019824 -0.13937384594635352 0.6881200227842278 -1.0087800386400048
Ni 8.33161557135141 6.214745674248403 8.305086526679341 -0.36458834180761085 -0.8967393332909654 1.0865386828777222
Ni 1.959181802814014 4.242323244073422 12.618099540523223 -0.8543068751583673 1.6965509056149297 0.20420832592323543
Ni 7.0438825679358885 3.8652136846150036 7.435664579143636 0.35874602409422085 -0.3864784570124828 0.6464596669309641
Ni 0.7560829269721064 7.679029746388603 8.617317012069023 0.3780843194115166 -0.16814988963778135 -0.4465072880706052
Ni 6.0937902475142485 2.1668525625972728 5.599034949632997 0.9012457058017511 -0.35478883921868576 -0.9396764989741236
Ni 7.691839327140508 0.5677811528612596 3.692144722845266 -0.8399889158737984 0.8184600406630871 1.2270713250188674
Ni 0.29797315026603594 5.4057180419314985 6.328785614080649 -0.36235251049855655 0.3711780792099865 0.5519490000458881
Ni 4.692111010051059 6.245893477042354 6.969827823441209 0.7796734068131927 0.6293615737980968 1.254421692007362
Ni 4.007187318830153 5.7965180165168615 1.8415398126225624 1.525352973179444 0.8913233044817165 -1.1391804774431542
Ni 4.469887741922733 3.6563997142598845 3.6680061127377996 -2.8066717466879663 0.9950138380938477 -1.0277370393584815
Ni 4.656174841665138 0.6007271696612759 12.389926892131996 1.1606494459502077 -0.25016936603438206 -0.25309990941761573
Ni 7.085834647691762 5.030051551555593 5.28115400543322 1.5305139485550932 -0.7582172938219458 1.5669935315383658
Ni 1.6691998818568474 3.855271500871206 5.115246039720986 -0.49575676912503647 0.05681340944461828 -1.5066934490967279
Ni 4.990301557737318 2.1069651956730415 0.9281361180370108 1.038785069642527 -0.5026853779240698 -0.20801895791857722
Ni 5.372311929729201 7.419998846077774 13.18436921907923 1.0447942519510844 0.5325173736838378 -0.18392206487037355
Ni 1.1493670419066497 5.714553566745895 10.48402338725588 0.013973688571272708 -0.7138261693010803 -0.9152142521667013
Ni 4.270837914320712 8.784430034170938 9.810600206976313 1.9427972824458217 0.07436710205766549 2.441798783760401
Ni 7.981736912891554 0.20747772586702667 12.221097180056598 1.0039746468315611 0.4720265153876322 1.7628928233752734
P 6.909939519459131 2.173121479585586 11.971556801607896 -0.14726456154833995 1.064893850914437 0.8947798955717494
P 3.120983602334254 5.455054137512171 6.080039860685174 -2.1011422701780393 -2.1363429864488883 -3.404570216880775
P 1.2776971138871447 2.0185256761876884 11.997231249524608 -0.044984278020174136 -0.22922953055792133 -0.06024351817208979
P 8.595331760891174 8.849593036766949 9.351524323631237 -1.1183427147621965 2.409538638175115 -0.7973787945127557
P 1.4286383916864738 8.554597856334825 3.293881082518212 0.27798356003317287 0.2789567225797196 0.5132356426360902
P 1.023135979500717 7.610783823479955 6.227789519461753 0.9972206159371793 1.3950101270871074 3.7415063441887564
P 5.598077276514602 4.2979282566424075 1.5159234559058175 0.8227049319823703 -0.6364904715333941 0.06844225193279825
P 4.6155533840502825 7.254917365385523 4.353828442432816 0.16054379515574932 -0.4257255754385636 -1.6186469940485992
