# total energy = -381169.4990280355 ev
CRYSTAL
PRIMVEC
9.27802797588588 0.00000000000000 0.00000000000000
0.00000000000000 9.27802797588588 0.00000000000000
0.00000000000000 0.00000000000000 13.57933178014648
PRIMCOORD
 96 1
Ni 7.047181843173033 6.062152165406029 9.665320733234424 -0.18746221681314812 -0.02781830776384887 0.026204426309509705
Ni 8.595100202279484 4.0922598143762015 5.608644011882221 1.0935994463792458 1.101676309850109 0.05075614750694484
Ni 7.036577057157588 7.208072126894659 7.308056795744559 0.030358814797515458 -0.09110678340984954 -0.13321939630918347
Ni 4.967010851216197 8.53314153122862 13.713224151300354 0.31661309947991284 -1.0642593026542315 -1.4870368512080647
Ni 4.051390100992096 0.2950366517043916 11.495311555506873 -0.6482854072857932 -1.114798449054364 -1.1599439352427507
Ni 4.213607142719154 2.697772204471326 10.271433891466915 -1.3224206857551548 -0.1967996921639901 -0.12027003523736708
Ni 6.463937168379619 5.126444484540252 5.331598384292045 0.34795227591282657 2.1603182663175633 1.2238816144369762
Ni 0.5222518464583931 5.98896708046305 9.661517669553117 -0.3752355371088118 -1.4428167050474248 1.716903501129353
Ni 7.192160308857488 0.7283697333204271 5.644738324249572 0.1928733605263904 0.3449237734991479 0.4896750817073308
Ni 7.30509246579536 3.5399944751082186 13.393987619137448 -0.30405917407430216 -1.2100627062760128 -0.347311299894718
Ni 8.440982879005166 6.924813931748979 11.585179462614656 0.505175234225459 -0.30194572727572516 -1.2922611314526389
Ni 3.3726188498075933 5.5201019349770695 2.6916412835623102 -3.0708112017491955 -1.184491799785444 0.8988165275349682
Ni 8.013432792247771 2.3400300004612653 1.8646999250579086 -0.06833863647539844 -1.1976609901775501 0.7352586281432434
Ni 6.9860860287271 7.564348402479139 4.90412159395593 -0.3339785873415539 0.3052153991659324 -1.292487388530832
Ni 5.871117568679872 5.481273387755167 11.734756118980874 1.122546468430899 -0.6360479846793369 0.7538711010381082
Ni 1.1489445986198945 1.7149043072306551 2.44396710924343 0.3852142455880785 -0.3808701096867699 1.433463545967299
Ni 8.306971042428547 5.21568983596856 3.4329640717875156 1.0437421565374863 0.29661737308427627 0.779642039354625
Ni 0.7850724015036183 4.286736559494073 7.624890318652873 1.5042251900618933 0.2831813021840284 0.17690475301227598
Ni 6.477779986170557 1.3343381543159636 10.10485617657515 -0.12989521703195694 -0.11611847496283872 -0.08378351027555893
Ni 2.037204444242468 3.0222155659534526 5.829933330146227 0.5943431487413829 1.1483076365554032 0.6762042451832483
Ni 3.408079472861861 4.275157580537576 8.35787494310548 -0.9441247645534643 1.2911295889513572 0.07031992857148534
Ni 2.314979324834232 7.574248058365821 5.082486115631612 -1.627619886971171 -0.9376571545512496 -0.7072037788885562
Ni 2.6304322771746556 3.2863053552304473 3.591285269553169 -0.41120424189393695 -0.6788247135252309 -0.8245191023729734
Ni 2.498424494648199 6.6824718401274525 8.414338238166012 0.8720045495484466 -1.9717324774229334 0.04420677642420129
P 6.274850957535565 3.373815715420885 6.409227420612979 -0.011362476200670754 -1.5421654167510925 0.9249165670561297
Ni 4.42604615006441 2.568278767535582 7.530079078221356 0.2792230888672288 -2.8000853517197 -1.9569553191137585
P 1.769115824893158 7.057517566376187 11.75254488208447 -0.003161428447117136 -0.3054838223359707 -1.0729866552249003
Ni 6.178378022287456 8.37011730106469 11.152691609350333 -0.09872753317990093 -0.7557775740322016 0.5413982211132353
P 2.8269409104267202 5.438919189889462 6.620318330488379 -1.307719117878922 0.8592901873055716 0.1257750242159963
P 5.550218413897571 8.653514666630523 6.231324944732193 0.9305195150652038 -0.0650980180509137 -0.04317936360095144
P 8.814924519920709 0.3737078346096903 3.4312930989429122 -0.8621194292242508 0.30891187418091315 -0.5797462247638144
Ni 8.386465186418333 2.5116271285064458 7.36728958216608 -0.8114568698723768 -1.1411666546352475 -0.31776469658585277
Ni 6.903066234093509 3.1374672298938275 4.302964758286385 -0.22777608594084645 -0.6707115974997934 -0.5801704567854267
Ni 7.001877232400142 7.9842533941562825 1.9131924662550397 -0.009198121559500288 -0.09883706217457172 0.7456080896983676
Ni 0.4220407937250493 6.679836880172609 7.518346083999894 -1.5988471857138529 1.3221777165064132 -1.8762784727879818
Ni 1.217110270409456 4.60475952559327 12.405927737422374 -0.7150356162281492 1.491717801623502 0.4289170857926678
Ni 7.608140694686397 8.34716345976792 9.251395430609731 0.8722349203916978 0.512195117186718 0.6413177177187084
Ni 3.3756527649668677 1.0253148753864783 0.05457057734649036 0.751851499504918 2.3166505944951266 -0.6268179814406365
Ni 2.6871488623998623 3.3223319379933263 1.0227504284445108 0.8259152113895517 0.8186310190233128 0.5202838077321233
Ni 4.469949778607789 6.804477908459116 5.6879071329745585 0.6980311112503528 -0.2955477941691813 0.7261399536714268
Ni 0.7169985821913558 2.405941111444394 0.3344970326337756 -1.2590975002164766 -0.48581585586224074 -2.3656172542018163
Ni 3.4829067687626116 -0.1468544829480794 6.2395397107322585 2.087381211838205 0.9967873850545028 -1.5194216952966735
Ni 5.12559090596333 5.730035874759623 8.027843425352923 0.6339890452677791 1.2712192231806752 -0.7118505336319482
Ni 6.969311354084999 4.342525341918278 1.9784411260382535 -2.036076648026958 1.0687199095287465 -0.805551045910903
Ni 2.2024739571848206 2.2763085040885 8.21229062219197 -0.5480766615746754 -1.538983676589001 -0.4305525645135617
Ni 4.30753789829252 1.89695777284312 5.036831723202744 0.46188531318857234 0.24060306250218566 -0.4522588458424017
Ni 0.4593106322412694 2.504111925818336 11.432792491564205 -0.53059855939457 -0.20001974176318454 1.4606593896558004
Ni 1.1547619221821723 5.7436374638223 1.6740735615641922 -1.8398878499740896 -0.15328634226238763 0.9400307969897487
Ni 4.226151036588691 8.284434712392226 3.8073733253147632 0.4828475172625361 0.2254824048106633 2.2432926504282658
Ni 9.160540341321685 9.336850707595952 1.1265158937084903 -1.1902495282048275 0.9619283683937884 1.408939849794322
Ni 2.366463102261791 8.838833998102512 7.999408125107837 -1.0899248257411358 1.4945064201122324 1.3843495620494677
Ni 8.470301447516807 0.3292345351464966 11.321972013801414 -0.5858693069424167 -0.5630795627414109 0.463690227607795
Ni 5.960696929116543 3.625194606324163 8.665474044735427 0.9420910219528873 -0.11975812859795504 1.9658271676820918
Ni 9.34390200888356 8.929127766695952 5.419769340076795 -0.013232696640190111 -1.7570543623166257 -0.2084326484172281
Ni 5.000708648948562 2.8689425432280466 0.16279413506928084 -0.8686587730046653 1.3137087598034534 1.0002285495255676
Ni 4.446903157030918 4.9799629783181745 0.755126638298502 2.0504853672531205 0.6638472662797922 0.013011581768319526
P 2.4877454844086744 2.8088209217231657 12.311972858976182 -0.18903496061690672 -1.5609452684617569 0.05969304498525849
Ni 0.20076168129185384 7.331887410688275 3.523945342256499 -0.5431607123302968 0.7976981255253874 -0.15808479209229548
P 1.4366376911543612 1.0937032198482801 6.538257883951022 -0.16184631601725674 -0.24200997015204126 0.38356796823390715
Ni 9.279512494494073 0.05108853343433267 7.717975845874527 -0.9467321202693243 -0.2584920269674645 0.7288835778548349
P 2.191739278777236 7.415371106722367 2.6144963362646583 1.1854420795138552 0.2504136208347042 1.202515232946058
P 0.4643940637879553 3.8201630869265655 1.9473708658383238 -0.47831157706539557 -0.7565951848374906 0.9359985359019042
P 8.656066124333275 6.3553564065784425 5.564334933514805 0.4391634461110243 -0.24423346016592132 -0.29828653325658305
Ni 2.6575612310759325 6.3010984987758905 0.22396417373929306 0.8585373682999471 0.8838881883599099 -1.1835098954881489
Ni 1.1028884675781925 8.283339905087045 9.815520873082912 -1.148677618300312 -0.5715598322982801 1.3755923846821276
Ni 8.990372029590045 1.6488169137153363 9.481877419026059 -0.42668485402803935 -1.221925776262186 -0.6798017327265196
Ni 8.188138059676307 4.443006385266712 11.512068601895757 -0.0635826098476518 0.44310494725727556 -1.653356629615643
Ni 6.319728779019996 0.7238095825535059 7.822197790116598 -0.3636899983630575 -0.2502130747881239 0.3815326829714332
Ni 4.017747971427791 6.84434559481814 11.897001922594761 -0.3742670025479554 3.8676395230751193 1.9254449072103033
Ni 1.4162167515043238 5.313359636829962 4.472407528227641 0.1814437785332101 -0.09350973642438734 0.5851933639213147
Ni 1.27218464467689 0.3247374749700435 12.468447729167844 0.5969736443856944 0.4181009690137703 -0.4798861206413671
Ni 7.7511243843486985 4.734939536601755 7.745596535260334 -0.37245668881209404 1.6318830331228993 0.13393801964276286
Ni 6.4007630756594445 1.0509315107221227 3.5574046946690068 0.09803410665730214 -1.164415597860859 -0.7731245499510815
Ni 3.574425237053375 4.6359429777349215 12.106965552066946 0.4896658257359503 -1.619904006384152 0.24088022742297227
Ni 4.643319010002882 7.234356780247025 2.001986905522063 0.10975705152118517 0.36721498079718046 -2.4333478247795703
Ni 5.768474744805104 1.2956023873741616 12.4895357590318 2.4818180044658162 -0.7983745827671218 -0.4899987835953368
Ni 5.742301427788859 0.9649891372653772 1.4058411327807268 0.23940004333301998 0.6204827832512282 -0.46061698799911
Ni 0.6824601951212834 7.6368747474334056 13.472245001993501 -0.5291037200165984 -2.1970531598447516 -0.24190995423906728
Ni 1.85238612628302 3.7097823876914466 9.965735857776217 -0.2695164031024262 0.9265661868444106 1.158804936542301
Ni 3.942141321174199 5.749324894992438 10.145946707025894 0.2500294980224081 -1.3092401825091389 -2.642368741600101
Ni 5.319659417848761 5.697098875324078 3.5136522979821914 2.1328843384763267 -0.007795070564386576 0.29880615320547893
Ni 2.0892449033506284 1.071955522192811 10.278983422858662 0.06216078979946068 0.6711342868595086 0.14811559669472554
Ni 4.3303154570571 7.938763222823191 9.11376887432041 1.4248845460490365 0.5437366394384248 0.5511517009555733
Ni 3.970346526324637 4.455485332940179 5.225300017381332 1.035991823168106 -0.7745923927458596 -0.8836254216168266
Ni 2.1419255463914793 8.921872348792123 1.1070292514790612 0.6117749710645851 -0.8483087485934037 1.4703802164879902
Ni 4.893148470228488 3.390878008931298 2.7670057772848407 -0.20673829143394074 -0.8215183678734368 -0.06399578612567043
Ni 8.40657995114404 5.700225570763452 0.2565680919692779 -0.8060421266147085 0.22730480273138273 -0.05645859720836083
Ni 9.315975144573422 2.004805570431505 5.061573440497044 -0.7593858602087503 -0.08623042915415471 -1.3819905748989876
P 3.9585819868079413 0.7939616801400112 9.06682483599815 0.426962018948826 0.3150107879897994 0.02871099478144733
Ni 7.694045956031102 8.246905089091726 13.203917937324332 -1.7462493012813216 0.7919113436402813 0.5114217293558032
P 8.863578498805214 3.7431554544434618 9.484049405383201 0.23643350450552833 1.1989835656437156 -0.09760164710557385
Ni 2.108969990899915 0.8006019647867771 4.539489526345633 0.23665410515676663 -0.10390779182925974 -0.5574545032451496
P 6.041972454484252 3.2208303115637897 11.122708734033175 1.417420119351191 1.1002449767202214 1.3486968458428645
P 8.003802199173379 1.3824261734918581 13.338814897773107 -0.26873555907234364 -0.20768651427982296 -0.5654241517141875
P 6.166409366154539 6.337969382087679 0.5637905056620198 0.7984296043747733 0.30039252385599235 -0.23360271992495255
Ni 3.598316159179157 0.8046657410551626 2.7908651541153886 0.3457629815709916 2.0309367556972315 -1.7497565431036317
