# total energy = -340877.7935539018 ev
CRYSTAL
PRIMVEC
9.16636166179003 0.00000000000000 0.00000000000000
0.00000000000000 9.16636166179003 0.00000000000000
0.00000000000000 0.00000000000000 13.41589684206239
PRIMCOORD
 96 1
Ni 0.6069102990145946 7.815634023595936 2.7495482313953827 -1.3220928701020909 1.3477193124209437 0.33059707246383063
Ni 7.229729358742968 8.175532877710081 7.256940619683886 -0.3985963233219393 -0.29455509123860885 -1.114145131741081
Ni 5.534273291931393 8.529803585823512 5.325292164526656 -1.0968025266975756 0.068585719489198 0.45960114514008593
Ni 4.784611577725364 1.3205243797313502 3.9645320407071307 1.402683841582281 0.07189935724346326 1.652856807161089
Ni 7.590398187228547 3.7128805835826384 1.029714226002533 0.6574331352233322 0.8775499048467079 1.5207851513031034
Ni 7.736674985077757 1.9184186455109227 12.881662067718631 1.5573760630532598 -0.9284891148987365 1.0616694304398684
Ni 7.8670848110585005 6.890711476273171 11.471973739139141 -1.0780689548438145 0.027623675254539518 -1.0538162529440367
Ni 3.9278500949975825 2.370796921451154 11.085475020400441 -1.4010977280420835 2.5526074164745522 -1.0824362306735746
Ni 8.682716829445551 0.9069363126605441 1.53731433055304 0.30470374963683655 -0.13490501154172252 -0.4845565295338428
Ni 2.698182691095369 0.3277276749305777 12.205380744382515 -0.10921352031288933 -0.1453462614797045 0.2566169214319387
Ni 5.72959929051322 2.8392713282989686 13.34133126764741 -2.238097222270255 0.7194931377788706 -1.4242029466009796
Ni 0.6841194791100753 4.42265945862073 8.0243429100622 -3.6974803163167933 0.7859906072804722 1.0210570562351446
Ni 7.329596867990188 4.729989229161419 6.836284371210553 -2.1079469518046987 0.3375717040094509 0.18782757057236685
Ni 8.768651469114454 3.0060624433299385 6.338018372641362 1.3601469966613349 -0.6849706785219687 -1.3658756716149962
Ni 4.239002238310744 7.305260178035955 0.09244183974367075 -0.13274014267991976 0.6736398268901818 -1.001686879238649
Ni 1.4484867871743237 5.758198338595031 3.3845754278734854 -0.16538363974655387 0.00565796961672574 -1.328509572261712
Ni 1.6292566035914355 7.924484567176545 5.0623541664075695 -0.8137461801271857 -0.19085530165509712 0.8153166099380991
Ni 6.056774233841448 5.442765504431163 1.9637252208166809 1.4942742494967685 0.2861252153037007 1.8903542341547572
Ni 6.62910351721712 4.737560643813848 4.23444563997694 -0.275218595693526 -1.111709782826711 0.5452016540197255
Ni 5.983150017753915 5.079951747339448 10.561289301234797 -1.4549402277838361 0.8652556608603872 1.4173388724912945
Ni 8.573591295018002 1.7099755835300332 3.8015147167323398 0.17704025014887576 0.6100263638045945 0.3985361595079652
Ni 3.796395303798464 6.85156194603041 4.598123784964204 0.684341272468086 -1.2268309268732873 0.8108035525590939
Ni 7.778959410975639 4.179512551755951 12.040190076080739 0.04399594596497584 0.5480640631691851 -0.6110566048413218
Ni 2.503525836907763 0.5595577918075992 3.7267621215361943 -0.3631482669269746 1.2142394633615217 0.3212698815256338
P 6.660727464615276 2.49723771287439 11.153385843324708 -0.7049499498573729 0.012972501000267981 -1.0963983492806213
P 1.779832425014482 6.257398389407664 7.62665573039765 0.9855665766380188 0.46223601165977163 0.53123413609604
P 2.1739584732111528 7.290309842323957 12.12200076968169 -0.05736079730765605 0.1795262497955231 -0.8443034840887524
P 4.071917799709704 0.652733857112601 9.751733663928976 0.05730037638336583 -0.23724340200133337 -1.397059296306652
P 5.51193486879826 6.28669408096839 6.8740103655023175 1.458306573152908 0.9672955462429726 -0.670079106122117
P 2.691949565231385 7.72254962190658 3.0899759002738287 -0.5000682520161969 0.019601576281011404 -1.4408827212495054
P 6.81597813043631 2.9495884897299276 3.0491113437823154 2.1033835008037323 -1.3572503918398302 -0.02217216522166504
P 1.175760031540313 2.2959352465523883 7.922019732551802 -0.4426375207025538 -0.4356312645880498 0.6766744999514476
Ni 1.7190961132868927 5.407548343299651 5.570481336748046 -2.135905127580522 -0.5963357536913794 0.7763003765759017
Ni 4.875276059961643 3.624590188991613 2.9605798738821387 -1.652971221251766 0.372014716178669 1.0562004369054971
Ni 5.1059292160137595 8.007980954669241 8.723337560719443 0.9253752518601032 1.5733341290444127 -0.03902214689946828
Ni 1.6937694562836738 5.9217812270783625 9.81194382650275 0.16868545042627725 0.29602010581990956 -0.01774112603350493
Ni 7.098476227498273 6.392785549718029 8.927957333291703 0.4800745825030893 -6.402046871601877e-05 -0.3260523905159417
Ni 1.1039599214041516 1.1787482654103993 5.709295799647448 -0.27212221615638943 -0.14461915350569288 0.21586776453903467
Ni 2.0259583993877825 6.460029978156544 0.6531674260146105 -1.2601439392031202 -0.5779724206928433 1.1546770304168565
Ni 7.388298247450418 3.774350204235402 9.299255474647687 -0.6198688038163132 -0.20838174057463468 -1.2161176542208412
Ni 3.0039175147238026 2.6897221393711663 13.246936992890463 0.5678260762874608 0.30094196860155914 0.08219662540441328
Ni 3.1379113880763376 5.157425835284148 12.110838891204375 -0.05992778670388389 -0.6606007343180365 1.5711571759977523
Ni 1.8504042427009755 1.1109630216395694 10.011894254493962 0.19746637921371152 1.1296499122448997 -0.11890709345156943
Ni 8.608203476286244 0.9372788027119575 7.718232265609615 0.07811345647397515 1.3049986336239654 0.1690479759720185
Ni 1.82021024770691 3.52824256258523 10.415524902997053 -0.4638663481743431 0.14295796375318603 0.3709513079111611
Ni 5.24899778731533 0.8186220855294501 11.63884001833494 2.2324909318270714 -2.718086187038074 0.9644822451638938
Ni 2.341400399913216 4.0935504130023554 1.8970078581681364 0.8848654646715148 -0.5775823843432761 -0.2349263238323825
Ni 3.696307801873692 5.071307868383952 6.385644954059142 2.476768872077683 -0.05861678120194421 -0.24434633159470176
Ni 6.67087462686738 1.1244925713090412 9.183825316735948 -0.9189454370743594 1.1004234112796145 1.3253640846541948
Ni 0.5810941583038217 5.66615890212405 12.061414786283763 0.7873301520275021 -0.14924353965158166 0.7695304048419198
Ni 6.37759688860535 8.882717672425368 0.2985282301662803 1.0091075971827523 -2.2795901993077194 -2.52438621684533
Ni 2.7056532757705853 3.7647438573156142 7.994761228020656 3.1607653596118404 -0.8829605343393181 0.7860119474367109
Ni 2.25673071814024 8.866667373325608 1.3043054195788002 0.6247006779873177 1.3321250575271122 -0.8834618994557688
Ni 3.3370689257922033 7.626082832799858 6.853980032211172 0.9293872012329736 -1.0598424045334585 0.07626431908037833
Ni 3.893797061784785 6.073557841866382 2.259438461346447 -0.772843785485869 0.18507186220410063 0.25194188455377253
Ni 7.284040051013715 8.84864630648944 3.4597313429784773 -0.44381585728137113 -0.7743442812907954 0.3740050071358204
P 0.371168895657923 4.983631620017761 1.382708976586159 0.31244174171104255 0.5941364320472156 -0.6942701015460236
P 4.373060276194231 0.7394320546998415 0.36496051897016324 -0.9211079919433169 -0.010371058821678913 -0.9775323934796326
P 4.407470797508051 4.311581489179903 0.9139476626213701 -1.4826544058696531 -0.41867021125367887 -0.9447384868780634
P 7.85089701653527 8.572683825223097 9.281761473601492 0.2852484691257023 -1.6402236917781108 0.18057525988532772
P 0.7247383771116547 1.6601930738722404 12.067585580889107 0.7568569231393094 -0.8117463760883376 -0.46597953786260393
P 1.408063132674072 1.917602839331666 2.073373237853418 0.10865070583088383 -0.293573701161946 1.1221955128493835
P 3.5622039321823804 0.3480604981533573 5.8805225170395685 0.6107596424261933 0.969417220571666 -2.2726759886863888
P 8.724652933603975 5.137388168903752 10.123957607802994 1.1795030883216007 1.0829949313905218 0.5707635616492299
Ni 3.9201228521985545 6.852212757701501 10.58841623164932 0.7037674995134976 0.4291430857605448 2.147041603813315
Ni 6.064657304787075 1.3291957577715403 1.6516179426284794 1.3731272109710866 2.3609445313164956 2.8384076443386665
Ni 3.1470044187485033 2.5637396660261644 5.698093589179249 -0.6048031677324422 -0.427182105379432 0.39496335455504233
Ni 7.083278400024029 6.759540842282558 5.1489267848413744 1.0630316008947176 0.5793052805716539 1.0774310641494993
Ni 2.5332706801851588 0.6452953547028608 7.689790878946717 0.6935818172297474 2.130315806418202 -0.22097397541734845
Ni 4.786829837224019 8.644337273574225 2.1942637973492385 -0.9674665246031984 -1.2648354311415184 1.318835796617374
Ni 5.125114410768641 1.2677628025650354 7.431038241518064 -1.288056092232356 -0.9598313766554437 -0.6405926666272258
Ni 7.892228140830426 6.360859112388239 0.3890579668875581 1.4278426002360958 -1.8325378373669212 -1.077182438473803
Ni 5.251573534915007 3.214340510802664 5.905932587933026 1.879440415455731 0.5502937238306522 0.032939688150814245
Ni 2.7068357364124296 8.168887265575686 9.116249066008795 0.011763568293831354 -1.3902965236615217 0.9014439378554864
Ni 0.7359295879459761 3.085149810910023 0.36313916292726073 -0.9088818821907702 -0.15362547076936123 -1.0309779148932825
Ni 3.652547591763896 1.9210218921952928 2.0939535528384443 -1.3225723808416707 -0.6462490935820547 -1.3877832703213646
Ni 0.617265537674217 8.330966870762408 10.089827577153052 -0.14759391986330064 -1.08605068749771 0.7967046512638667
Ni 8.034563403206821 0.23187686532100138 11.351512165364547 -1.6332691148371483 -0.5764914652719426 -1.0435603795439834
Ni 5.0128539806859695 3.198876858843044 8.88019692299508 0.21681778715712982 0.25188583450485647 -0.01516719465874162
Ni 1.466636183072396 3.140679629268872 4.118130011538052 -0.6253118292087553 -0.0679902519970442 -0.33607197953547285
Ni 8.967002367012627 6.30403683704877 6.732767733424432 -0.7299948086411427 0.5671349637577071 -0.528377126263219
Ni 7.01647395694062 1.263610440776234 5.68419463513872 0.2129883861087106 -0.323793676388752 -0.3914707680207516
Ni 0.7399902861191306 8.243363953288736 7.426893212818515 0.6092712308061249 -0.03996008533270537 0.47318634002368826
Ni 0.2242357863206817 8.474979577305142 12.900431109658475 1.2979982910467323 -0.3539372898516679 0.9555988266313348
Ni 4.401650157914477 5.822032880531483 8.60215184438124 -0.6962773617840397 -1.2183015492460372 -0.13540663376848935
Ni 8.769357278954933 2.2097439487596753 10.177942894238193 1.213208450993846 -0.3971508491246644 0.47821181826273773
Ni 8.207055995131025 5.809181641617799 2.823040451876384 0.28475096066399347 0.5014077967632268 0.48057003408226917
Ni 5.88965312979415 5.476259389588514 13.290109639223962 -1.081673384365621 -0.3111165951417158 -4.190553625072396
P 6.958597550021212 2.6265659081905017 7.453697487305961 -1.417249655211598 -0.3630027424880458 -0.3183884462127807
P 8.734497605924444 4.84126885855667 5.052211587336248 0.38297327207270176 0.500048711632171 -0.7769925175469199
P 5.71115657104508 6.954637681825269 3.5192173629886434 0.4301123916523496 0.5219290566450302 -0.5822538216770167
P 8.703561135643639 8.781869362490726 5.53918187854928 -0.9907285804549324 -0.2127230482624659 -0.5175044452147733
P 5.746767885723871 7.321622133428915 11.81157001902367 0.1255762779416289 -0.11259452096998027 0.2861115884569459
P 8.078433609655395 7.977548634274495 1.4934844560953522 -0.23735807320232669 2.0985469986470373 1.095649386929739
P 3.203304211478786 4.597416141851411 4.096235240304651 0.4150354427145691 -0.4963797474210161 0.7257362904751049
P 3.81993452029657 4.504295074715797 10.23716125649067 -0.38925807664014894 -0.6640619533937595 -0.6275111508529193
