# total energy = -340870.92576633516 ev
CRYSTAL
PRIMVEC
9.23434960735447 0.00000000000000 0.00000000000000
0.00000000000000 9.23434960735447 0.00000000000000
0.00000000000000 0.00000000000000 13.51540407272731
PRIMCOORD
 96 1
Ni 1.0387073599186392 6.973651630090925 10.70859241754507 -0.06157534960963589 -0.8638868055373187 -0.6419491806551202
Ni 0.12220184362745765 3.5348259649068376 4.8125515393218015 -1.1950618619918065 -0.07238401018936566 -1.2760485262485186
Ni 6.0463751682825615 9.32752431194241 9.188961047475326 -1.9270310207505008 -1.19445328187353 -0.7470797891478876
Ni 8.456023322462388 5.668662561553082 8.73420810787484 -0.4297987170666727 -1.040866377651588 1.3511347658603956
Ni 4.988211033497066 6.900552517681796 3.3654846128122102 -1.3097122370495506 -1.1076515535969376 0.03201357679211906
Ni 2.43837621616881 5.5664198414174235 0.7994915303382373 2.6656534231596547 -0.9944391965373003 -1.3287499704072923
Ni 1.2206055807669216 3.9821470998500628 10.462071293898617 -0.3521413742935097 1.237933978764984 0.3715933123705343
Ni 4.105868917441965 4.014439620832215 4.632539896121976 0.20797524916483537 0.5258739002253912 1.7693650613631786
Ni 6.203155957883645 2.0344749936242357 7.700104071293235 -0.4998941883321778 -0.6518250450079355 1.3721303942754561
Ni 1.9010755775223833 0.5896732531017539 2.671306223892606 0.7785308085683172 0.2421087005134346 -0.23298488383529556
Ni 7.140470157841165 7.517277798297767 3.0349650737782947 1.2792963437618547 -0.6839869744524607 0.591800070604555
Ni 8.32757351781219 5.674000015693111 11.517814182186681 -2.006494306384151 0.5412308422974357 -1.1174263735955143
Ni 8.557776622062715 0.6871916799190044 7.1628126669965315 1.2460612358578087 -0.8072297191649065 0.10651000533879722
Ni 3.6360159691740463 8.990175047853192 0.2784553518593443 -0.5669529296538882 1.2373706500623465 -0.7473700666947968
Ni 4.742789720902651 1.9103653333439579 5.514257770135787 1.1803443532759734 -2.0271682897937344 -1.161998246668618
Ni 3.702401709334383 4.263942516004301 2.4690748883887323 0.8312451082428973 0.11886878401446624 -0.9652420061480538
Ni 7.365502026246677 2.0375315633826268 5.790661249486629 0.00830286343874054 0.6599186206493474 -2.621020614941628
Ni 8.611298913058585 2.818129614187125 7.973413120051821 -0.0762686899557525 1.8471237056008964 -0.4288373815946679
Ni 0.3944341672083139 9.149162847038127 11.51477331082282 0.30020560465616686 2.0408666132164335 -1.0680077139530704
Ni 3.52518530379578 2.5604820225591465 7.312063767833289 -0.5321134533771997 0.34170732344437926 -1.6758519825046814
Ni 1.6343783231656344 7.368216925065308 12.967381770601325 -0.6742895446590387 0.2723914106573761 2.165800372478057
Ni 7.460698937543507 5.765946435887362 0.41846656236303287 -0.33273854428686567 0.3946375957845074 0.7224378222294913
Ni 8.116143846549 8.364584791502915 5.356005948623792 -0.2471922856839291 -0.2504614433535041 0.5128011262018329
Ni 6.962025583789372 0.41246423504293017 11.584593305645225 -0.9633504455522958 1.189893173306673 1.8668432955170104
P 5.994847496826911 8.775504119837148 4.532363823454379 -0.48265828406986555 0.04845038219190365 -1.4528674044152075
P 0.8347344260569636 5.429871512059949 12.43940228456553 2.987386360364636 -0.18436378039348247 0.9969899879836118
P 2.384152114593974 2.948204664388613 1.3297306617513063 -1.6716844813905531 -0.14653899623622504 -0.28464657387564524
P 5.428209329109767 7.542884650080298 10.30606341936937 -0.3260086817621998 -0.6195985808740619 -0.09101345236509487
P 4.0434077759140035 1.7659955097709021 3.412098686780128 -0.7729466296123204 -0.3526460818440701 -0.176592878198812
P 8.372461691816834 7.838688574764683 1.3792064606984544 0.43831472495748386 0.23073002636284778 -0.834455644760395
P 8.018121224236863 2.3914564852250533 3.386014419116906 -0.3997641183777954 -0.48559859764511204 -0.11516459569000166
P 8.782910068315182 5.81249679284219 4.60546847647334 -0.13096376750578734 -0.28538113804882465 -1.3102125737247372
Ni 1.5166773015932813 2.1500336460607983 8.730275198327716 -1.2961620091689419 -1.8843954454681608 -0.2412653786765329
Ni 1.9501192089024844 4.685167378629664 5.564264544192021 -0.5817066909242948 0.8326085642493273 -1.0096716972163386
Ni 5.81775113783471 2.948370882683631 2.9815923792479415 1.384556278743635 -0.13623581453800407 0.4851057171690936
Ni 3.7613815010166842 5.536066533877151 9.61625103099891 -0.6347320940813909 0.6660283330915111 1.1518084506198099
Ni 3.390012892547067 5.04294302430668 7.2500551094417665 2.980955002916995 1.7451038748229688 -0.1300055173575761
Ni 2.5391322059990267 0.6848720112685278 6.100299153491392 0.7415385476146842 1.2677394921621907 1.2162606075566087
Ni 4.489796241535182 2.536546588076521 12.164756101967022 0.5013388911985043 -1.4731462092689018 0.1542258233575215
Ni 1.5157353979215114 1.2502386090287827 0.043538112075108236 0.6968975118665417 0.19546837494707625 0.09076122714497273
Ni 4.674233908557355 7.050361373241837 0.7753667916862859 0.2810855959972643 -0.774227296096957 1.1136342535429338
Ni 3.778575860201348 1.4679938098523866 9.325371785021925 0.6564003230834438 -0.7928672797956474 1.1877941246857995
Ni 3.119908163142444 8.254705264146141 4.417807097962787 0.16651569646846806 0.12122417162052027 -0.37340234055481497
Ni 0.07406040821531679 2.6716358901777255 1.6009804505216103 0.40780678617661376 -1.0940591596244835 0.10135520061073511
Ni 4.788869126021593 7.220264173799638 8.040976239801868 1.2017282182683884 -0.01902050696656079 0.1930052581185644
Ni 4.789210796961353 4.756733588984736 0.3543672471941697 0.7019096203691525 -0.6982900213386942 -0.9739793860210518
Ni 5.243337647650602 4.031781729612451 8.567968573852248 0.5267519319549703 -0.06567471648999013 -0.599863821449296
Ni 7.50072984359373 0.8191763936432573 1.6605697092856455 -0.522446619711397 -0.5886003327203347 2.090714389976496
Ni 6.341274126694071 5.574656881370549 10.090843970979765 -0.15000021531194813 0.6098278746405433 -0.36535170233619657
Ni 4.419827573682231 2.2538739086985755 1.1139423774187514 0.028570612548841117 -0.40667910033007376 0.27115779536059104
Ni 2.4171279774556464 6.205446076615008 3.413275142934868 0.2861761231462942 -0.19537915766737962 -0.15789607312025714
Ni 2.2758793640890445 2.555855613347805 4.482992372659102 0.71772061925948 -0.9846445790443816 -0.558549021860909
Ni 4.553374739379655 0.045575209624053876 11.194565770124841 0.2721443276435765 0.5921371422289996 1.4964491456609004
Ni 8.792938572114616 3.822392849638098 13.057056540763659 1.9118311730816107 -0.30369150632223824 -1.8584255037669608
Ni 7.977185351913762 4.44768760679723 6.342590021529632 -1.6553669751774522 0.24590056345569908 0.6183791066446641
Ni 0.6896784902994716 6.2446274224906935 1.6676792351375642 -3.251712477515374 1.6331495585401485 1.278410855833108
P 2.490744213449276 8.865954575376234 11.816977563300378 0.5294171374919592 1.2211259060687099 -0.24838219222697225
P 2.6974274289547204 7.80622060113779 1.8935486590629746 -0.08573214936149752 -0.5704390884302756 0.40078407500187746
P 5.760267310807572 3.6716328560565636 6.328425452489161 -0.2938084428805714 -0.09246612565122139 -0.1150077583971632
P 1.032529579953795 2.4372957972511915 6.38805626582695 0.1587954450060749 -0.29224804037198704 1.3118881616549471
P 4.202580262093405 0.21717713053092932 7.5879538173395185 -0.47965549268779967 -0.5037624130383325 -0.2848831153664836
P 5.657618279284092 0.7973380799827788 0.07258845286943313 0.9896816272476567 -0.5987109387917753 -0.7925872866613833
P 0.24201291411156978 9.15011398505962 9.04011625802639 0.4501381999549731 -0.6719896928812685 0.03823590355274705
P 1.19602374180367 6.470961334207182 8.639141400909109 1.5574349413156534 0.39046855200848235 -0.7409173690909174
Ni 7.160231666248888 3.232031637481963 0.7765192385317456 -2.9164658220946738 -0.1665527203539906 1.5309944877359376
Ni 2.642150611511436 3.685050366204424 12.818861106827672 -1.295164678252679 0.7404314305934345 -0.3980360799430951
Ni 6.1569749749177465 6.809178627170386 5.550290202755849 -0.7575218104168179 1.8892509737882495 1.2462661527797634
Ni 3.7220431711957036 6.693158257247662 11.94344105932511 0.7540667619886819 -0.02421542090393894 -0.0703222425643305
Ni 5.857505013393237 2.0596293622703277 10.303252483313615 -1.1575576943987613 0.7580368023800235 0.11046179089769365
Ni 0.18374693766287412 1.1398327237377854 4.568260511133509 0.3597497827683869 -0.5525557803919515 0.28221842405012687
Ni 1.4135942556328092 4.41716808096194 7.903916327469726 -2.466077453802108 -0.29793017835842883 0.3799344852463779
Ni 8.241971095877801 7.907678401546972 12.724807408026582 2.3685107736995272 -0.6562643117262117 1.6461459707998167
Ni 2.603975809755583 7.496057262633773 7.129227337053126 -0.7905059786523224 0.07588790957756608 -0.3813506488676142
Ni 7.949334553148486 1.3175939559100587 9.551957794485858 1.1783522625466094 0.03597153299860257 1.0868721549577411
Ni 5.41189223314881 8.9780965184152 2.146462723022823 -1.0645629499375797 0.9630606822260189 0.41742811131646174
Ni 7.818419177122182 8.084959447533636 10.261827190455183 0.45587973042444074 -2.19537834324549 -0.31484109518115455
Ni 1.3423789505672212 4.096800786013748 2.877429837804823 0.45021327616728274 0.8623413154270697 0.158763563326875
Ni 2.9572266240682135 8.253560204780461 9.786301581152282 -0.1295342341481124 -0.5399347491938314 -1.365217726316023
Ni 0.3396439999954438 8.003069234187988 3.6354545207108737 0.7829201958852645 -0.9817029799175545 -1.6344675060206237
Ni 8.097453522709174 4.61359193392487 2.8499936613421197 0.5315244136429491 0.044649263278258584 0.08531305954620791
Ni 9.27322633556979 6.351505786187415 6.570162259544007 1.5537520931474273 1.6798094244905328 0.5288445528179407
Ni 7.513307027916776 7.901916167319674 7.931136420148905 1.7222994753339436 -1.4665042784723519 0.36787626853026323
Ni 6.2252352880719 7.485437760452053 12.506668981689463 -2.914420766640187 -0.7998753356823644 -1.1850502433920753
Ni 6.637816799356314 3.8217095077585785 11.725640610187861 0.5730886102379807 0.3358153834399765 1.688427248066531
Ni 2.040883632332161 1.9020544185930461 11.165521893375322 1.0926980176108987 -1.2709497715693727 0.2888022479152317
Ni 6.281232384793596 4.987379942021975 4.563327521511358 0.9340761220682107 -2.165408022135645 -1.6690264749424157
Ni 6.152717939695336 8.982030351397299 6.623804597086278 -1.3380439941147084 2.2927563043760317 -0.1415176317622337
Ni 8.355221160883556 1.3706545294197667 13.300793507968557 0.7951457914171789 0.26381755294543596 -2.6173544789439505
P 4.601190202246566 4.5783721240804525 11.5806603960981 -0.4286980278033262 0.9917881320676984 0.05902970036964673
P 3.0699041593911267 3.5308551945258464 9.094393918829622 0.05869031475235699 1.1413921403824925 1.8643171866610473
P 7.303899679242977 3.445160429094226 9.70733126918912 0.2555416860898889 1.5719447048960542 -1.2510715445882066
P 1.2293689786542716 8.463216880896788 5.56122367282816 -1.8230023870726604 -1.5029146987805857 0.06324682377478785
P 9.153558397506387 2.2163639801227952 11.342086353823463 -0.05705509314177915 -0.07322938890879646 0.6746667254927994
P 6.122503147400911 5.0420472923835264 2.1573961930951335 -1.533498999325346 0.9917806758685307 -0.642720511603506
P 3.721045861425594 6.098309151126036 5.282211489680504 0.05725023987172076 1.1709377152500933 -0.22100739975844522
P 6.700998220162688 5.913751437557461 7.4513934833274025 -0.41439626646867334 0.34886321776287016 1.0806925085095904
