# total energy = -340889.1939419511 ev
CRYSTAL
PRIMVEC
9.08351807256735 0.00000000000000 0.00000000000000

0.00000000000000 9.08351807256735 0.00000000000000

0.00000000000000 0.00000000000000 13.29464687527794

PRIMCOORD
 96 1
Ni 6.545837275527162 1.919919575796732 11.315446235211182 -0.8284318071638184 -0.2859843188504623 1.0836662464259337
Ni 4.4991027075241385 0.2886978132867021 6.0614150871908645 0.4679279198382264 0.4911868903661669 -0.7010639845394055
Ni 2.7745695999143063 1.4451422666757239 4.68034068836339 0.24979449919346658 0.06973885925703474 0.10701831243378344
Ni 3.0921566332578014 4.154610294414507 4.669358715325829 0.35861849737742113 -0.2045446262167316 0.7301914980329812
Ni 4.84146957746521 4.764368678256916 2.3228535258203977 0.9081753430420487 -0.8610547354051622 0.5681994004664795
Ni 7.224030882582964 6.312608872125635 2.690438057917697 -0.1373635003845441 0.4313979432329925 -0.2568043548523964
Ni 5.235839586893497 4.658945370503445 11.445002633093845 -1.094482106094515 0.11683992650989554 1.7160702065947804
Ni 5.495973370061159 7.961276438949926 12.302506698508694 -0.22074206191220047 -0.04375091983370529 1.9635535411565668
Ni 1.9653553319041646 6.466674417775008 0.45583999118162855 0.11463417710782839 0.5383951726208535 -1.1604139329006338
Ni 3.241825756285024 1.4713663826057835 0.5147502376148838 -2.0690754715504815 0.42454698174943006 0.08186032511091708
Ni 0.27353378864740824 -0.2706425049270972 4.979057621799332 0.8210247160664699 0.8899043126470029 -1.1711778562853572
Ni 8.905108440968894 2.189509301009145 1.3093282333707463 -0.7630085445630022 0.28961034563882376 0.6445061427490191
Ni 6.908369555016113 1.1297806951967475 5.114197658082484 -1.8969036052375008 -2.113698509576495 -1.2247658168141422
Ni 0.792754025378739 7.468295760128939 2.1812396663909506 -0.28412669681643327 -0.29081207925640884 3.003237211353963
Ni 7.544633643840827 4.115578418366199 3.6991554443882073 0.38853328265898246 -0.5778829463028305 -0.3052123138421389
Ni 7.893640565304195 3.6938942708701297 12.57127164030356 -0.434617992832187 0.15338970060947132 0.533289733073488
Ni 8.095003988212945 9.062571222280837 7.02514362663041 -0.843195081515922 -0.45627825141444 0.061442423576197405
Ni 6.677066857391231 0.8768655836361566 0.43319841467755293 0.528917057927089 0.09606464163575715 -0.7655847899306105
Ni 1.785765101196438 6.366183460194734 9.326393822032912 1.2168419339813754 0.9387601578074414 -0.4832131281320711
Ni -0.12249305443021763 5.116654749651269 1.4258506915415847 -0.6533322256810812 -2.85144750824176 1.1505696931167022
Ni 6.372351168790685 2.1040878994828964 7.125558282661041 0.16863042881862572 0.03996497042871181 0.282404571919004
Ni 3.368286491296554 4.62185736726741 0.5087360404699955 0.5086217980131628 -2.4709638353601315 0.7971227126378917
Ni 5.677216801011099 5.846860579712101 5.0321035491316355 0.6369393861453546 -1.3384954798298303 -0.6743160270215999
Ni 5.515348513559191 2.720241079866615 9.297464634497738 -0.540693738847043 0.2850301824673091 0.014945308455922648
P 0.313133384559114 5.416992182665293 12.721979917768747 0.8252714071579658 0.20689050074108886 -2.790061648935111
P 4.0914253444978135 6.272123633227028 12.820559703200878 0.30079772971421104 0.5391125104028521 -1.687919712302493
P 2.455029610240724 8.526698172340438 1.3292720050839568 1.626047914498361 0.35183592723794893 0.7399688891347191
P 6.182178639829228 8.023625705227698 6.069086117985092 1.3442637497721752 -0.18608744795280854 -1.1741341107002037
P 4.710757756116559 0.9305064813853012 12.360857400244583 0.7513138818338932 0.9256986966377928 -0.1070270541845318
P 4.073766985866697 6.150431745068038 8.208699655639954 -0.2474288271747674 -0.016469972630565183 0.8925795454863209
P 4.959573476087528 0.7158139044357591 3.8600209114734105 -1.0560256018905299 3.474274880465765 -0.23437302243207375
P 0.13276560472647822 5.5955832264134395 3.5254213576153997 0.5770067143454644 0.8091158804440258 1.3004426388221666
Ni 1.3104609480421974 0.7725168560401247 2.789495636386864 0.07145584194814145 0.6273921087765518 -0.5353504722572587
Ni 1.8998540849448091 6.474268238667812 4.705214993546235 -0.9337922722792047 -0.11585853643323273 0.4437927173529196
Ni 5.860903698253103 5.497617486785559 9.324811473229651 0.56866425591804 1.205282254168234 -0.8127845875448647
Ni 8.526861675661099 2.4395331288494244 10.173050350473849 1.001898481028823 0.7745689957070918 0.48566827454078293
Ni 2.56954551932637 5.342952428960438 7.037281931485739 -1.7575207604300829 -1.505978425307574 -0.45549766449467355
Ni 0.523884623129005 0.28230210839361064 9.186866446645425 -0.0195241860758567 -0.4977120930791945 0.40130138095792817
Ni 1.4875532113509744 1.3511551078505333 11.433382997105715 -0.6864750309816371 -0.31973776115182356 0.5761860182163819
Ni 4.11903923865347 7.001729951112113 1.6117630506481062 0.09748671879426436 -0.6834971793002358 -0.178902243058279
Ni 5.62407822179709 7.73577810920842 8.06244502695915 -0.7593943448491824 0.9265613017484042 1.6616281255958159
Ni 5.319962045372291 3.0623445277910695 4.650214293180281 0.1552871747425003 -0.20924845945030415 0.25439266008711026
Ni 0.73925573885928 7.379976716419909 6.810608194539055 0.2387156156714857 0.13654306136577773 0.5788615081660159
Ni 5.24607671147028 4.470862050639291 7.061132524210906 -0.5773481568452831 0.4755874932660132 0.8131355431263803
Ni 8.033644825376937 7.366587611161542 8.991581713858045 0.8091171659956066 -0.5067880872385337 0.6123431848632294
Ni 4.482379951227901 0.18469970947830439 10.228076484689684 0.8025246003797534 0.019952788972843055 -0.012141777568856508
Ni 7.741219136379222 7.083681448833275 4.897987225306162 0.8122968492751688 0.5764331012301815 -0.942796532660344
Ni 7.180439080591847 6.244482488517928 6.98755966332171 0.05377050885323643 -0.7445554800641371 0.6570672672434813
Ni 2.141620995091835 5.118961963176117 2.6431220136226923 0.3292824674174652 0.41980741018191575 -0.6241296359751961
Ni 2.492408286046819 5.062053724069146 11.663234148583864 -1.2414381352635007 0.39956974297880216 -1.1215432239773653
Ni 1.0687757895555006 3.177532617194978 3.6803834464730496 -1.2893028201552634 -0.24826366437123695 1.0975908269268257
Ni 4.264048517041926 2.439424126635652 2.6164391800430074 -1.5277333004861624 -0.18753497903261251 -0.6164302104484094
Ni 1.2756165737063094 3.4641357712736887 8.291366026213106 -1.0111572806229296 0.40297465489529316 -0.20968066189171633
Ni 3.885065986791166 2.6485176232044223 6.672370678681207 -0.8468290787240835 -0.37139019522079264 0.6229111901870628
Ni 3.9261779884189627 6.993636536739517 6.080772063653267 0.16789329354228505 0.5451435470882805 -0.07468617595998106
Ni 0.6946447661693914 7.400105791896532 11.483344161788262 0.363519020002832 -0.609443494717931 -0.4121504078572901
P 0.15385934979498675 5.702487147570651 7.955769102099079 0.16527282520030245 -0.7080504431595677 1.134993435945
P 8.472015395097987 1.840402460849818 8.103964878536813 -0.2985654979495826 0.22276192055570668 -0.6642398737325206
P 1.7603040007627848 3.279068179323903 10.424385838286522 -0.5717300393275573 1.4613253053745736 1.1117169819155626
P 3.9660727986596354 6.019411084113698 3.76340861599987 -1.2207232713136524 1.2145528808368824 0.37818382110385834
P 7.023203387225262 4.160096739174381 10.51989448634562 1.2959509215994003 -1.5127815642723368 -0.5352861946782265
P 6.406232690238251 7.588952127257093 10.443582944835393 -0.13628029462269434 0.8986913148110135 -2.1864674139091056
P 2.357027536541586 8.625572263749756 5.84269124503531 0.007775015959728545 -1.6380765635281207 -1.9759480581661775
P 6.662978321261157 3.708382481784035 1.559183107779679 1.0072435473908201 1.2266116117736294 -0.5929722365357851
Ni 5.24609487850591 2.8893398474987544 0.11047192695469261 0.27313625924320056 0.674851844920412 0.6089033059437449
Ni 1.5379667352206765 0.9510443151635709 7.086578182664275 -1.047004372228526 2.2859115135400567 0.23702871488736602
Ni 7.1127487058392305 0.5390731732663976 9.271580242133934 -1.3973799128708642 -0.3444267792580713 0.5492840516192153
Ni 2.9306062689293957 1.8216540800809773 9.54043783581051 0.17145092898655634 -1.4451288981203692 -2.3249123202832864
Ni 6.617533481635911 1.9016072038829808 2.640862034390479 0.32701295465699814 -0.20886819329274994 0.775945050119012
Ni 4.08245991241504 6.907860878018509 10.558900928544048 -0.3035822344378836 -0.7604127588113678 -0.5834504130882789
Ni 8.531230847729805 7.134994240966599 0.4307494982748013 -1.771473365955433 0.9275961707708218 -0.928010375490105
Ni 7.69115986970428 4.0544917610646225 8.031269485468481 0.32192139906670364 -0.5739360458399406 0.31978249834682987
Ni 2.9047454937119106 8.488238557914435 12.254354062222985 0.7962441666876803 -0.20017272240128106 0.5127185937903557
Ni 9.198333479534273 4.946720298380208 10.15293580862573 -0.3865792442564052 -0.5899915566409065 0.5547376185346188
Ni 8.79807735056228 2.230684887261642 5.825381693488264 0.8766387058863483 1.8274018016919369 1.5989045213143496
Ni 3.6786339609420033 2.831950181947623 11.589248895985895 -0.0369719492386589 -0.2499029997468728 0.10252273855627504
Ni 1.287216225955248 3.368259240743111 13.10999691483767 0.18715496998537445 -0.07940235048872776 -0.7188894427566006
Ni 3.0563675730692204 8.52518122486544 7.985097056066305 0.07358831491011197 -1.643055247689635 1.546251156784692
Ni 5.479722956691268 7.8609580682081255 3.7145910662101507 1.4282997423781725 -1.5112461014644167 -0.03439184721630851
Ni 3.075315791229977 8.147370468412733 3.522323878040702 -0.0355447298738291 1.00549159769672 0.2136573871512772
Ni 3.579033188107538 4.304833512028405 9.46238498393527 -0.06778224975129617 0.4112836889816207 -0.437209407708447
Ni 7.473664119157226 6.147661272134657 11.590458820558768 0.1677886496436207 -0.8349824637981427 0.16492032695689016
Ni 0.7792214005389043 9.140925646947515 0.22210200243071623 -0.31672468535711257 0.29922498591045243 -0.3831429648813466
Ni 4.8334034136460575 0.13808945451747506 1.6477519482286036 -0.466889451271383 0.10770351142626612 0.8566455505938732
Ni 6.162712661153053 5.8163490433736635 0.4888758371206772 -0.05156321678927249 -0.4739445583459515 -0.6096278428145953
Ni 7.791260236018536 8.683152683174988 11.971443358135812 -0.13592239706264334 -0.8350788801666909 -1.0503689178253846
Ni -0.062409217495346996 5.087205984897111 5.8588181225629254 0.2131966454647748 -1.0843522167493647 -0.9061374866764136
Ni 7.896529123969162 8.920377834414834 2.5315001133127013 0.8628935883861141 -0.19369328532452448 0.7585014007212679
P 8.56271432047438 1.59042405059861 3.8470451062755964 0.3234334648358559 -0.4705409319810412 -2.355382720958002
P 2.0741395412489485 3.0520529021073988 1.8378781512492073 0.7097293735238873 -0.746718806264043 -0.6847487923191498
P 4.517042655207502 0.9977245132115709 8.09691788541643 1.5491130517135192 1.697176969234703 1.0735574401267058
P 8.510638512844649 1.4524363314806559 12.488406340690274 0.4074961969147305 2.2233187784095 -0.09420342005730228
P 6.569790512003631 7.876127542958108 1.233878717701103 -0.7525845210162007 -0.5644471325128989 -0.24356548756461924
P 1.7761910734201016 3.0521437372855424 6.216377176048515 0.7413608843862394 0.6769845749926986 -1.6345616083963268
P 6.875151130368996 4.056971561427944 5.759785977943639 0.9263121618520757 0.04904122169836715 1.1835258363277488
P 2.192434193745369 8.509575741260369 10.186583883665467 0.6189570906353211 -0.42481669047104903 0.11795090018588719
