# total energy = -340877.0324014262 ev
CRYSTAL
PRIMVEC
9.21100141160212 0.00000000000000 0.00000000000000

0.00000000000000 9.21100141160212 0.00000000000000

0.00000000000000 0.00000000000000 13.48123162817042

PRIMCOORD
 96 1
Ni 1.555507855758905 5.795838389810071 1.4379082380130537 -0.4253789907324223 0.16878572344956735 -1.1283535620309795
Ni 7.2448947027769375 0.0618666117778846 11.068455058000433 -0.5182102130325462 0.12180601226591928 -0.8821616925871065
Ni 3.721345873060021 3.382961315860821 11.37296892097493 -0.543123174224142 0.7955723374316364 0.9038900854031338
Ni 0.107987937819963 7.183420479657263 2.7468956165007548 -0.3111500194828125 -0.20579958166975526 -0.5221422010971007
Ni 5.771567401209482 4.317592413512933 2.9872115632515195 1.3961928345412986 1.994878062301461 2.340151505830544
Ni 6.13640595433312 3.9758826848204447 7.077107101885721 -0.4646829305383674 0.26726823049819776 0.9190259126033076
Ni 1.4539749876965489 8.555270179170563 0.9565044625970156 0.14139884679618228 0.5457495561033956 0.6741190805194455
Ni 8.621930196059546 3.5314979238961617 11.33962970152907 0.7708807482222272 1.3720128948609853 -0.08740799440202365
Ni 3.517248504782266 1.8663515188724256 3.5360463163709133 0.21155885275103567 0.7407505044957501 0.4125350448902186
Ni 0.7480548961736143 6.31881141439289 8.707433158443873 -1.3890189425006787 -1.8681139346993183 0.09621350850879559
Ni 3.451841184079119 0.04352106035633013 7.372844722758267 1.1719846684573685 -1.4114646730987046 -1.5693723161831876
Ni 6.048164561242548 1.6967217177079195 6.0760315247766 -0.4573763695746252 0.16234279603770105 -1.243994068916135
Ni 0.3025786315874067 3.2832706480717544 5.483760452513447 -1.394799810848514 -0.11284983151389597 0.7105415850125376
Ni 8.90680804632105 0.2373979015178741 3.406491739951549 0.1996343333993078 1.2992571031544977 0.6678293908559918
Ni 2.3695208905173804 7.120693560351753 10.365516567619817 0.5539955981622717 0.41802949234588654 0.8337560475902092
Ni 6.895724062977627 1.1771199196252216 2.008352921438271 -1.0335893843742006 -0.20826475538079617 -0.21551012408929981
Ni 7.9737520299026015 2.9311524878351802 3.3289470827478334 -0.21832625338185627 -0.4509797220196621 -0.5397072065640576
Ni 3.8746261467990823 5.875964890696803 4.095476484362132 -0.4835825956563478 0.16950948898946935 -0.29785150260169346
Ni 7.179818978122983 6.2884887978945425 6.991919155748127 -0.05523320944169198 -0.31086051326685177 -1.0309401196768115
Ni 3.9805710845159665 2.679351343480591 6.7077348938895165 -0.5974127888056422 -0.12112261304564947 1.1950824308170966
Ni 0.31174357794702245 3.1489189821407435 8.982585112362544 0.21956038289927346 0.3243822019023703 1.2695634327448069
Ni 4.151518058875875 5.503564105451311 6.686852632691642 1.5862348962664812 -0.11684506871621812 -1.248142800977186
Ni 5.440597700110272 4.487093260658309 13.466064897184795 0.1792298016010268 0.6946789069486681 -0.9906290787625907
Ni 7.401859377062578 5.912504933117503 12.023924204043858 -0.9955406571315951 -0.6644638168178686 -0.011723201974199165
P 7.923690237475956 1.548120632663014 5.051228408147509 1.0200478982443402 1.2037038539375204 -0.612554529543087
P 4.937437539466684 3.420136917375805 4.9791716655579235 0.6978925287899593 1.073147606282797 -0.9126711740298734
P 5.821721303649791 4.010783168997916 11.260440880581445 1.3541015617982033 0.10849335431741314 -0.05014525339582332
P 9.184335517492128 1.304913352583321 10.98665123376487 0.3996988123574987 1.2984240657302413 -1.0931890983147043
P 4.031084216009568 7.604906691184557 5.921482896149379 -0.07087605818527148 -0.04601786149101107 0.5482733509665139
P 4.818099805762984 0.11503619606556902 2.516649136443791 1.317745905987305 0.027048519477359867 0.09188197101297724
P 8.542319511249337 8.21178272721435 0.9372074147343071 -2.0020406414881715 -0.7200394972006439 1.528192499510768
P 5.552216614668889 5.654873224897951 8.7973122675774 -0.14078126781684142 -0.1839590887558961 -1.1268096145826272
Ni 1.2169022345269105 2.4394231798873545 3.4762300734972 -1.0943869752775475 -0.7814065874542155 -0.7648265716083473
Ni 2.2745554664293013 1.767710905239134 10.405340332027654 -0.6647682354321648 -0.8157272151129565 1.0488655938069806
Ni 5.25480259154765 7.001033441600227 0.10810399643718024 -0.4046142473812451 -0.4998790188235262 -1.5707213740119141
Ni 7.7274866973692475 5.00440151940076 9.250726573141211 -0.02380378728781707 -0.8191226139477507 -0.03815594224443106
Ni 1.7970479445912708 4.017461144988591 7.314808045348552 0.12837775194616602 0.4855374053898734 0.29961322248780653
Ni 4.596888396946368 3.084570926594738 1.765286569679485 -0.9789472715492883 -2.3252020836095633 -1.6881151161427506
Ni 7.0402999404253945 8.017817460439689 2.983599008515599 0.6722763708837518 1.2887867997507934 -0.24016623207508314
Ni 2.7619095487280645 7.595907542849537 2.603657176451395 0.6245806074696856 -0.08289005192701208 1.2981808393711838
Ni 1.9185871076215524 9.119932195937924 12.221707430884914 1.9711799473535732 0.30179248952731247 -1.0901456835026901
Ni 4.914566623073793 3.3555677977970046 9.243648839691234 -0.33645944478187856 1.7895561915990728 -0.4762881188774636
Ni 8.508957264300061 0.6128060787095119 8.973229498274643 0.2418521044179383 -0.6272643249494358 0.21235126674534396
Ni 0.34617522215494173 0.8614782458999183 6.448127425876863 -0.267230692392043 0.30053804829492115 -0.973324268935556
Ni 7.162262809518532 5.939861607175853 1.397033498349304 0.47036583985575764 -0.0057227614163901435 -2.08568274108986
Ni 1.9299995383145812 6.424433967061949 6.489716939246649 -0.04272067879697804 0.18108382409063006 -0.2665205536988958
Ni 2.6485589659125557 4.102018137532584 2.728641253992728 0.11701861817960493 -0.1959849095721786 -0.5357181400093225
Ni 5.872777884224012 6.742471422242666 4.895871053600313 0.4571750521970965 0.09460399792983062 0.2654242353109235
Ni 1.8725228897879458 5.079664611566008 11.761309344085062 -0.19226220930495275 -0.04764819800558246 -0.42275980794202034
Ni 1.8966741353707726 8.671899878472527 5.393638172943847 0.8763227173078263 -0.4245793776492623 -1.183400623603794
Ni 0.1933076012770975 4.871578879696581 3.6000821189705965 0.05060753774422252 -0.40710564634453117 -0.47872989554973683
Ni 9.171090097527175 1.5280038056786915 1.1474079925174703 0.8574479918905104 0.23008750768284245 1.7649926433270957
Ni 7.421156424925286 4.518677784343859 5.147471398125115 -0.4107977504841377 0.2036380552420622 -0.1002290574260919
Ni 2.5304923503974255 4.334936729085954 4.999446921765749 -0.6354070086612283 -0.960873444766713 1.0466973825110681
Ni 7.074316168471687 8.843933750993676 5.301831201224323 -0.06704588580590388 -0.08190146276149766 0.18290673623198178
Ni 8.07592966806061 2.291245800905305 7.4796969441097465 -0.7943700895934189 1.9035684188521864 -1.6253197780830846
P 7.395678795145692 5.8857930291548035 3.4215637014874676 0.44916015231242 0.10400652219065312 1.8134671938887155
P 2.3715196778138994 3.783068793216589 9.549618961981766 0.5766369897108715 0.39821502872312065 -0.29540149839930413
P 6.043697225579821 7.578369796247821 11.517986926488287 -0.3148953454578577 0.024926588038350617 0.007278535939284239
P 8.245541047222382 8.36571698205043 7.212000374697078 -1.4012473662460707 -0.9723261666883448 -0.4242276507367984
P 6.17530401310363 1.641345177492834 8.159151065406466 -0.3541805162107255 0.10124927116049014 0.2933227614934045
P 2.7160295509217875 9.018426960879667 9.407216880856481 -0.09268184120645327 -0.05061833637749993 0.027225411374856335
P 0.8726438217563265 3.584516447761436 1.4444194948789957 0.6970741466537221 -0.6087176722955 -0.02698115657453418
P 3.7740880668843024 1.5273221915775743 12.614199252310904 -1.69057309076494 0.03497497341328815 0.31292922287042235
Ni 3.9939086144945835 9.067668974184697 0.5165980905370992 0.2432047617910908 -1.093310197273601 -0.25446182276214885
Ni 4.4118762234998945 5.965072117915821 11.04053559175859 0.665178583496706 -0.625545028265484 0.5910853039257175
Ni 5.201747223676909 6.968214643731573 2.4172661161003637 -1.3406768037518653 -0.07573827137357923 -0.17209704721098748
Ni 4.6563730437708895 7.628707918715459 9.193565861961446 -0.36964647305680853 -0.13940932716997925 0.41787676881810615
Ni 4.236406647469059 8.91285046321744 11.253848566903478 -0.17589199547704545 -0.6445696489971029 1.3221273228844521
Ni 2.0063403176397023 1.5905188719527739 8.04358984226301 -0.8682605091249821 1.146884016734999 0.10521416934550912
Ni 1.0165445328039338 8.41773150676676 7.947630551127491 1.5936813252421973 0.2556303891489533 0.18736477200333537
Ni 3.0725045148046912 5.677734930289476 8.617891171960359 0.4305739046698004 -0.7519144915323696 1.553505781464576
Ni 7.160217967215181 2.4572372565300644 9.881230669876217 0.016460459548868427 0.11743976487742355 0.1795866707198133
Ni 0.4543851451078361 7.06380641591257 12.71846318227841 -0.01711789062720923 -1.424084161634928 0.15005832224339316
Ni 7.195671111474639 7.3419786571792995 8.98338002178047 0.4656231829644497 1.1995188693218954 2.198707150508407
Ni 5.634949828942324 1.827867955163406 11.605897644629804 -0.1276904960711543 -0.015844423231424324 0.45248458869996266
Ni 1.180749054163602 2.4187444818196786 12.70806948833651 0.528279167232774 0.23714235764709482 -0.1012533849255482
Ni 8.972270633032396 0.1225219768760813 12.73824012331231 -0.8121333271141109 0.1983698648645874 -0.2604339811851837
Ni 0.2818861170176813 8.039186983609849 10.407469915543578 -1.3928041205747237 0.4851062313897258 0.2633328999995336
Ni 4.5935171704462485 1.0697749097006366 9.38742612332053 -0.31416232394657506 -0.7009624259645347 -0.3718051712710242
Ni 8.872174681183205 4.665906430185163 0.06877117840217402 -0.059719527347819726 -0.29029605885193877 -0.15254226500751147
Ni 2.6809080027115213 1.6691531906181407 1.2068907971417182 -1.015876797585786 0.5184709228931006 -0.24329655017394874
Ni 8.820399642502402 7.279795186954408 5.200681510818811 0.23946483513268432 -0.4944871583839936 0.42118166482162306
Ni 6.514434661413512 -0.019045587525404518 13.400897062517176 -0.025009377560144024 -0.6420430259205072 0.055021607651518145
Ni 7.708806786598091 2.1274649856084933 12.948601893619387 -0.9664781925480002 0.6474850228716849 0.22631672778650058
Ni 5.8680434295216575 8.677426479292397 7.473549521797779 0.3640754067269343 0.7616445743359399 -1.0223757750465683
Ni 2.9564274755847135 4.190950355725639 0.13683310969913154 -0.0949338704654236 -1.0622291595980802 0.6082551308367847
Ni 4.5219200568248485 0.23680287082960158 4.745137621739075 0.5674735780440485 -1.6266675503602308 0.613584513469498
P 3.7638546443661784 5.546349206798461 1.6315391454381134 1.1681868919778333 0.5102904439648372 -0.13395036093793705
P 1.4900544800489257 6.402097288748313 4.30281796732115 1.6747780327142126 0.4889024652073644 0.34590902023055264
P 2.7755326197490415 7.056373137809847 12.656328530360764 0.29724549358657837 0.17211735892596164 -0.243868877737651
P 1.8756638412539046 0.34172262409440074 3.099631834929017 -0.1654245202868183 -0.053533710252082 -0.38963371481201287
P 6.729815506365166 3.2555363229573793 1.164209780110008 0.9947618699840417 -0.42457886342863005 0.7805252132905267
P 0.02452889663885101 5.69579770396908 10.822233938273639 -0.19049251899903966 0.713783231878287 -0.3319103919586155
P 8.733807018656423 4.71897100905727 7.152655735093327 0.1814160106190682 -0.6552626099345747 0.20521157037676915
P 2.110894394150254 2.204082094974608 5.795150328007998 -0.03680302776096243 -0.832963633595901 0.08599131656015513
