# total energy = -381175.8044935791 ev
CRYSTAL
PRIMVEC
9.18716080500056 0.00000000000000 0.00000000000000
0.00000000000000 9.18716080500056 0.00000000000000
0.00000000000000 0.00000000000000 13.44633849056770
PRIMCOORD
 96 1
Ni 1.7905317187053043 4.517281066362936 6.772597684739882 0.802651869986237 -0.4784085076545761 0.3786214228619092
Ni 5.646034025769648 7.72731182468156 7.518480308267354 0.3021087352161507 0.30068537250606275 0.6022058393189114
Ni 6.161470499492639 5.3914577979273535 1.4123495910205053 0.4825731805552269 0.0817911624358785 -0.5467836537948648
Ni 3.313404692482517 0.22876122450003308 10.976891473134268 1.1994592197285536 -1.915035024730889 0.9702129770000839
Ni 4.423167790360899 0.6363652348865624 6.855736897076902 -0.41535503083751696 -0.919944567762835 -0.4625910810063453
Ni 8.745037944915621 5.681854766020717 11.541664838187417 0.3333908331588839 0.41107491540492425 0.6955991047700923
Ni 6.013823637072808 9.00866352621965 3.790173324799322 0.8210938787415085 1.0923192941152415 -0.3352790513205322
Ni 5.767984399222503 4.87098676004494 7.970464736692057 0.05422816521594531 -0.1957044022172823 -0.8701014189884628
Ni 8.951124337660419 8.331101224538052 4.200488466360021 -0.5449350306219003 -0.5355872708584131 -1.993927525462734
Ni 4.023857030096103 7.336076578825764 12.013994234369493 -0.15206738225362196 -0.537558535652171 0.21862013047319123
Ni 2.8791643465715144 2.060716932873981 1.917716936424653 0.30086380706545607 0.0650576517312815 1.4499337757081803
Ni 7.547656893773727 6.295171251704437 7.170408181633813 1.3487431256997675 -0.21064611112877915 -0.21000282111782542
Ni 6.33518133731444 6.39984976271256 11.959617266583386 -0.2650401124986274 -0.4899846425279497 -0.7860998791648268
Ni 1.4268303939914553 7.555622162252227 12.755896061089889 -0.6907564319658103 -0.0991085706684035 -2.058244442373249
Ni 8.030589192321473 5.965306240492688 4.9158467478807815 -0.10975782285213356 -0.4838556468120764 -1.0934212689301686
Ni 3.5442412966241803 8.13467053787273 8.939771762967359 0.20400186633938414 0.009049254686461835 -0.17678931048033425
Ni 1.1924199842694723 5.235083132676409 0.3581522795454351 0.09306802090127843 0.914108163586716 -0.5121861183256534
Ni 8.421319144329152 3.54847657778749 11.032478390007592 1.5940096551158935 -2.0958085166699516 1.0531259117452314
Ni 3.970599058504556 3.726275702198602 6.714066282806166 1.345894857617695 0.5078988038042092 0.12132752996760394
Ni 0.08855596238883653 2.513166231638951 6.686756528389565 0.1928867302628291 0.4163364209141798 -1.6699214759528596
Ni 8.80018847164739 3.4014176936636495 4.168660466225166 -0.41481381362206626 -1.188728463574611 0.507432662801068
Ni 8.494926677258508 7.9652133555359885 11.227396869992914 -0.0827560974523091 -1.1884214738571532 -0.4226096555174012
Ni 1.2740846572860784 8.622958951210519 9.978891106014613 1.28248579723343 -1.0032753067716915 0.003941244035935147
Ni 0.2356966122444628 5.565627993792898 9.181361938913042 -0.977275026053188 -0.26909011419828494 0.07525001888325104
P 4.945715126601029 1.0766525700853962 12.575177256952749 1.0400968464754152 -0.7800832406571017 0.06508953341048145
Ni 7.855261414185696 1.6826836371953549 12.870283563710563 0.1847551022946302 0.09786107141454758 0.12303191425322037
P 2.5247512415021456 6.729779084050434 10.539334562147442 -0.2625201742902511 -0.05657481107125095 -0.0776920526658404
Ni 6.625118947364061 4.139165086236437 9.972974574411204 -0.6509115320547306 2.5922085758059423 0.043292492140048024
P 4.226433927386705 8.525510735810908 2.6623216258744336 -0.3830162094954952 0.6646409658256811 0.1847874981944624
P 6.014485112655798 2.0337434285454004 7.506041811158885 1.0476407202609441 1.28937609659536 0.09374962034933532
P 4.355752403861197 3.1900394962549337 3.837813347515894 -0.9306048756901586 0.1213943786497974 0.22249375449598457
Ni 5.1237163685513885 7.70249730315857 0.7784593772736295 0.10987609359755271 -2.397165718432059 -0.1305557334340913
Ni 3.19735247631132 4.673977282244501 2.230263230671209 0.39731000041034803 0.2124245431854406 -0.44921697369228436
Ni 3.205326931950696 0.36765088517395006 0.14767442390245547 -0.43981650631399094 -0.21159433397466137 0.12167257201184851
Ni 8.558244590008025 0.9058457938161376 10.488359600033297 -1.8242683982692776 1.3481435444425556 -0.9736289446601682
Ni 1.9032122468354284 0.2784371220664737 2.848876114599285 -0.1366189089090357 -1.4173643264125912 0.569458212574245
Ni 7.956696857404996 2.686436085738759 8.663166560779331 -0.8788331424345057 0.28339727484957644 0.027847875450203653
Ni 7.217406021805233 3.647367177444453 6.134112053123402 -0.16378261380802114 0.6178368609879489 0.7451244651937295
Ni 1.8925827017032184 3.1904437313334277 4.659882340030296 1.219172638997081 0.6151837396358181 -0.44874723314471743
Ni 0.4994517325168271 7.4673519205666 2.009300068321755 -0.003688761705496873 -0.45436689332434005 -0.24935329789098992
Ni 3.4700825340423327 3.2681487380129703 13.69065844375964 0.9594516247185219 2.116182966561246 -1.5578216352311105
Ni 8.376880847177468 5.065534078730918 2.633075217945413 1.1514307555654169 2.693295353246639 -0.6600353487328697
Ni 1.2078084787348584 2.879449148558635 13.199168304856965 -0.5697281784061801 -0.5174787341831604 -1.3793035149851278
Ni 2.442967135394167 2.0230311989653167 6.7954433976873885 -0.9521586906015346 -0.4617063644085468 -0.30103529964631387
Ni 5.0343896033651525 1.008630830967953 9.081805270092651 0.731170831227115 0.4756479141903034 1.0635769318752262
Ni 6.155416160476109 2.2785537043777215 11.197035140733686 -0.620204589889177 -1.6877561901414353 -0.548829737690616
Ni 7.752824570431038 3.1301024587073654 1.6415159693151196 -0.9889604328109163 -0.9528042946053332 -0.7993248624955331
Ni 4.956712158168234 6.2586431000660045 3.3234242101326363 0.2554146735937214 0.3328488446124848 -0.32760610815630675
Ni 4.218882081147573 4.739518487925734 11.569337485458576 0.19223958359713345 0.24863596010899114 0.2839310358658594
Ni 6.542039451572726 4.432106897892135 3.926666973917076 -1.1797139187808263 -0.18156539171273892 -0.5662880423763795
Ni 7.228908347220554 0.3791100309331595 8.379032480254358 -0.5502281607000395 0.6666178870463939 -0.5733225806256578
Ni 3.5168176214127316 1.0980862164064382 4.615361358430738 0.4052493098620827 1.0221765145515687 -0.8860443154709644
Ni 8.035908558468016 6.689612816705559 0.282506115617948 -0.06530884851013914 -0.6324121876989626 0.7386226595194698
Ni 8.67274417599137 7.895308248439199 8.741572547833625 0.41749573132960355 -0.3873418334540426 0.13738586898204727
Ni 6.351837659980557 4.041799555284699 12.616551635952668 0.6246844800374015 0.3274901514037328 1.113320836067573
Ni 6.559522618717579 2.08297742367376 3.4975402017490187 1.1508139479170245 -0.24808780091500504 -1.7133998588514683
P 7.210295159288093 7.828113353800494 5.502402871368218 -0.903499020612302 1.0675744830703937 0.3158019164325271
Ni 6.991016003527001 7.154630151547333 2.8126244965031857 1.3356922060530805 -0.8409985880852354 0.026422712967902884
P 1.0583517456226805 2.244616332105999 10.596992265081958 0.9711817686712564 0.8827941839647828 -0.06945012437202233
Ni 0.8245568756793132 1.0863909606127449 4.899227173858165 0.2265560974908163 0.5195762401421374 -0.3269304222455208
P 7.020010683248049 6.690733650332291 9.143617407174778 -1.205706486189846 -0.20846838675117 2.0822287211029886
P 4.309035690812547 5.505112165110213 0.3212226489767714 -0.3623388836518017 -0.20180485868806536 -0.970814615139825
P 8.910002605584559 4.5823261653569265 7.2035260591554975 -0.1454197950301173 0.08705189661418557 0.3314085126215325
Ni 5.974713893228541 8.568966006748981 10.329517263371365 0.47112328684707255 -1.1701067347083653 0.5559745762655134
Ni 2.7075757429118052 7.084633172841795 0.9574050593619241 2.031383870536979 -0.5399190654645476 -1.0126330938375079
Ni 1.1262632388096254 3.3342962963119422 8.797173245448262 0.2724222638953115 -0.4314100274178506 0.06550553790197751
Ni 0.8381566299223644 3.539372101360506 1.8930291977217366 1.1842146348646572 -0.8098805265241923 1.7557479848003763
Ni 4.569271209753754 3.4573675033915303 9.399017723347546 -1.358363422398351 -0.6971685061397412 -0.058402865418925226
Ni 1.8214740765318234 4.370121123469473 11.319275828470188 -0.5512733141351022 0.18174922558877085 -0.3978645873622374
Ni 7.537670449902756 0.9813082145261277 5.481776776488076 0.8213571597052242 -0.6075437065920568 0.5532157825734537
Ni 4.958733333560702 6.266608368544506 9.645744440938364 -0.38303780676205 -0.1291771079190098 0.9720091496685582
Ni 5.217011987235565 3.33251398710222 1.8882831104137852 0.20625132449519318 -1.031034993383463 -0.2469356895884328
Ni 0.22810342378139328 8.30713192181555 6.402138284486488 -0.6119454352041784 0.5486713577358808 0.6901820475195791
Ni 5.6858144323577795 5.840783461994872 5.8020007810777505 -0.10032110291926594 -0.8591184376143979 -0.9528302627472623
Ni 3.486766418191073 5.182192647519856 4.732936805874986 -0.3931818371745874 -0.563681457991468 0.7062882090528223
Ni 4.792647839265033 7.861242255915229 5.197951384568498 -0.8327800568301852 -0.21434772835008245 0.7353707282410755
Ni 5.5463992660818215 0.5569385542590714 1.4352890130089362 -0.27090736991268183 2.8020648440435743 -0.4093265652552499
Ni 2.474084049277308 8.306121334119316 5.027881418601403 -1.3505850640045125 -0.3881046797619961 1.4804836234705792
Ni 1.0281627349878997 6.109939714145565 5.47910055652523 0.8036111485757128 1.1120877349914202 -1.3216943491120914
Ni 3.46188758654196 2.3360285828108287 11.599295898355399 -0.4440950790846868 1.507518001880552 -0.8496166687715496
Ni 5.526104827709262 2.1894290567307313 5.407781545369801 -1.643193573039712 0.394698788039746 0.8716358533551182
Ni 6.8176359034966945 8.535083757442509 12.70960012000931 -2.0652946643518106 1.8842082691580195 0.29082904853727337
Ni 2.7401993511784233 7.08791298927412 3.070081817995835 -1.047772360742802 -0.6423631282640873 2.153223821364627
Ni 2.8679835717868127 1.4012165894723532 9.095695338619349 -2.0404647497923243 0.947425289681607 -0.4835579130659995
Ni 0.5474766972740559 0.8356806900665903 0.941291697903512 2.206200887782291 2.28505790729051 1.83494207593304
Ni 1.1528325080597126 0.7274550162446844 12.003008227395338 0.8123603555232525 -0.45608464734639514 1.3802537947135392
Ni 1.5710136967614647 7.091900217093808 7.8401163794834945 0.2030482441768632 -0.8827353057023893 0.28082874279145187
Ni 3.709141647166993 6.416046727334933 6.971993986935608 -0.5255304008430434 -0.5447918201758166 0.07675025757786137
P 8.666965451801085 1.364229079790178 2.9953736631936714 0.9776509213353678 0.589918794421442 1.0362767013983765
Ni 2.6421631574828215 5.141640519418235 9.006545885637996 1.2634953721738562 0.6773087911013368 0.23166950745798165
P 2.3833148998337186 8.985126020058265 7.222579312093865 -0.49468384777583185 0.5091357615351039 -0.07594961605343695
Ni 0.4711396588487795 0.900351871612973 8.205116768745048 0.8117121804162925 -0.5750159091676806 0.31452613504389704
P 1.541146236757304 5.219474146350026 3.4225371390827712 -2.0828514422886517 -0.2912663931850081 0.6943909433946042
P 8.851544700937842 8.682399882070845 13.23930517328704 -0.8193470712537309 -0.8407383924453135 -0.6785514052591862
P 8.438673691221757 4.3829739615333985 13.40355231669165 -0.11871606048668587 -0.21249601985332434 -0.28781314452908496
Ni 7.785429804375907 9.071512893764549 1.7638365853512314 -0.8380937557336147 -0.3848087826195437 -0.12308719297118802
