# total energy = -340863.1134457837 ev
CRYSTAL
PRIMVEC
9.33201447738163 0.00000000000000 0.00000000000000
0.00000000000000 9.33201447738163 0.00000000000000
0.00000000000000 0.00000000000000 13.65834648212677
PRIMCOORD
 96 1
Ni 7.279596686653596 8.822160047378336 13.107710475750025 -0.9230682009934812 1.1705042272571002 0.1648755897618838
Ni 3.074441564653695 8.433388316275765 12.572193747181904 1.280498848710388 0.5976763268796739 2.3076321930465995
Ni 0.9274408142258145 0.7221318255046886 6.934888862414207 -0.6413850806215342 0.6219886783727934 -0.7516332128465248
Ni 4.804933036778905 7.9996176104401995 7.265079804634797 -1.3011136967472623 -0.7105606111759311 0.37095799277938046
Ni 0.6286334373364273 2.792222777039582 1.4773820378675122 0.03785383762297997 0.7525806643614587 -0.8854231369471977
Ni 9.106786494777001 7.912559245594884 7.6862616226821405 -0.2095269099226714 1.2037686457371848 0.9752132584281527
Ni 5.203344739034355 2.4510163247039296 1.5432977902791756 -1.2196210393884093 1.6177039134090396 -0.5535839645461498
Ni 5.729306417783082 5.568506473024839 6.920343051149935 -0.0503357721400746 0.051264711712247196 -0.1288312945438168
Ni 4.490938739217499 3.5579612406886802 5.262437855521653 -0.032499001068969836 -0.36181257883468654 -2.0057396876063134
Ni 5.846973790742092 7.114970615881142 5.258818900233088 3.1600709046479767 2.172309891461801 0.2537316294643437
Ni 8.246048121799431 4.813630474450235 8.574231747664761 -1.126089705697467 -0.6988628631230287 1.2409298281685144
Ni 5.059445072841324 2.4214338382038063 10.725476698364016 3.029434181464305 -0.8515789347042432 1.5354707783397363
Ni 6.698818753740287 2.95220150450697 7.363542824606865 -0.12748532203888366 0.5054529133668779 -0.10077541684786516
Ni 6.885365726969773 6.705080535583058 8.558607155504776 2.4211006319811017 0.6833794227754488 -0.703490334592711
Ni 3.549833055912148 4.848550873340917 0.8110145992177571 1.1118784471940917 1.174606679461248 1.9930651774624386
Ni 7.570158295381624 8.463820016110752 4.1990127899448915 -0.2949263585350985 -0.6457382153839072 1.701002256518064
Ni 7.353552902903905 6.539549259387728 12.741652868351334 0.36092786223688805 -0.9030277374028384 0.16333549896827354
Ni 7.383331361712074 7.979507118828918 1.991073050528223 0.15044835859296024 1.475456345459317 -2.3124900353595335
Ni 0.4005692640468784 7.568123916183823 12.48278651424445 0.477334557864107 0.046650867089319654 -1.3701146493970082
Ni 6.468206007244686 6.2615112143452425 3.1138161341457993 -0.8923471177605407 -1.3941902022889732 -0.10898880589659293
Ni 2.9068199171725535 4.950904410228411 4.162940820444078 -0.3827120479915151 0.005908395064634985 0.06439430711566975
Ni 2.628175291176594 5.764749409495218 9.265112522446543 0.3664529058201753 -2.0132781620752036 -0.8049902883114265
Ni 0.903433273288837 5.641361511544229 5.2455702390077805 -0.6253236562832973 -0.23955019575763908 -0.6581389030411052
Ni 2.5265589834479365 6.152121338397467 12.613155692369173 -0.2985102192316149 -0.9962443680668391 -0.48908372798023514
P 8.823895802106735 6.387950681092931 10.435796031820724 -1.091317335213288 -0.38183787291667787 0.4433882828256493
P 0.23272271501221825 8.29040318752028 3.174459298269586 0.41911166966647173 0.33267555225941414 1.1698210851471467
P 6.106851735239076 0.7194544704962074 2.0196047521766385 -0.17945503023795548 -2.4773512269437137 0.2810339168237225
P 0.7414537618764571 8.801638947121626 9.514978148405364 -0.03428617487637966 -0.021492879766453307 -0.24287206104202044
P 4.390572921454461 2.793902539679968 7.074081460408289 -0.48866978037126807 -1.8828754092792088 2.9052097895648803
P 0.7217594781194031 3.2017769048095897 5.782779795036823 -0.43539935108290173 0.4825420702069754 -1.220382600144782
P 8.069589056426928 6.635874314799172 6.342198612776163 -0.2498955435477051 0.44310623280885625 -0.11032269421666806
P 1.7031953292189448 0.5755576039075778 0.47420445899258035 1.4984391795077354 -0.3346964393441849 -1.0123469300556565
Ni 2.2464212351049677 8.188693559644934 8.036161779883255 0.6859914064769992 -0.3093582176897124 -0.5035011889571458
Ni 5.098938158919723 4.223147246281364 8.480891070544402 1.0707911902354785 1.0056504918720874 2.122903316004215
Ni 8.794331979635949 2.385953518432996 9.74128323692984 1.5061856562223737 -0.4562419988598658 2.109563404362199
Ni 4.98851242934371 8.33567279067867 3.469097131004949 0.10962232571553379 -0.8239822560328971 -1.1284906018294758
Ni 4.985358208385652 7.342830418049443 0.8670533473039533 -0.25389772272856276 -1.2285648788452581 2.428266296491605
Ni 7.027454982317054 8.962578872099902 6.884120836212954 -0.2824292545093523 -2.318727274518497 -1.2294493383327407
Ni 5.069486320624963 1.3771067406467623 13.10069000111468 1.1378357904898015 -1.064851684822592 -0.8593084421380168
Ni 3.7348775747799556 6.909871597490064 5.213431713689871 -2.890966392271989 0.40978679272112006 -0.3937724195707347
Ni 6.9054388905223805 3.0108438846857637 4.046913082462379 -1.718491157331447 0.5614669668386524 0.23569276968476183
Ni 1.1579070480911147 0.9219563892049555 2.5821516612329636 -0.3616418575847772 -1.0427875059337008 0.04525630073463818
Ni 4.200162494152089 3.641277467651804 12.599388171128279 1.95798993102586 1.1868417880748594 -3.2070876397171477
Ni 1.5410889024070689 0.2075486722416399 11.428895034853342 0.6240728145953317 1.0676577868128192 0.31676196635295123
Ni 5.053089970851866 0.5742987151287555 5.96693590610816 -1.1488061734583763 1.249244261571481 -0.8627426646305464
Ni 3.0506915873215767 2.5148193089945745 0.24372329390380992 -1.5809358526510708 -4.302996708066177 2.9081768426130044
Ni 1.8038504394367152 7.556225597481093 1.3163870540026916 -0.3701576083652721 0.21125906212242973 0.07690169555406111
Ni 7.313761192356105 2.7214207817473306 0.6728755856797826 1.1155561531559948 -0.8462914610530586 0.15254277922814374
Ni 5.0879637096692045 6.862035690297751 9.785126908246838 -2.476981245198805 1.1144022420572097 -0.5397727696946704
Ni 4.286455633794563 0.9008669692549147 8.488430405195333 0.5461185094070402 -0.19317777914068665 -0.12923598618140325
Ni 4.971294862279758 5.796403603251816 12.645266221643077 1.1114770979906148 1.926696520229217 0.19892188071331549
Ni 4.798428622554746 4.28866732127107 2.96474933143065 0.8035728391386096 0.7972942052187494 -0.2158040011806348
Ni 2.120224400738668 2.677606972877274 11.458150900840058 -0.031560291304784355 0.504853332109666 -0.24116999074924916
Ni 7.565240323651161 4.190457198896528 12.453380402821566 -0.352415968111135 -1.3262133200283677 -0.7099499741751256
Ni 0.7469204560694451 5.826350038324024 7.749185531190983 1.2587825400792192 -0.4805288964316885 -0.7893338127210923
Ni 0.5606011839978782 4.5564681462218735 11.592139034253346 -0.1658112142022757 0.5456387415571441 -0.8984825412343171
P 6.969531167267758 3.2719349910896933 9.682934815213114 -1.7158866298290645 0.7647815773030248 -0.4404577394424157
P 3.183691460381439 2.78135097995042 2.487225474820374 -0.3463335093624809 0.25307574104789965 0.8442119528162106
P 5.242688512878052 8.239366399296564 12.749711996219318 0.00929788036215818 0.5475845524296054 -2.1433757249259537
P 1.3777319856295722 3.8108868342574023 9.475205101886901 -0.19924429704974073 0.14864524394595047 0.6775751573888459
P 3.312771887280401 1.1139719230303633 10.586666712971356 1.2612016910436732 -0.8273501440638654 -0.2322976279602838
P 7.111060501734911 1.5368708317767672 5.698153353214199 0.29919978909947176 -0.733260366766292 -0.008375882768521059
P 4.187956218965287 5.339190876568203 10.801239592654207 -1.4522493112152344 -2.161695092060432 -0.19846473857123886
P 1.8849363148939942 4.083493646762642 13.44787174244277 -2.386915244348644 1.3725132315361719 -1.6618469264748412
Ni 2.124022530708873 2.2940518379745676 4.504932095213377 0.9690937757939762 0.135459855603928 -0.5669842971124558
Ni 6.546035009582551 5.25688250718931 10.62952678994226 0.5754792219573444 -0.2869209717321188 -0.08180350373105266
Ni 0.2816644659427855 3.036086984364891 7.755032038380992 0.6346683307229908 0.6896467438413995 -0.25700412956802837
Ni 4.527081632029795 1.2502939933123207 3.57168490146063 0.5573231198736079 2.0322464756475904 0.28770670085820776
Ni 1.0892794122166956 7.971024317494971 5.716072687781244 -0.1928095971679905 -0.3271132276802883 -1.3547908745557442
Ni 2.6015697173558205 7.567535999259689 10.481838325793692 -0.4864547749978202 1.1927764083917392 0.4032420496240668
Ni 0.16575804415178078 2.1459434331659044 12.658883497447802 -0.47455056736106654 0.5221524855097459 0.1405336705824096
Ni 2.4876538142936724 4.3488214878262115 6.48128202619862 0.7447457416980723 -0.3709268824311289 1.0660930134288609
Ni 8.954077406736618 0.3696569654564496 0.5289973831204906 0.5396928083863544 0.13996674233534606 1.258535971286052
Ni 9.170682799214335 3.174060821243228 3.748137434422866 0.9556165672431477 1.0027196913785377 -0.1682465631166457
Ni 6.138002000203559 4.926239895458749 0.7714356586044057 0.5288856904685214 -0.35245427754823816 1.0600154397762132
Ni 8.906866744527113 6.161014748376841 3.0208711344473986 0.14100906755693135 0.3425537306050746 -0.23773602536703572
Ni 8.153670508592894 4.537934765089619 5.99564584923675 -0.41998970139605085 -0.37062554914062623 -0.25476289894233545
Ni 8.163487788024481 1.1978574028882847 7.812970784653758 0.5376207563486741 0.3635796980374384 0.7143470748015569
Ni 9.227048167813939 4.788863307519216 0.2878814541151458 -0.3078654351942698 0.9435223550827752 0.9422694565122803
Ni 3.6430132223802025 0.03950521769746787 1.5669264514205994 -0.138736983693303 0.5656612074256581 -0.8456414861738856
Ni 6.783992051622504 8.072118032402175 10.964743022062002 -0.06740506891753553 -0.37914952745123737 -1.0983084218191408
Ni 7.9659663655444755 1.0897740089941423 2.9565810189910415 -0.6529648150393335 0.888752972651379 -3.385783937412208
Ni 8.75288850249177 0.297233066014759 11.038060928508965 -2.7334145898650277 0.5847117962992059 0.4060656351157909
Ni 2.7131432847360974 9.314825097788754 3.9623137034822937 -0.4565050227132654 -2.11072888542521 0.5811425908907089
Ni 1.524729880692647 4.97534495664602 2.3742717024705806 -0.12461751357278537 -0.10689978457804815 -0.8407121671930682
Ni 3.523087501871342 3.082299121004832 9.424628381986357 -3.7008862566745484 0.7353470740919916 -0.9745339729729411
Ni 1.825771341893747 1.3620262049419674 8.882486856204851 -0.252956441861216 0.22154527453978617 1.3857094185114718
Ni 9.091864603321577 0.8866608433245872 4.694865656566174 1.9523396747186184 0.0246476233453511 3.1808916980480704
P 3.387372012542857 6.323867736362222 7.270597824908465 -0.29921290172559434 -0.6109560747077155 0.2842136001032847
P 3.4025925284676846 6.37150767124649 2.5137097324504536 0.3476563419389625 0.2684267695826732 0.2902922021971968
P 7.296916905878906 1.7892085084213545 12.280725066628069 -0.2869325416963445 -0.3213236175817047 -0.2875727463835047
P 6.032046305653905 8.656796747447046 8.85155122757775 0.2704828807807535 1.934407772830546 1.1303433387674986
P 8.89114229981017 7.088645002500432 0.6362698249399136 -0.5348244245504596 -0.2351410109463499 1.078600144756936
P 5.942561616994699 5.077997118002916 4.920542700503442 0.9930047780836189 -1.722687969021614 -2.178328843962371
P 7.939472775899729 4.313938416994204 2.168945916123051 0.07474068334700032 -0.18613347069939556 0.06265624137864048
P 2.696718938918994 0.07365759178090707 6.054075459481094 1.8352112704340264 -0.18290673623198178 0.42484265861297804
