# total energy = -340871.1716200999 ev
CRYSTAL
PRIMVEC
9.20923500404202 0.00000000000000 0.00000000000000
0.00000000000000 9.20923500404202 0.00000000000000
0.00000000000000 0.00000000000000 13.47864631215569
PRIMCOORD
 96 1
Ni 0.3264296219268559 8.00937295753889 10.574860455056319 -0.8035514989823709 0.9935629645799342 -0.31072861567467774
Ni 4.83066736810871 1.1564404724902737 0.7037365833851414 -1.181566398608533 -0.9243023305108984 -1.7878507788721918
Ni 1.0702972885535191 9.097609835819668 3.2089155638353675 1.0889593765040728 0.7697754309731905 -1.1671371105570805
Ni 7.837887793108025 4.123757282351898 8.746320805006896 1.153104286613098 -1.5697631238637029 0.5613319839226849
Ni 1.1065632558769039 7.0409021800810185 12.615797295903834 0.013953376856298551 -0.03222209325849935 1.3742088740710396
Ni 5.171887942325584 1.6262219669292008 7.694312136186111 0.023270540492166373 -0.8339144275449445 0.2622401811559871
Ni 4.86921722570538 3.4543472014048424 5.597291054353475 1.2028106526992897 0.07090845408510368 -0.48007689649593455
Ni 6.950670095816284 5.831803302015551 0.5314925779925077 -0.2486837826277911 -1.3477079995670338 -0.4401070409712163
Ni 0.9833529011741199 3.2654013274653093 9.930729724109947 -0.3886340699029049 -0.10223914587758522 0.11554871850229777
Ni -0.17239779961668159 2.2443734460169473 7.848426841611041 0.38681784262977253 -0.8572939828111494 0.6191743488524498
Ni 7.0443648524308395 0.6962531590461414 6.937499968881503 1.4377799139544656 -1.4700950811474036 -0.5986109228788014
Ni 2.7723665147197427 1.5124694965436125 1.8633956834984529 -0.30623381312811776 -0.5247955795595478 0.9565326512995138
Ni 4.475531639847745 6.257058145360378 4.979874472216568 0.02354127765504978 -1.1755973255092915 1.353508922519527
Ni 8.24793818951255 6.032960621529185 4.7773716834733895 0.3762549795122617 -0.8381053256978405 -0.46725609058218237
Ni 0.35953313796053743 3.9369847878659754 4.378389866582824 -0.6480138987919614 0.7037932105451105 -0.055731489234349174
Ni 4.753659745265098 5.563105453210475 0.2895024315324151 -1.2659433194937166 -0.8043107457458987 -0.04064682698708484
Ni 2.9194287880024063 4.315162022029202 4.415712133157603 -0.8141770970170171 0.18488777121775254 -0.7351349580811856
Ni 4.873821843191844 2.5021675606140787 10.090451932709893 1.9703685071958712 -0.15400599403723156 -1.0334898826818588
Ni 6.5308579103404565 7.586355958292483 5.1641954683526965 -1.164454678628911 -0.7918267543462749 0.7741311368387248
Ni 2.8328343515519783 5.6714521026669535 2.109327382526958 1.7097085260428104 1.0050712223298497 0.9205647178453372
Ni 5.5075461386188085 3.895801089067048 8.023797382276983 0.07954864625860493 0.35536579476807834 -1.723332287473832
Ni 0.44365673666772926 2.0674087867771913 0.8205327059292818 -0.27754441561322524 1.5385959542322791 -0.3980772175936757
Ni 2.8483150755414677 8.886432868655492 12.661530356779386 0.7712808118741232 0.5832948613470212 -1.7594321185201827
Ni 4.423471834545791 8.438357541047752 6.088331146803905 -0.1373483308758925 0.024258358326732413 1.4188684217619434
P 7.058206332595147 1.3430932469215482 4.748082632565494 0.6919993032339758 0.2657363672347036 -0.1875583760713802
P 1.3477070736429844 8.483749860229306 0.8256852728966343 0.42361778506694137 -0.06415108075661209 0.7609575755712443
P 3.435320921950776 3.7422555143634444 0.4633543693513218 -0.00868364381692698 -0.05574871562552979 0.557863051537478
P 0.56017381939219 2.667261515973733 12.016347931199107 -0.40119365173547034 -0.611345082616018 -0.04559517213129567
P 7.254556431452913 6.883101938819922 2.9366868943416704 1.0458355487314053 -0.05430735519331293 0.6796060717759457
P 2.3967494478789892 8.013959156555407 10.13954083880958 1.747135817651333 1.024774871406364 0.5540480486667618
P 4.821384459256 4.454101750065744 3.449266466470279 0.8855324088315523 0.18066910515071463 -0.29862643309450504
P 5.334080988668765 8.19195525011213 8.248284456747532 1.0704911424965564 -0.49831810209430955 -1.6050581996205713
Ni 7.5348763347938235 3.047667385000408 11.192896818706904 -0.7085363816570508 0.5196369181767437 -1.0357172293504808
Ni 3.098152411121991 3.5108642764336926 11.237362688850183 -0.04247256734191396 0.2398607850195224 0.024542979446686763
Ni 7.331352241892147 8.46057021580245 9.10784497956858 0.8874903038888716 -0.27661187649662683 -0.31366841502929205
Ni 1.535603094795604 3.9797340566103 2.173552587228148 -0.3994144483478605 -2.4279251111021027 -0.9716977890757266
Ni 8.671047281108686 0.15463594812439824 1.4696437911490126 -0.9593330968627864 -0.40894115689137317 -0.24302864122454276
Ni 5.149923916915153 8.18937666431971 12.512658468824544 0.4640872059358975 0.1781820770628028 1.5272635599385953
Ni 1.138979762981605 5.01016456696602 8.365320019400968 -0.9156942771269134 0.28941468468824993 -1.134507240337201
Ni 9.71786102048124 1.4032111328248125 5.636985619857279 -0.42839155230650094 0.5603968737029252 -1.632092320920228
Ni 2.4370306416505696 1.9062195470460586 13.117796377972045 0.8462580367119619 1.3847552821283184 -1.42982672054566
Ni 8.736966985044894 1.206897870906938 10.531594548230013 -0.2691111972442075 -0.36804853244206936 -1.523705410273692
Ni 3.4708225227714085 6.4523768099011765 11.768516366995685 1.8371622235128102 0.6428377539076606 0.7791270473914195
Ni 3.1652877340746253 7.837316820539703 3.734299656270333 -0.06515715342362326 -0.3100742699201305 -0.3647423508869718
Ni 3.6223052288410766 6.442541346950091 8.73993143778268 0.003490786762077859 0.9993816281442403 0.4490969031746524
Ni 4.559169911871863 2.2690173588044984 3.2788827265421765 0.7643779141067029 0.682567725507431 -0.1998428498656881
Ni 7.160005215985877 3.9195240783573064 3.6814902192415833 -1.987719082659177 -0.8429590542457159 0.4518747230301057
Ni 8.600053288702396 4.889790656634898 2.1517441978887604 0.61014951964602 1.851606423962598 0.24962069261976363
Ni 8.791006775866027 4.995300861719717 11.232483636161525 -0.0354151462745003 -0.4233974415260192 0.8539680037617099
Ni 5.284028796590909 7.47435324255175 10.377964248564659 0.7387291031903471 -1.8916320724259164 -1.2663405549321354
Ni 3.141012190685991 2.266696631591321 8.622720899664758 -2.1930041865863585 1.2728181922366788 0.8455574111005115
Ni 6.418689428370212 0.3216868659157987 11.059795745643196 2.3618112501921646 0.3909303221362493 -0.47165679075303935
Ni 5.351854812166513 4.788433816522868 9.985601108849135 -0.5246528833340964 1.579916153137305 2.714992378604099
Ni 1.1023085893194116 7.471120801076253 8.472528407414796 0.06209445533789951 -0.12740407517898703 -1.5952000758795688
Ni 5.2825921559351325 3.508046250531977 12.25314038544048 -0.4100472454713583 0.8503856857270902 -0.042415745962049535
Ni 6.805661481932583 6.02580504595522 8.456421455447147 -2.002439419588487 2.710548226789816 -0.34870252381528977
P 2.8755928295312763 4.468302390393998 9.350972466547828 2.025661109120589 -0.8232466634184531 0.024153714428068077
P 2.8814406937390844 6.879593220295238 6.585181345598755 0.9674120172161791 1.505096536923253 0.11669620184317966
P -0.19417027293967445 5.435575967305387 -0.12591234424384043 -0.1838971251697091 -0.10886796404801251 0.41003696105871323
P 0.12298657029294169 0.08502149911705213 7.2305387466435205 0.9693886813265757 0.1359751046774497 0.9846196393437172
P 7.030689138496043 2.032257136885531 9.032795240080212 0.3530240340087791 -0.27479642055444287 0.02841171837347365
P 8.727435426847915 6.0858768856836205 9.443827340932852 0.11449379487522217 1.7608930193364252 -0.5556130791610366
P 8.959323963466204 4.466451334164439 6.717810905831849 -1.4730893878890372 -1.493536085779163 -0.02977594571085195
P 4.2448126760710165 8.905367055759827 2.187179492217587 0.5157198425105247 -0.4326349009638871 0.052046584183594244
Ni 1.093882139319184 5.898938624968185 6.0808099646015155 0.45915557296223497 1.055488498440137 -1.4607378083022198
Ni 3.3612510450635287 7.254123597409186 0.6014763173222683 -0.6823684650124312 1.5293410112929144 1.4458493212261616
Ni 3.45622588533932 4.859602784393645 6.895985658547047 -0.24652097064851736 -0.6944271959491782 0.776535118294527
Ni 1.9589516265010356 1.2716572112365574 10.66617830812436 1.220520154163911 -1.3396578755690476 -0.3109934393002902
Ni 1.5876813185675034 3.509805214411806 6.200985876380721 1.466154865552733 -1.8347975799353757 1.814415673844914
Ni 1.7055963631608546 5.928601570815982 10.69134346361138 -1.0407913014392784 -1.1862645754151506 -2.819455528716196
Ni 5.535026495778021 3.422105669764627 1.1435024182768092 0.36485187988164264 0.8238025359219231 1.5401285888267218
Ni 7.729393795891977 7.260671363474937 11.718739531043521 -0.8189935445690539 -1.9199697430283449 -0.8533748502624012
Ni 6.7187723499630225 1.3558940835339162 1.9249529728279857 -0.3830619751317661 -0.1864152636058725 1.8288652736113404
Ni 6.858190958218157 2.0401586604923017 -0.3688703812995876 1.30178526889299 -1.5627586675214118 0.4839098970887795
Ni 0.595434138256531 0.31252643988822865 12.411730779062252 -1.3655632825808999 0.09942275947471266 1.3151958858719415
Ni 2.979113839861943 0.9357595748340358 4.455461033147749 0.031240188961204264 0.5140445116906309 1.2789718705429005
Ni 2.5152815112155262 -0.000646488295099441 7.582816849292387 0.3459182762019333 0.7718019744849159 0.29973740677049665
Ni -0.5323471949979953 7.060867801502322 1.2228556332680252 1.4107064547764414 1.8209107946509542 0.2050786443433307
Ni 1.7169973960573375 4.563645600068706 12.782689814853699 -0.30736664118098034 -0.5884746057757477 0.9011117513270482
Ni 8.486558676896049 7.465447912332931 6.8396444799061795 -1.1148493568969575 -0.6268346936111849 -0.5015916306392588
Ni 8.68977886504362 2.0292917632242484 3.23802871835528 -0.8532318969266337 -1.159616376700003 0.12034999654568307
Ni 7.305861079487087 3.040631529481092 6.274970107382721 -0.19656212223188727 0.7482676388084016 -0.8754513704464665
Ni 8.377309522412222 8.462412062797036 4.231284309895788 0.023470829428430547 1.037283545396336 -0.18919462612322255
Ni 6.291905890497932 8.070061816010474 1.299509621488676 -0.10797964790578825 1.2440475478618898 -0.07649494703394567
Ni 1.5707455354522915 8.43252809530989 5.489771394197563 -0.6035291861160251 -1.2144649491087665 0.5919846758115352
Ni 5.333307412931039 0.172638160649475 4.218358227687788 0.08924273361791728 0.09377713115316108 -1.5235128346469116
Ni 5.185563656260379 6.545988683400974 2.7763992387143874 -0.8776231812868047 -0.2228915041550355 -0.8257064378128554
Ni 4.2725508918094715 0.17475444284625347 9.578788679461091 -2.192883601848094 0.9150507300056434 0.6048065101665518
P 7.491703441240744 8.771648963952936 12.991056123504139 -0.22985353729516544 2.7088690393151804 1.97817206240069
P 6.563228371270292 5.532438700750628 6.343455504182386 -0.6920473828630921 -0.2946761901975054 -0.8180620338937201
P 1.1728789569169475 5.94788570884929 3.6063327317040326 0.28541893326529555 -0.2935171368923978 0.20351387095937207
P 5.8563090762785075 6.023898734315825 11.975601671061392 -0.7123413572254377 -0.9539579485938022 -0.5831269683105893
P 4.740159006794788 1.2375277864268917 11.706999598300035 -2.384713608711635 0.1891879412550032 2.9878005650839192
P 7.813124160265825 3.1452944849484017 1.4494129437604875 -1.0035956662255876 -1.28178979960767 -0.44930079165534237
P 1.5665645427745831 2.243756427273761 3.4940288739796856 0.46624718970169376 -0.1039720694082919 0.854440058302122
P 3.439897911732321 2.1262926351940834 6.577430853445541 -1.0297936647771941 -0.4225811162723109 -2.071473539469013
