# total energy = -340866.9383083766 ev
CRYSTAL
PRIMVEC
9.30209841540016 0.00000000000000 0.00000000000000
0.00000000000000 9.30209841540016 0.00000000000000
0.00000000000000 0.00000000000000 13.61456130145601
PRIMCOORD
 96 1
Ni 8.55772566519109 4.235570867737908 10.7663405063776 -0.5501273734561171 0.8282014363205673 0.5292764981490368
Ni 4.7379120749160295 8.079132714626965 1.525933856893002 -1.253751405413215 -0.7169521165245717 0.9819552051376766
Ni 2.5239196907806147 5.410779345645979 4.083034131826429 -0.9903850810725846 0.12225852642230557 0.8768091700259415
Ni 2.7630859366883733 4.460644434926431 6.714728862150893 -0.7980200276411804 -1.2145935042668308 -1.8167065267616196
Ni 3.7012397449720305 6.9715132819822365 13.306790025596552 -0.27260378377849825 -0.6236341843960164 -0.42218696615768586
Ni 1.3655015000594863 7.5512107374964375 8.782657840487513 -0.6949797260185386 0.06360009334914853 0.4085760602424705
Ni 7.437139107705031 8.768083313083356 12.228313136291423 -0.6050232541630483 0.7429639672073011 0.287419251524776
Ni 0.8653202400751637 3.707220994091811 8.236428403959408 1.9744465339199866 0.07755912663240191 1.214550052623405
Ni 7.392721588969488 7.368154747717012 8.440401091671555 1.3254928969225752 0.12976331943978298 0.24522436332428085
Ni 8.627733255977205 1.9160647841224367 10.460598213696617 0.18091747371609487 -1.0981945219490958 -0.8764656706435938
Ni 2.239731289756619 8.308522455363823 1.4320608030560165 0.20453562735566708 0.0025744455953955665 0.49569017755315925
Ni 4.484122930693659 3.6401435642275177 8.370776747329817 -1.988938556888575 1.7239059005891149 2.7889486183765904
Ni 4.192939351849951 4.2505100373901135 2.8941971498975323 -0.3380702409124242 0.4914154614372053 -0.13307232920835793
Ni 5.130042023041018 1.0615926509267266 10.251138218277227 0.2548788556949094 -0.2576582182122595 -0.5160664272166661
Ni 3.4548178624959527 1.7734822234568022 7.350542155052326 -1.8273789188738012 -1.4937888252199176 0.881222982822921
Ni 6.554202554125916 1.9595334888451998 12.030629597148303 -0.15520155700722948 -0.026742558201166847 -0.21452436313726278
Ni 7.418497702983349 8.716065980147407 6.090514355450788 0.030248514471896294 -1.5592588818982696 -0.45128491196490667
Ni 0.3272031633563298 8.059765746248454 4.581122419723737 -0.30524753795544846 -0.15776006176302507 0.7831914472687802
Ni 2.0477638899355926 8.905382281991548 6.468440929888383 0.3946005718989849 -0.3327724828485946 0.34877091515937997
Ni 5.516227930438884 4.075425945737675 10.84436557557171 -0.2325195141631028 -1.1439961536642427 1.1074548642050994
Ni 4.240556792354086 8.02095739270611 6.110964088055651 0.11712480474016602 -1.5450329681068746 0.9733468946433754
Ni 5.1691480437246256 2.5793788000374325 4.397652486575992 2.2429391237435885 0.27697877291774237 -1.2415456073756423
Ni 2.897110567042657 4.085202450908577 10.391218514536607 0.9619520225428724 0.9627752897751162 -0.15701135652245862
Ni 5.072015534690795 0.7035362883783445 5.803410676862035 0.6897634719249217 1.1128061012146835 -0.5872898414390273
P 6.306701628262754 4.554790970449454 3.4823595147414386 -0.21568907286932532 -0.47773050775094505 1.1312853909657934
P 3.436557843799016 6.486306539623144 2.4010640896924595 0.43663425193126737 0.33151804161620324 -0.1738166010052555
P -0.07802599940392364 0.7361010736326667 12.475375933331033 -0.36235276760887275 0.4006984572666067 0.016714227430887345
P 4.725307731903117 6.90991478793684 8.096116485455731 0.00544996737097771 -0.010064069104221376 0.356508907233586
P 8.798529080375802 6.922109838630514 2.9945909745478403 1.418029985021048 -0.2782118739938951 -0.8039844727547316
P 5.538478549248395 2.639098270253598 0.2522877855786189 -0.788313598986694 0.39199964394102815 -0.28544670117943743
P 7.035139633427495 8.87355050207259 9.986062838351852 -0.4676746661768398 -0.160297226362582 0.6753328983218886
P 8.20792026371463 5.05924375391092 7.21308970152442 -0.4035513533343695 0.7153397777321292 -0.5291461432187596
Ni 9.037248825571664 5.6169138409715575 9.183919658380603 -0.6454440811822562 1.6608133430040044 -2.531568850636698
Ni 3.047265035614204 7.266780481920164 10.804515387034941 -2.533047492064753 -0.34479213301729006 0.01041708156826593
Ni 7.637245843420005 1.5966214310549425 5.942973776463469 -0.47525633517883953 -0.07660190492545517 0.6457808956963846
Ni 3.1813640827538037 3.6925050747955535 0.20752515900117244 0.6866735201456884 0.43767863403538176 0.8322239272163989
Ni 8.13604295119745 5.944822103368757 4.82444205246195 -1.2180894332352312 0.015172593975380321 0.36151535930924195
Ni 2.1627843337397787 2.7839226365768797 2.353835476891601 0.15979688968739578 0.5464216424697558 1.1750669069271182
Ni 7.106951831257526 6.393285557978028 10.558977203884492 0.7917336804118364 0.173333747831566 1.867269841531468
Ni 1.5412181343871112 5.890860631916426 1.6658234601400104 0.5517343129319208 -0.24315462527944576 0.32989053331510926
Ni 0.7827827230614519 2.3099900371931756 6.350035452562131 0.23971577480122588 0.2093739292845749 -0.3888271597503174
Ni 8.596320070475649 3.0187634068381404 12.546866278564574 1.480987045469559 -2.3457739942236437 2.4657452672736695
Ni 7.785958486776052 0.6831842278042094 8.210124860979619 1.023344823828057 -0.8479871035879267 0.6974145607122764
Ni 6.799926779239655 6.468706969895888 2.3321876340431498 -0.8634859705544741 -0.742287767075883 1.2701036215189931
Ni 5.933017740797992 9.182808057649943 3.292640432046774 -0.622839970629495 0.2354557139732913 0.8336974264381318
Ni 6.493580780387792 6.55792339339172 6.51321937003271 0.29041175849419665 -0.5498059855609564 1.34363717193177
Ni 1.7511013752729874 1.3348975970982428 0.40443941462608646 -0.6795878169435005 -0.04929807490417961 0.4413823081392141
Ni 2.727356577638484 8.029692062882587 4.188370161231543 0.5786028551879906 0.29412957366541603 -0.8954221571414385
Ni 9.13286509260468 2.387681161063177 2.062007262645093 0.29592600344420644 -1.1233311691157233 0.0025693033890729945
Ni 8.081486145462588 3.0115821870551374 7.844723561720539 -0.8379749707675633 0.20638862140400585 0.23719737925474632
Ni 3.384605625550219 8.848211586672459 8.807627462590512 0.2835037185204537 0.07795687629145284 0.019099182723296138
Ni 6.878455091944462 4.310629497827352 13.107622801796195 0.8075855598424285 1.1715120996963244 -2.7911535964477094
Ni 8.640830610192836 5.522795211743029 1.0315478040651702 -0.6030517322589743 -0.5169105203845162 -2.581273674060993
Ni 1.3403300224263177 6.20201581551934 12.923894270319476 -0.2366839299534375 -0.3477748697946978 -0.8757779005479499
Ni 4.001464963231643 1.9095347112109495 12.327821401196468 -0.3972506079273223 0.5838705313448331 -0.25735534225986
Ni 5.673517108302611 8.936376873075702 7.993231558916967 -0.6794412640633073 -0.29371845426992643 0.12751488972523845
P 0.9705065056998284 3.424251167927367 0.3674096222527985 -0.7038996542159878 1.1343460321689884 2.0530528708699802
P 3.5389460382957956 9.11573062778565 11.779290625582464 0.9570779822800226 1.2834445616022734 -0.15130916393135876
P 3.8593568095723993 5.007654317490539 12.186651829242022 0.3023876999091502 0.5657936192384643 0.13918075609894096
P 8.388976302388684 6.275465182626324 12.547043018429699 -1.164075440912621 -0.3102964132332656 -0.5675599671102678
P 6.9003801373182165 8.348112185151985 1.449937575308575 0.04518456695643831 1.9571808048610038 -1.9426993234153767
P 1.9802864698502252 2.3076366063575544 9.82537002276973 -0.9008132462500229 -0.05279117565910263 -1.3565569653172314
P 4.626017136095119 3.2728223119072823 6.366019247838211 -0.9099548035399747 0.029432189218188024 -1.1145138279344098
P 3.6946817657660493 1.0310538626526347 3.7011997459499226 -0.11919788521911086 -1.0865052585366255 -0.7167932223492042
Ni 1.6969631639555296 2.99428958656731 12.06032282469924 -0.2781648228060435 -0.8290699549684496 -1.0176359463687379
Ni 6.162416783633013 5.124628201909273 8.617635828419628 2.4776348196224043 -0.1589078022142231 -1.311791745286399
Ni 2.919965822232862 2.459056160279475 5.071423921247532 -1.3414458207074058 0.8351038198673554 -0.47791871250235113
Ni 0.3613883741109102 6.549328254687711 6.613340643206797 0.40634459980879045 0.6083731444718878 0.6946015167435134
Ni 1.076875998211019 0.6824270370136182 8.549794696296027 0.4470140525036947 1.0015202717537977 -0.010088751694569721
Ni 7.344946012796556 3.79247472376956 1.7477284344785355 -0.3309212885724688 -1.0721399909538891 0.8361998811450115
Ni 4.848653553564541 6.037768668228558 10.156476346515891 -2.0836772806240567 0.01691760169094506 -0.5787591782601967
Ni 6.499506216918586 4.1455637658980935 6.064142907154397 0.23149107289858842 0.35193645737155516 0.13990657852137198
Ni 0.7893323303790846 1.0215006078376814 4.112278068036021 0.2930270846298566 0.7705513899072665 -0.014723165142787547
Ni -0.15649849951974384 7.813557812030159 11.04448626443393 0.9301104525522433 -0.2644904106427445 -0.8216597785473075
Ni -0.12645830370726996 4.7889340833483764 3.0379257290570343 1.2393115758388011 -1.449252947591072 1.326442148209722
Ni 2.6969108103460373 5.570794038271909 8.600399970730603 0.43213456428870095 1.5053749873956204 0.806398738623179
Ni 4.607329220882616 5.741729394142975 5.601071437587578 -1.1441193095056683 -1.1976368218078344 -1.1263825543475374
Ni 1.7660498470233574 8.676066958040007 12.762629375700236 -0.766297756837235 -1.990725216475352 1.2860999969472495
Ni 6.8898966726868105 1.3873707328442533 1.3901688039721383 -0.7560683657997431 -1.4098993854941138 -3.581363898236484
Ni 5.226272228552891 7.963554144932909 11.22527347247103 1.5486541097992295 1.458039178424134 0.29480628801746644
Ni 5.442694844448418 4.813454414110029 0.9764933360785082 -2.7678707146603685 1.2086048907835636 0.8168782979982642
Ni 3.988507140488479 1.282080283720146 1.476186235909194 0.3117341741210567 0.2223315178865074 0.611778570609011
Ni 6.086362829039967 7.070059709937072 13.42073049580384 1.4029800326664612 -0.9150633284111337 -0.1750579296115243
Ni 5.2676386590904745 0.19524731963383354 13.369839646955613 0.5259847147716425 -0.5636364636861454 -0.5505446634991937
Ni -0.2883492295329812 7.72381116893895 0.563021584134681 0.03084835283942429 2.027091156698896 0.737163301365124
Ni 1.425295387060967 0.5945761615283374 10.958265116547071 0.7678489033744389 0.15225790099787326 -1.56555011422362
Ni 5.8013186349848365 1.967468178579528 7.864355639896741 1.4607030984095424 -0.46815597668863246 -0.5434885279833607
Ni 7.971135354936986 3.218981767731089 4.574519790446566 1.0585059451102221 1.0662349383233636 -2.7151065355844595
P 2.496311063428344 6.609559340302924 6.165830653659389 0.02331347791495985 0.08379610868104924 -0.6907980838370231
P 0.9943384811973074 3.723741520431984 4.580210814103615 0.6006611205396107 -1.2451685488402104 -0.1877121280404251
P 1.1110053963766122 5.95934267860356 10.656443658242429 1.8533930835493757 0.01833659352565874 0.27263515123706594
P 6.77913658984197 2.948365127929116 9.629239003810268 0.2055239594108654 -0.9602193561224817 0.06298071459759476
P 9.404700307266205 0.26213312627593804 6.661305051972469 -1.7077038369079558 -0.07924139943083126 -0.8443451359599652
P 6.031350220495045 7.523685829027647 4.724224967676767 -0.33184457171768655 0.0962872991695245 -0.4248449726058232
P 0.5090163928209757 0.18610056650866924 2.1169417335654326 0.749532107343122 0.2717866871938416 -0.2005211068796353
P 7.2458414589518485 1.5423995008540041 3.2742204172614082 1.6196052441968107 1.9801194159350481 4.376722576995417
