# total energy = -340889.65677493694 ev
CRYSTAL
PRIMVEC
9.12241194747395 0.00000000000000 0.00000000000000

0.00000000000000 9.12241194747395 0.00000000000000

0.00000000000000 0.00000000000000 13.35157199265739

PRIMCOORD
 96 1
Ni 6.369094599915885 1.8803023998648805 11.306298040246135 0.6514419506369039 1.2655280863331688 1.6447444624665997
Ni 4.756854271087781 0.5161433234861171 6.233475352501375 0.27960078392162174 -0.39322580303864535 -0.9899500504176951
Ni 2.7815328298099664 1.51376389333918 4.8976103485925 0.7387776970400954 0.8114347583851895 -0.4210834486808619
Ni 3.39655671162819 4.495825579556512 5.0826493497464895 0.1441085324178615 0.03298905333151093 -0.4096469247091461
Ni 5.27812712673466 4.370793803288686 2.686550278044272 1.3400347992924921 1.0244645392547969 0.0673922134017291
Ni 7.463291406877849 6.441508304863645 2.667990731216832 0.38310954054024987 -0.5800131052719559 -0.6241969988780218
Ni 5.369816487836945 4.549365014469387 11.857263434093374 -0.5245186717490773 0.4012730988231541 0.29525494551911086
Ni 5.564023512859983 7.796423641355338 12.647970371513255 -0.25698176097052516 -0.2675600507070037 0.013630446299241043
Ni 1.8143291176549785 6.202720053325149 0.3530300391174564 1.0260851055773552 1.067553400024471 -0.06518672110997806
Ni 2.479891160900588 1.354295012488613 0.5546900745892617 0.9116776997683526 -0.07313142987835147 -0.6690282962600993
Ni 0.6630597656861273 0.12974623869123286 4.863537228240978 -0.02087607211806082 -0.30121399131602317 0.036273380509737524
Ni 8.81425673905581 2.300207015479067 1.195748407472037 0.5410693770189069 -0.6358389539923244 -0.02759256490628796
Ni 6.954452398527996 0.8078652817933042 4.610831825245151 -1.1913638443149288 -1.5233742521865186 1.5148345901466236
Ni 0.9008919884669349 7.535933172120858 2.6137032585355366 0.14211181370280684 -0.7070906503494597 0.1986675986106643
Ni 7.547920021239195 3.664527558546867 3.834077616688662 0.9665985201759484 0.27113208432897823 -0.07421335008862058
Ni 7.71518856418731 3.8130495452254367 12.709294872664781 0.5194998783782473 0.3612425652638295 -0.4540516760767664
Ni 8.19056656601809 8.590064346413312 7.218901082246833 -1.2564024698828167 0.9162825455302155 -0.75388292811265
Ni 6.797291487865358 0.6806568980676126 0.23817157650013948 -0.11225230713921312 0.013006953782629213 0.6298009753283605
Ni 1.3521877353605036 6.5037413982314485 9.1138093756607 2.359022374593118 0.6088799089049771 -0.3710472100590771
Ni 0.24969865606325234 4.6876972671561905 1.4953630764772339 -1.1310251953258714 0.44743005699519073 0.5461691601393174
Ni 6.690851186866307 1.719766196832544 7.3624841951714695 -0.3609049794187526 0.8594249131112232 -1.190080606727131
Ni 3.6966293257062484 4.5925231447424855 0.8221354705876832 -0.8594475388190426 -0.8019594719049027 -0.949042513570056
Ni 6.265536981048792 5.501015014488329 4.5399214937636785 -0.832571797474121 0.8530832871639114 0.8967696723082685
Ni 5.20026734193633 3.2146740649604593 9.596415976609723 -0.45292527578180714 -0.7540402796261207 -0.9537527745615316
P -0.03420448308158573 5.7372125010727855 12.803396199449631 0.059939099557793536 -0.476682783212721 -0.36024420590630213
P 3.939942293502502 6.090322817414171 12.574576919537101 0.4569621648553421 0.4423333591985737 0.5971003997715458
P 2.402131722632169 8.2630258830249 1.177560142805264 -0.5018451414109615 0.9414497888244625 1.3244649698786932
P 6.467917687053588 7.919065345728944 5.911501652149875 0.13565577366481799 1.3872376822305401 -0.989925882047979
P 4.7627291042934194 0.8875595836066236 12.917699107187717 -1.161343900914071 0.897152509568984 -1.3737429901782148
P 3.759710803372381 6.206286916342858 8.162376489042837 0.7078758652549163 0.7904476146105612 -0.4225680036461884
P 4.854564423984665 1.07009539495995 3.85283603209356 -0.31588701994716567 -0.21736106125510954 0.005364349635706891
P 0.14329666919380316 5.618037313186978 3.6382896776989524 0.8189030417377767 -0.37486247004010925 -0.013695495209221573
Ni 1.5362506384508237 1.0206519229497635 2.779556915411921 -1.0067892334622208 0.6038685717333149 -0.7191087578562584
Ni 2.0829020437531156 6.6570161614630265 4.824444044670415 -0.38187618235378107 0.5701621806198052 0.4443832997490669
Ni 5.848898188862585 5.694419267272087 9.166000518108058 0.5793847276593377 -0.05646142542183825 0.2957326564864778
Ni 8.616172689013524 2.4200846290742444 10.330471824448338 0.5496563473569696 -0.024167341274822896 -0.22971315506255924
Ni 2.053591734607594 5.364461632104477 7.0163443136941055 -0.06115497424276564 -0.06451386341266954 -0.40287849563706096
Ni 0.5367207478059286 8.994880492893763 9.274349227657762 0.4782889513575763 1.363969969951851 -0.05824294280229324
Ni 2.062841860182931 1.2331676284754658 11.489574591438434 -1.5628717960605083 -0.15499715430590727 0.33132032378310033
Ni 4.224689255739765 6.7595247029719685 1.6011602474436801 0.07610773889785603 2.0451464715387098 -1.2931453338298053
Ni 5.71924134980709 8.128141902002278 8.139972757878663 -0.8673799062922417 -1.2830889780350676 -1.0463232870011014
Ni 5.2138597355332275 2.937197664935764 4.903071024301965 0.4103118119866547 -0.2918644317803231 0.243093175913891
Ni 1.1911862893258571 7.815124585565832 7.0598308507923635 0.09303433944986558 -0.9224704195084823 -0.4798532105209027
Ni 5.0593352018836795 4.5620816565325235 7.00633064225027 -1.146642075927522 -0.34089485484541293 0.8073094233629063
Ni 8.180978911205784 7.279374462376487 9.24569664440374 -1.7255282666838865 -0.8168669851443545 0.3905801378856822
Ni 4.729696851129418 0.4160412742126523 10.702927127274004 -1.8023957665659025 -0.8575786039311037 -0.5162021814635819
Ni 8.406995786210281 7.30416917767606 4.784375675277363 -0.4665297539391191 0.08839144136121552 0.6907222362937653
Ni 6.90407844051319 6.129357617549149 6.920279843887745 1.1534102478892911 -0.42527126150996436 0.6110807732110378
Ni 2.293429063504239 5.362472946329897 2.775804867434469 -0.8481423982188684 -0.7057446778445265 -0.8253403127226883
Ni 2.336185807657697 5.236465071998402 11.3795181663979 0.4710456395316016 0.6602389801032436 0.5275515450381302
Ni 1.0597870696146527 3.3973138718084197 3.6534036895857565 -0.5034978465230361 -0.21674965292335577 0.7918059284106685
Ni 3.915813514265059 2.676077749286395 2.465434874905285 -1.1703149940644295 -1.44940515689822 1.0695403485475128
Ni 0.9328122196312972 3.629077866253217 8.337135444328139 -0.006434956992066337 -1.1236926662202003 -0.39097403088999116
Ni 3.2454439599955807 2.9234045782790483 7.390402424274787 0.9673773073235017 -0.3301062488703411 -0.6572493013473004
Ni 4.595661254405125 6.763839603758098 5.937350918254683 -1.2977506938123005 0.637475975375115 0.3729786227538351
Ni 0.8469000819282835 7.302262593607772 11.26996803521282 -0.9498457261976417 -0.2646289931031378 1.3342084224187023
P -0.17799741147785278 5.867617377896701 7.75089459625282 0.5853391454705597 -0.45090747402082987 0.07580409161450816
P 8.718735964993327 1.645017154461424 8.086072075458112 -0.3970575180799097 -0.07161370768224441 0.9435899750959169
P 1.7454731533131171 3.299512494793436 10.56403019729616 0.2658389542508389 -1.3816583883705496 -0.0448238411829099
P 4.082598569387244 6.060319204971088 3.5395952165677698 1.104609167226188 0.14265920156584463 3.0878535019434628
P 6.946725715724927 4.066889776250428 10.570519881057795 1.0406653173843756 0.23319417163262418 -1.3367041922573624
P 6.227432666918433 7.78911658949553 10.462838932052582 0.43732150780627904 -0.41113147967447256 -0.3591224335970331
P 2.760523915411542 8.667449765797523 5.86644058677321 -0.5575120959559624 -0.570847636722604 -0.7479981871970989
P 7.102937895559325 3.789677926168223 1.4929328659710506 -0.18921468072788059 1.2079893686867518 0.23860762933871163
Ni 5.283947225469439 2.8741435545050615 0.5182369169965115 0.7157084739254578 -0.5509244154361157 -0.7466840963713657
Ni 1.4311604543996521 1.2134905862013012 7.010857182990391 -0.05951255354333621 0.20312614860265016 0.18051278207850846
Ni 6.817433773141833 0.4634842013129064 9.427184290640097 1.1951058278558644 1.367529148058019 -0.10522882463352845
Ni 2.5890134509717786 1.4104434571791478 9.20920699716375 0.2561734061366169 1.622085330306187 0.6924657013474332
Ni 6.67867276709996 1.907386840528763 2.4413216037679186 -1.3282434630845188 -0.6548252652868399 -0.14397174972968108
Ni 4.175346130259489 6.821018880983162 10.353903651423499 -1.0940133939882126 1.0348258278844629 0.4712425860337562
Ni 7.939663751595918 7.545466092462305 0.24192544895995344 -0.6629620354613615 -1.8696640527952575 -0.7213870123674737
Ni 7.645493337958928 4.002978159109586 8.397684540475817 -0.3814619776344979 0.03052233695857324 -0.4660289030433006
Ni 3.081532464593545 8.320433220545215 12.4564289152211 0.4627016384422805 -0.5342711231501509 0.16247829317430082
Ni 0.20639639168355609 4.9290489164132945 10.290096029777288 -1.6845181428201117 -0.8310165371718591 1.0155564381318896
Ni 8.59977059257915 2.17803967651958 5.739907261521459 0.5168012485001616 1.0828995434632382 0.45388455437128283
Ni 3.846957549923198 2.749686490181265 11.796487189891629 -0.39398530691248923 -0.059543406781271645 0.09721752429327774
Ni 1.3160356173574834 3.6227560348688885 12.878138856132484 -0.04828146071420717 -0.49408375229798773 -0.12014996471973502
Ni 3.254913023454358 8.717431460104498 8.047580058825828 0.42140509368633877 -1.9974044282677406 0.29127899159049836
Ni 5.453405147251952 7.865817827993989 3.7514313024136277 0.4480049556620542 0.3240618424484742 0.18173354185948704
Ni 3.041247894040596 8.439599286019213 3.411419857190219 0.6364243941821491 -0.11107268500881516 0.4167390556692371
Ni 3.085272653435644 4.46224598168391 9.211690117658431 0.6102083979084136 -0.21755389399220598 0.20835885775649923
Ni 7.489810258009511 6.254079231815435 11.469627525774692 -0.6968574026572257 -0.6013383491122934 -0.07925168384347642
Ni 0.4399164504017778 9.063845926177343 13.54997620646219 1.8128143907960652 0.7964804510682024 -0.9945849780865452
Ni 4.587633532012327 0.4159682949181723 1.7532080462868138 0.31960997732470764 -1.0344388768586894 -0.5312891577036915
Ni 6.190313573263553 5.661770155404105 0.6101643730470376 0.09560724238336438 -0.22466453689505825 -0.22217185238019158
Ni 8.11418461193298 8.949405270020925 11.369985246056453 -0.0068759011842268675 -0.40622812883558423 0.2749298608085136
Ni 8.96955667770921 4.8293500777418314 5.744660950315648 0.13266506646761023 -0.1569851312702135 0.23032662027684206
Ni 8.279263776046697 8.886615709532713 2.0946480611996683 -0.5943549758159248 1.5515532857238956 1.8687001462200912
P 8.550144672332763 1.605927619855585 3.5048543356717565 1.9556810803870253 -0.24527629960813885 -0.11533326005738202
P 2.0143836086482243 3.155798019138735 1.6848082025354525 -0.7920149590976812 0.40678194445652527 -0.7687469897086759
P 4.769689504504448 1.2382579342654445 8.347202025760472 -0.09654800903007889 0.5941901681032863 0.8206333941653221
P 8.33863243210616 1.6796914417512248 12.431114222448356 1.2270196458453255 -0.19734785135797625 0.1460144911913227
P 6.331875159731094 8.024173774603737 1.694127658440546 -0.6625563153825106 -0.5379657983929187 -0.8275216366447232
P 1.6861865989599432 3.28664989414134 5.928164649562016 -0.5177070481438827 0.10134465908777385 -0.11787916640768731
P 6.83108090120959 3.971049717774594 6.084377741637595 1.0513220257672733 -1.1895260197752415 -0.3594870160253035
P 2.3886579203888028 8.401203054710933 10.338696590936232 0.6870596998405134 1.1743035463985323 -0.9983729843740676
