# total energy = -340868.90960225015 ev
CRYSTAL
PRIMVEC
9.28097852934796 0.00000000000000 0.00000000000000
0.00000000000000 9.28097852934796 0.00000000000000
0.00000000000000 0.00000000000000 13.58365021338766
PRIMCOORD
 96 1
Ni -0.1198536308613882 4.732844370127984 6.053023682297024 0.04664161111793903 -1.5942096869418416 -0.16548674098332145
Ni 0.3611962010314792 9.353555955576878 5.38866152766698 1.2102372841806641 -0.739636959716597 0.046366760189997566
Ni 7.970578757215642 4.593119235767474 2.835056851747025 -0.11444520102547387 -0.7148317277474592 1.5895048252670045
Ni 5.19904649229319 2.3464448784076657 4.363204334673311 0.07634376616806207 0.9984922835607514 -2.2175139988022647
Ni 5.4676658588688305 7.573427116594255 7.99802632362931 -0.7821378091932852 2.091704007583275 -0.8378926954664021
Ni 8.440688171414443 5.919862984172528 13.509850151064986 0.6749770576443666 -0.019072957471051023 0.028021939134222712
Ni 7.914001911047481 7.231868538398604 9.63601047710378 0.6071331014171996 1.804400455700757 -0.12637229148036302
Ni 4.292628988328732 2.552538291467081 9.891464775390453 1.0356575797571388 -0.12659417768318199 0.24522153511080347
Ni 0.43474888534370004 4.616284558607981 11.20451443972052 1.7144650668911894 -0.32667614014286966 0.5111481639794423
Ni 2.337618667661943 3.0617113450231312 1.4270163704006964 -1.565068032380879 -0.8060596101162053 -0.7021883279518358
Ni 4.341753208599086 4.610669566493194 8.31984982871276 0.7177501869458348 0.7492076341241677 0.03989143687829904
Ni 6.469946591847551 1.378865724796195 5.903087615168435 1.4956194506707532 -0.9760858908410933 0.9142107506028513
Ni 1.2008751152468178 0.5048165621532723 1.132699829994609 1.595138369403698 0.4432813249341398 2.2597716219198953
Ni 8.806219517597684 9.263270594762595 10.61673706514468 -1.2034056059708114 -0.6780646954307548 0.6086742206520743
Ni 7.0220441719009346 1.2644312573989784 2.675856511677973 -1.064857598359863 1.1953128016603478 0.5513298784046504
Ni 1.5668148244929538 1.9008929338546903 6.503526100889713 0.6583013967608985 0.6156113140915399 -1.391852555294732
Ni 0.1878173097991885 8.474006884955076 13.1959730199463 0.14075915632965436 -0.4125047058729154 -1.0326851273923763
Ni 7.727862602197636 8.722904171788697 4.189415224182386 -1.6516645866252007 -0.5790116605906351 0.021528618100395178
Ni 5.874748146701491 6.011512648856024 9.465440938124623 0.18608976194565371 -1.630319545290521 0.6831354250854429
Ni 7.555143588551067 5.203538485985019 11.226805494367287 -0.5006755465828926 1.036949044875053 0.39933243015701547
Ni 7.042360234279889 0.3150409658479352 8.612183952068072 -0.05363938259201085 0.6481925904616708 -0.009642151075454361
Ni 1.6628636730812583 6.457732823875552 13.138228626657408 0.15609707223830535 -0.9806359721056209 -0.8092315800862837
Ni 3.889277653934325 5.697537139363093 6.201628857079729 0.23802964534805457 -0.3760318077578621 -0.5470883295194772
Ni 0.9331095987117733 1.8952500988037977 12.81679863507093 1.2060738968315938 0.23999011150853508 -0.7776818303044607
P 0.6739011445400892 7.380364197632625 11.440775674051196 -0.3553508823697428 0.8839177560462649 1.2790004097879908
P 3.002378048180438 3.443382313169371 5.451132723408862 0.5348431936035368 0.24901622626654532 -0.17196617806007802
P 5.879156611585001 2.1406762996028244 8.04721272645697 -0.02912828482452403 0.48240271641563376 0.619570555849604
P 7.979813331024257 5.326641387490022 8.924322755875853 -0.5663399786602376 -1.9683877293204164 0.14127517673412443
P 9.3270123564888 8.883660003888227 8.422610681098442 0.025599445735659136 -0.31195811720640465 -0.31279963927109355
P 5.7586802270527 2.824192538078316 12.50880378825365 -0.37257958754320347 1.1134007973758888 0.8902246721008991
P 5.789474514386356 3.47414875756692 2.360159380635797 -0.22584904412146264 -0.3569511369773272 0.5759908714864402
P 1.360767816327049 4.22326295350904 13.318782642524313 -1.1125160807780905 -0.24221077330893767 0.6295806317874384
Ni 4.8656087704619 6.500610945479376 3.856059174963675 -2.7240416332905606 0.8637991309195188 1.0500462443786431
Ni 3.818389538607484 1.2683385494325736 2.826730885753348 -1.440515310607758 0.45209866611545363 -1.2200193032680924
Ni 6.446456434752468 5.58635101451162 6.993202602486207 0.3616613979688029 -0.48206101680549884 0.11638355569876731
Ni 6.511089170434076 6.290359653961407 2.5696598409767635 1.8692773588798002 1.168522678050697 -2.668933122352191
Ni 3.632742121628853 2.141873545855398 7.525980897273245 0.15269061765991768 -0.7013254657309084 1.3895984691532326
Ni 1.689964130891467 8.844995446615169 10.081432487954924 0.5526820215571707 0.42554919776169936 -1.7401110495940677
Ni 4.094860613165124 4.285352701026265 0.449449955607868 0.8297800936615967 -1.4351766720036638 0.351228375560937
Ni 4.868866393986347 8.72898321283859 1.7628996301199964 1.1444571524610612 -1.6752220622301666 0.6020865401322276
Ni 4.196988502803321 6.472916505032231 13.552367242597297 0.8452033701952024 1.9578860584581441 -0.7890461062773443
Ni 0.8292712246987742 8.15726564380891 3.4044430389267304 -1.0134807865497837 0.4510938790000231 -0.8916207811174773
Ni 2.173827955526819 7.617261179004397 1.4737173271319255 0.1504812687134247 0.07558169119105693 0.3983181299598882
Ni 9.086245206998239 3.3594451417873414 1.3601032982519765 0.8475178772609919 -1.1038758886045892 -0.5484790392194167
Ni 0.4090192280877954 1.9187216939414748 9.378885602650723 1.3673345155487098 -0.5992274734168777 0.08293890288707652
Ni 6.825278142437155 4.258326491045673 0.5768852179710231 -1.387811809566455 0.0234695438768499 -0.10940815282219868
Ni 8.756427066860779 1.1958169818541589 7.036344303885171 -1.2048801336338089 0.8584800326994505 1.3977763769783347
Ni 6.579508545426151 3.479225452916983 10.041672775195016 0.18716474017738732 -0.7414588434166844 -0.8593426378100619
Ni 7.6609467457553055 8.134787113392361 6.788157940020132 -0.5029052072443597 1.114516141927255 -0.3278691320097063
Ni 6.044302346610636 1.2689510940269138 11.131027650357085 -0.023376727052727482 -0.48154139685660285 -1.729792441276879
Ni 8.1423789539707 8.692592495347553 1.5473405468822823 -0.8715481787373183 -1.8592197175334817 0.7903565975586517
Ni 1.9942688605767827 8.029531533931548 7.322484302054685 -0.5361817099093024 2.1617102615690835 0.668255679760133
Ni 5.560494207847497 8.961276828774109 12.980413936708583 -2.244228531978974 -1.6047684362942944 -0.40170658681614685
Ni 7.5094533304005 0.849161290155301 12.830844468238727 1.9303778257355464 0.24144407034624224 -0.08576994457796842
Ni 8.431267978031784 3.317662175670369 12.66262487306695 -1.3411542576089162 0.0843542951773644 -0.6245775221458921
Ni 5.112389994151437 3.4277438640562883 6.4161967317920565 0.6771522109188144 0.9677897122705719 -0.26532421939794953
P 3.247321638086954 -0.08116308684796429 0.45950403983588134 0.2654962261994395 0.5047283764960274 -0.5518618396487205
P 3.455484709396944 5.416796814602476 10.317013426546735 0.7080314169961742 -0.6605549686817656 0.4126589720625925
P 2.451115756210245 1.9531077200328526 10.847006499625264 -0.733730364424175 -1.1710701270628994 -0.6538400185554353
P 6.487766070955632 7.01028517188534 5.399840466513691 -0.6625190343866719 -0.2747357425198365 -0.8525911780188412
P 0.5846543252425731 3.3197039909848365 7.822389370278792 1.117463654591353 1.1695225800701212 -1.219940370401041
P 1.9883290342074218 6.8401369893392605 5.679649909110485 0.015935697393649972 -1.2074401810515012 -2.0460484145276894
P 7.959933474644303 3.2664311732346323 4.765022451386126 0.13671841060137743 -0.00369107569834203 0.1595480069013833
P 8.582687145556974 1.388861338858385 0.97216117279671 -0.5438975904963214 0.4822687619409307 0.5579435270664262
Ni 1.86955106877761 5.418541638598477 7.5391840175748905 0.3747457419565869 -0.9445844777987022 -0.3267216486688244
Ni 4.422033674372478 8.137942646151084 5.7833202974089755 1.4072642618641118 -0.6772450277429368 1.352269136575155
Ni 7.716781113627298 3.521091947842274 7.704768742893135 -0.6596663954292251 -0.5144471464456882 -0.26208565785599375
Ni 2.4672460971945407 3.747928348300942 9.168570272379709 -2.8791565441212543 -0.7250662609912739 1.028373901611532
Ni 1.975920365682679 5.886145188547703 3.5408502234012307 0.6690627490424607 0.69513836308359 1.5172506557872836
Ni 9.18625703349235 6.600511400229062 7.568239977597638 -0.4913313863638312 0.2670255183597724 0.34456073373277435
Ni 0.912838085030589 6.365312837959779 9.740835419152814 0.2899258199967136 -1.3237813135481074 -1.4843865580694113
Ni 3.6875370198862067 0.9779367258430431 5.401062771408761 -1.0001269909506971 0.3861475560356253 0.44272776642351497
Ni 0.8708797084161466 3.6063006133064954 3.835602041708448 0.3322587764369697 0.06253668508164069 0.16876721150680613
Ni 7.377681994787711 7.7021821341288526 12.118504294208043 0.2913316992053047 -0.5223525173356939 -0.9397960552711234
Ni 0.8412232690713723 5.370995184707483 1.6607643156988374 1.4787504428295564 -0.8044688685903177 -0.8983388165676013
Ni 2.8803703021622864 3.940759242795019 11.85350079693475 -0.23413442405870646 -0.23094959857282163 -0.41433378866185416
Ni 3.6224495162481953 1.7128046194773996 12.796749864878596 0.28090510455534207 -0.07073104796697496 0.05795369369664858
Ni 5.144186627184921 4.766580727710213 11.657325965814298 0.19944175777252748 0.22737165141357615 0.34976644630342985
Ni 3.665095613384465 3.94639279686721 3.0327129270683377 0.7069921770983824 0.6977102375758242 1.071264016106839
Ni 5.909449726068742 4.5340458063284395 4.50270858174071 1.7441376542549576 0.7706259518989437 -0.38927401747974893
Ni 2.909382641585133 8.405958749111086 11.981676681398335 -0.7496750606788896 0.0618118911004742 2.1674361083092673
Ni 4.074962194827765 0.031292675889959085 10.194312391419535 0.38353660077533946 0.8624765554533533 -0.9198970023543512
Ni 5.732869825282087 1.5059037612708992 0.7448755729688594 -0.6822072568442187 1.8440396673589337 0.1910512197159871
Ni 9.242536888342045 1.3298900001850749 3.406371626301032 -0.10831080599296186 0.7297466971860787 -0.5209438099136254
Ni 3.0633447972747057 6.9578290802609235 9.030546341415299 1.973303164344163 1.0312113710603272 0.006037978663963795
Ni 4.678142281657652 7.2253347293923085 11.092612751411114 0.35886172373647873 -1.0038810586764904 0.5829716736796476
Ni 9.068592785506794 6.91220378896127 5.233006521462141 0.209014231952311 -0.26307527546277276 -1.1132534731647472
Ni 3.1111232756332514 8.265648913092342 3.9180004268216653 -0.1909602026640776 -0.0856539878253944 -0.7361148054959515
P 6.475997789961337 6.801676613597649 0.26514642434530444 -1.2037035968272045 0.059044098547349926 0.5593566053638689
P 8.811732418946749 6.654749439764288 2.528365982437393 -1.1710634421946802 1.3818694759400911 0.9635767026304889
P 1.9414600917616842 1.0412515625489485 4.015911039737617 0.2551714472346638 -0.4845773554694493 0.25988196533645563
P 3.557575475120333 6.072423712078078 1.9647934003166998 0.5127137086943493 -1.193295514120003 1.2892254299501087
P 5.438718486296898 0.10524258609063084 3.866450158718575 -0.03854315038052072 -0.20384708592907475 0.9106443734078317
P 6.292113758936109 8.441105815456039 10.267120741239843 -1.3980486568031147 -0.11772772843148756 0.697899727878811
P 8.230891647852879 1.960625312781575 10.875532515764121 -1.1496487239643296 2.355997728834181 1.1292840442650487
P 3.7942682749606584 9.250880488195255 7.927608753922668 -0.16209391325168857 -0.9811509640688263 -0.4073897532438532
