# total energy = -340858.42056820926 ev
CRYSTAL
PRIMVEC
9.33237258734468 0.00000000000000 0.00000000000000

0.00000000000000 9.33237258734468 0.00000000000000

0.00000000000000 0.00000000000000 13.65887061225250

PRIMCOORD
 96 1
Ni 1.0961804612349777 -0.04184169162222903 1.4368176529883698 0.11037334494894539 -0.2023437619106709 -1.8483946018935198
Ni 0.1374257161417326 2.5229508821054725 1.7668840665326622 0.4022727437322621 -0.14208815955372303 0.4543599513458046
Ni 7.0795283646551415 1.2001244249437737 4.932668357022553 -0.00027459381762533355 -0.6231955541967009 -0.2810287746173999
Ni 6.305184097751421 4.516429616516697 13.204931774161007 0.7694131625377653 -1.5756702333767574 -0.760229182045652
Ni 1.5232951485271728 6.69253354627874 4.550629961623863 -1.0048179686684633 -0.9934086983902569 -0.2967392433741212
Ni 3.2335923750572957 8.55000228544019 3.6294622795790605 -3.096663386925609 -1.4970294436444025 -0.10830103580094896
Ni 5.516747948534872 6.0272753802721395 1.128480735323011 0.5345418603130343 -1.7201204654047535 0.20060261084984807
Ni 6.616138745872904 0.762995168837078 9.475117561007062 0.23140905470774342 0.3277063811795969 -1.0595847799966978
Ni 6.980978512189269 3.9066524043841118 5.192610391171599 -2.7788416118495753 -0.29453195131015725 0.6202500984151317
Ni 4.250634318403012 8.182157495213406 6.642144334782127 1.5709921111747978 -1.4452528252927432 -1.6445405739859098
Ni 8.79698352081039 3.594671195299442 6.4272356636135815 -1.7862813775025428 -0.5027807658513535 1.388957493135124
Ni 7.31653329393765 2.9807037479625786 3.0577835445020316 0.009384783649009644 -1.1215532512796942 -1.6062959286824143
Ni 6.324119481336009 6.310587541366737 9.551866991563818 -1.0645544652971473 -1.0522951883138199 -0.2387811788020984
Ni 1.8618549541859715 8.358576662923145 10.516005582290356 -0.2784255326665979 0.030103504253599773 0.29761290422832615
Ni 9.061285639341257 4.1080543329888455 12.77421292465079 -1.3821360993379164 2.095568375634688 1.511779091149751
Ni 0.3662190909559914 7.95000539957505 2.998763755016741 -2.3524174676820904 -0.8591302646889398 0.0797363367893788
Ni 1.0576004337639628 1.7713309419777368 6.149633047948776 -0.2881075358410522 -0.7334940800436529 -0.6743396811706838
Ni 2.2291957963035536 8.03638583844097 13.036981734397552 -1.5407304840767786 0.6114232441521211 -0.18747121567421263
Ni 7.810215793506272 6.426495606482848 12.962240630379686 -0.8594349404135521 0.39110361448931996 -0.7325895659515125
Ni 7.646852614773781 5.439307922421063 1.3657684354890156 0.9034023471334378 -2.213753246208252 0.7254760948351828
Ni 1.8540624232381495 3.661071024872802 0.7333583538298933 0.7713530598729554 1.8652893207663295 -2.041308842960175
Ni 0.12059944871787202 6.463013179655097 7.28844191979868 2.19935712538758 2.8872627181681563 -2.611852832399431
Ni 7.414401883218862 8.051728258654407 8.535687359427177 1.5993809467301359 -0.007590924973380476 1.002910467233105
Ni 1.834277793765834 1.112456118687675 9.104224817956856 -0.9891815476827867 -0.5899511903212743 0.006655814753620796
P 4.612963676545767 0.49706641779817917 9.86806923268166 -0.7035037043291498 -0.7768148543184751 2.8351459428682593
P 4.2239157362429935 6.613619005326902 8.274666503029549 0.1555489130443192 -0.33463164754452046 0.83670870246063
P 2.5801863219892978 2.937606852253545 9.380761676694426 0.5114811218388288 2.328359655401939 -0.9150561293222822
P 3.5106891761384205 6.5666398427025445 5.234215973772295 1.2360331621978455 2.389369619426408 -2.4484443141013768
P 6.601356268003023 4.456851751162328 7.307331574758544 0.8540448797462323 -0.4418813592628196 1.572004868710028
P 8.069039809442684 7.8859573278446256 1.0905773048504597 0.3011792814233459 0.06747808824731605 -0.44084469046818914
P 1.9816172891002273 6.908008692451517 2.0480105860129125 -0.3210706210306341 2.3796590770068633 -1.5766086860306265
P 7.145741546780649 8.923997109073696 3.2019537661718975 1.5166523600816526 1.016410815712385 2.9531503219999014
Ni 5.558874277515075 7.890735502509639 4.520156966050302 0.15599165700869264 -1.8516329063251593 1.677389759305447
Ni 9.15173499257035 7.957527291723487 11.942128336516802 1.889338391295733 -0.8114036480369382 0.10124927116049014
Ni 5.746007008731521 8.106593275950512 1.997569113230901 -1.0978222262113415 0.7375543661559556 -1.2784118842743724
Ni 2.101986228220002 6.189322694497272 9.144709582633201 0.11493679594991173 -0.16301539662469344 -0.7257725430296791
Ni 2.5733363606531285 4.418887660269225 10.93325595196357 -1.6799631764595777 3.8526641327122104 -0.33271848968220763
Ni 1.853577139873734 8.268864567113066 6.223021891206956 0.45189169231097015 0.570145982669889 0.8494683161191435
Ni 0.45273484922160406 6.018997565959901 0.7820388079414208 0.6933637876816705 0.6187040940842505 -1.3086634840700622
Ni 4.256541710127529 4.39332629228589 8.996237137290347 -0.8024870622735986 1.3599443937322255 -0.8875522674750586
Ni 9.273709099741653 9.026270578124215 5.116967779980606 -0.9318989119112339 -0.27401814762752164 0.18748998472729003
Ni 7.705123947993186 0.9379780844355963 1.5315281674519259 -0.4094142398730497 -1.2886816416314966 -0.5610977564246917
Ni 8.893834881500808 0.16982584661436664 10.248045173781588 0.6863174223578502 1.314063057819079 -1.0683280734069667
Ni 3.499546323501654 6.207324840842601 12.395861749584414 -1.2573339805581507 -0.17462804116295733 0.4355903840477853
Ni 3.8655153068775236 7.2466898189514195 0.7778439065509464 -1.8491533344364155 2.2093247781232535 -0.20904431385929803
Ni 3.3474846477366045 8.775985682927036 8.583780807315211 -0.865015262714807 -1.4838517686118637 0.5863069087004676
Ni 6.366581775722346 3.464932554297495 9.541800161463918 0.976065579126119 1.3110636088711227 -0.883424361349614
Ni 6.516646323795379 2.1093494700377646 7.120874507303323 -0.19836600820984546 0.5631659518076301 -0.02330010817852116
Ni 4.914688608370968 0.45654619010674247 3.668800095688354 4.089384829440854 0.9292293354988708 0.9918920046354143
Ni 8.577467457391615 4.840365594636289 3.8364216359435885 1.8705431129661012 -1.4356006469149598 -1.5097165521937677
Ni 4.38443254139574 0.7546678929511597 12.730012942524949 -0.37448426076508406 -1.260138025665849 -0.32478997886375033
Ni 2.499619951123969 1.511862992346236 0.4534497089468773 0.31619735209873284 -0.40788340505082005 0.10484315915933555
Ni 2.859765534126855 3.0814187108235345 6.965914196673132 0.13571902280258563 1.0313507248516691 0.5541244104306522
Ni 5.376165090812721 2.3543149129711627 0.7709370177431819 0.4880370318832757 -0.05552554387113018 -0.6649816369945515
Ni 2.676263095771131 5.367896608872877 6.6186920829595195 1.5889309550414052 1.4536420777977028 2.0608173453067478
Ni 9.27283185673675 2.636731166316071 8.450115104010456 0.09108775724645603 -0.46136569323967636 1.417535818993449
P 6.1579845880029165 9.130037226757553 7.151620941387988 0.8947536703195041 0.7201834789776758 -0.5748295041884874
P 7.647916505226538 3.005863823933032 0.7533305639872998 -0.7703675560312345 1.0392452971083972 -0.6631864927673417
P 8.966935354452055 2.3838052097317837 4.435964035273208 0.5899061960159518 0.14720619750657876 0.16632132106947484
P 4.082231658578517 0.8707784705481904 1.8847052679892566 -0.8247553867534958 0.39553259679495106 -1.9088456080907252
P 4.817725259211837 2.256520982669091 5.510985208582439 0.05347637465158532 -0.023379298155888767 0.1080884055695106
P 5.819088816937984 4.525416691130772 3.4913711652857353 -0.17274599364889603 2.064423317490451 -0.9675143471219982
P 7.568749990220099 5.2013417587821165 11.021356347061445 -0.8762795227747165 -0.41892295069443336 0.5414267603583256
P 4.135248866140886 4.1556494321911135 13.353881103733123 -0.048953289970251175 -0.1642695807467687 -0.12365206433572254
Ni 8.499579477402962 5.239156531716938 8.661062183098345 -2.823600661232821 -3.00694191389906 2.097514700727781
Ni 4.803101431672631 2.6349206860719057 3.2520406088029903 0.9066208540707353 -1.6897246267217159 1.7361824039636227
Ni 0.6144377989054504 2.611524428483654 11.57347536284082 0.3517243413607491 -2.015265881929194 -2.114079804175314
Ni 7.045595858635642 6.9605032871599 6.584299490981065 0.16716952800238305 -0.1257778524294737 -0.9384343990369063
Ni 4.887680722666779 5.036634718425092 11.22510536732292 2.1851348111406113 -1.5078548163946803 -0.6795783038618038
Ni 4.13149725243906 4.183469234293458 2.0362508635609955 -1.44797793753339 2.6324864494893823 -2.5436219251464904
Ni 7.162250513543161 6.535581707379967 3.250169468138273 -0.43800696390907795 0.9832777806038421 1.0144449502352657
Ni 1.1242429050195306 0.9166956091942684 3.443196525757887 -1.5592128591516823 -0.14154334279384656 1.3297434446688132
Ni 1.154657106647019 4.321448360118072 5.310869280893406 0.5183482812723074 -0.44871046636951106 -1.9839138499804736
Ni 4.539853871222126 2.06574862621953 8.520375736042636 -0.23661965237440535 0.3062772647715435 0.09899955589436499
Ni 3.052917645536529 2.4871519016074535 11.41881555460167 1.6902684150403278 -3.888657005867051 2.1272795906950397
Ni 1.5834236238527044 4.999137246151618 2.613911649341681 -0.38155916533399453 -1.8776424430150438 1.5372564094852492
Ni 5.174781826952773 5.643145600220267 6.1364109427429385 -0.040112294639853496 -0.3874140814528747 0.11265185657047697
Ni 4.410507189860669 7.653814564578663 10.61172679268403 0.13189244996764382 0.1818484701707965 -0.5619948143176644
Ni 5.699401141002868 2.4792007203289566 11.635035424091377 0.013943092443653406 -0.436859480568196 -0.1229799779693624
Ni 3.0496233180819408 1.228364183803786 4.600020609274468 -0.9118173106700103 1.816693157025181 0.16679311849957082
Ni 3.6927730938904695 6.442071336006101 3.002056215996851 2.3187846101189935 -1.9289081831685553 1.1288284447848689
Ni 2.3363687608601897 2.6549199601092512 2.778091410658524 1.0575384389906304 0.355663271403839 -0.14950476373276833
Ni 3.3541666263697074 4.146149077095445 4.529172037781555 1.087023592933941 0.4311724574857478 0.1565830107357884
Ni 3.3828170096149943 0.9668991064802686 6.7595838422078645 0.1412407239517632 -1.0806529135209064 0.7511945826472095
Ni 6.74881708417852 9.315471466198545 12.922179555409965 0.6043198003381205 0.5272898067363112 1.4025416595774618
Ni 8.422428754833325 0.5321085428951587 7.302181971672307 0.5799843089165495 -0.2718900455409253 0.07094522086031008
Ni 7.092351044322576 8.21858174466173 10.954072741822507 -1.6497964230682103 -1.3628052602197884 -0.2804875574019492
Ni 9.275818215902381 0.7807285428574995 13.119317523068519 -0.05507945747264708 0.34271288189075816 0.22262950874290047
P 1.2123778298952597 5.78779737230559 12.161202978721406 0.11187641185703312 0.5609157223208727 0.885813430407081
P 0.022292237934207315 6.841711518974476 9.74559024416392 0.3253152552396011 1.9343015862699848 0.9647013031532353
P 5.327179468123956 7.760660896101558 12.594694476069467 -0.40211359244657846 -0.10773590732609833 0.5304653762508155
P 8.617279358018454 6.274947211199391 5.232112457035002 0.3564662269211087 1.8837030473868268 0.46557561755596594
P 7.8886170539765175 2.193891431542342 10.365771185039776 1.982500771683031 0.449258111342865 1.2144790901761537
P 0.9496155528091704 8.684481771617577 8.189572065079329 -0.58384816274733 -0.14088899703929927 -0.3880941382390348
P 1.8934916965968909 0.6772232006511557 12.125306941550503 -0.07684693105672571 -0.2231056770483706 -0.5447529965180812
P 1.1564302574016132 4.461331289910777 7.603223773838369 -2.0808405825062097 -1.068564614897805 1.5131651728640003
