# total energy = -340888.8842467423 ev
CRYSTAL
PRIMVEC
9.16035632573694 0.00000000000000 0.00000000000000

0.00000000000000 9.16035632573694 0.00000000000000

0.00000000000000 0.00000000000000 13.40710742572272

PRIMCOORD
 96 1
Ni 6.255158570243684 2.158564717353218 11.560748177415688 0.5924652149923797 -0.5696836983214899 0.48553457717639614
Ni 4.534587136751267 9.04846270754258 5.741754483883046 0.4333712649092794 1.1979093587429306 0.24312068671771675
Ni 2.7626719052908952 1.4782342032975482 4.9212668518204365 -0.24653665437780123 -0.954942938214891 0.1794709710775554
Ni 3.7188390731219534 4.41313913078175 5.093789341277933 -0.07971139708871433 0.1634565979271701 -0.8586332704478632
Ni 5.293486028179131 4.350399849375412 2.9241305162139235 -0.22722972651907317 -0.24061848912115336 -0.23515000980741438
Ni 7.368123559630047 6.065328503287409 2.5604222270438157 -0.17798744455349347 0.7375785345256717 0.7350310855134696
Ni 5.432604361763311 4.756670818809268 11.740027345799353 -1.0567334265908317 -1.2915340234786274 0.04558977281465697
Ni 5.565905868994297 7.8910425082474775 12.614532683881094 -0.458315850669759 1.5161707924595436 0.9647632667394223
Ni 1.9908660716084638 6.557908351303614 0.5142385948343018 -0.42155421766969337 -0.5694121898276581 -0.24872234917521036
Ni 2.7158441630585695 1.5310070168735317 0.3103354722458817 -0.2900888279371391 1.2456801983693062 0.24117924672062982
Ni 0.23592589670730968 -0.03362766857098337 5.215673380215029 1.3281858703737062 -0.09591114677702837 0.48380191075600554
Ni 8.655987234940078 2.4389998700723914 1.316603377673039 1.0578729395119137 -0.1587532789142298 0.14630065497317385
Ni 6.935828017488438 0.8943256013579696 5.098066311709912 0.44608074205614784 -0.8513153966302112 -0.14126900608653734
Ni 0.6019673286682184 7.351305145166325 2.6965845135977977 0.7569741654434641 1.0755721565638896 -1.2312689080399826
Ni 7.930853417430123 3.809260951755616 3.5491425536328975 -0.6927714055133101 -0.012127893611785564 1.0161171957313662
Ni 7.92924119469286 4.073408990685847 12.500707010523376 -0.2641847064768676 -0.42902198680164827 -0.21545947335702248
Ni 7.949586346394345 8.843957749534624 7.39605806666007 0.07542691078074751 0.8809933833106183 -2.1091988219339286
Ni 6.915015687607405 1.0101491484599892 0.35922612675338716 -1.272706349249163 -1.4002055552451176 -0.24789831061201822
Ni 1.724913442455274 6.886499497942062 9.686192983873008 0.38956660901950324 0.15838638249311432 -1.18815536467996
Ni 8.969793566249306 4.938961912397546 1.1922240576357706 0.6994128220892277 -0.6555693425417162 0.8577886630593807
Ni 6.585865759224791 2.1682197330638733 7.278115729108454 0.14352129245582376 -0.539561939235445 -0.4399718009449326
Ni 3.2982962683207337 4.172569849383993 0.5018464646128836 1.0109361657510587 0.39665411199390394 -0.5218087290170821
Ni 6.322743680218273 5.518894919632737 4.8712311527552155 0.109968653311359 0.366876109400523 -0.27903925499119686
Ni 5.247684245870518 3.0433543876345346 9.634829949156485 0.17559323328970405 -0.08904141624038858 -0.9504494212199116
P 0.3986229878239634 5.72589149459828 12.67348415789051 -1.0679431792637222 -0.1320621427762887 -1.2044201632782547
P 3.9496342541750518 6.023758805664112 12.814111202183934 0.5550703192836892 0.7022500344277066 0.9453537518645592
P 2.4045660901327763 8.506655103901076 1.4773429006138226 -1.4529219118022267 0.6758854283912489 0.1622659200531786
P 6.564210676549279 7.877915717437829 5.667010555333621 -0.011904721857385949 -0.024724756440189677 1.4601068595864402
P 4.601384456070147 0.95835649302541 12.634348366979092 0.9842882241462275 1.1520339363670544 -0.7737382722756804
P 4.138850577248393 6.248279142540931 8.153532522658136 -0.363838865236096 0.4466291583604501 -0.1268155496653687
P 4.5591368920686834 1.0243293802627356 3.6273197837841757 -0.014997244739780622 -0.706211590178616 0.14099904025460233
P 0.32000972470510686 5.515725436296981 3.5694684685858133 -0.469584738715359 -1.009646757515674 0.5485559152039391
Ni 1.4511928310225435 0.5769329904939768 3.0022399597273854 -0.5089696682708847 1.0768895898237323 -0.5498021289062144
Ni 2.0505274732436627 6.233091271527395 4.9880605069967325 -0.7570106751083543 0.4395794506025204 -1.6051805841310485
Ni 6.001096083777811 5.827800460234944 9.523323678054874 -0.2482670068053466 -0.5508377692595804 -1.2557681787329276
Ni 8.421253100608439 2.4362700838467983 10.126428722995637 1.1324909812381205 0.10971617098092072 0.30419904208627613
Ni 2.138760026682974 5.1766548418663225 7.126346943250635 1.5421330208512602 1.553913044205324 -0.13691715687574485
Ni 0.4007710914142373 9.231166017171635 9.252996062655567 0.6295942586341932 0.5232819711284988 0.7875435535898888
Ni 1.283759835615179 1.2825873099880787 11.458961044519969 0.12341526573456808 -0.04724633458147347 -0.33139488577477766
Ni 4.098893102362359 7.214513542123422 1.5479710810049956 1.8763748891565297 -2.215881605405164 -1.2179616494081151
Ni 5.8341394269064555 7.706241476988687 7.862718686067832 -0.985706958870625 0.7929534117515505 0.4347946276193673
Ni 5.123845386864492 2.4945299509433534 5.16275583300695 -0.18610518856462144 0.11659695726115402 0.1409602165968669
Ni 0.9311777154034793 7.6227814692659335 7.289203424569723 -0.340965045961716 -0.4090450294590891 -0.11161390222426583
Ni 5.414686704524181 4.806750487585505 7.029869152960128 0.7838776747025274 -0.05718699073395312 0.424742642700004
Ni 8.221328320831345 7.271197827908561 9.071624668856044 -0.15915179990422912 -0.5567099117696412 1.6075724814019927
Ni 4.663601597158166 0.314213967171775 10.217784957988396 0.36481845554054587 -0.3428635485360095 0.5154437060310026
Ni 8.371603968585902 7.197218789123689 4.641647886862003 -0.4713605996688592 -0.7327016660493446 0.2718957019678801
Ni 7.521440445729897 6.332371214859544 7.008565827972745 0.5500949775562849 -0.5826736828232545 -0.8004479203563827
Ni 2.3688773413579054 5.123946150785571 2.518270846785199 -0.742205748885038 0.546606247676736 0.6993544580474665
Ni 2.233413990001953 5.3026830260667 11.58903719024078 0.2755613237449254 0.5580767102101808 -0.2696256749867808
Ni 1.0181003378687643 3.3442720974021194 3.8289896114672284 1.2764169653315307 -0.4189676878894398 -0.7719829801474705
Ni 3.2578716152551523 2.7233006932184116 2.8725934347246267 1.109416101696528 -0.1689911545921541 -0.03034493084044451
Ni 1.472298292310352 3.2688457222962963 8.230167148781259 -2.241314700766288 -0.2540764143982721 0.7616677142643914
Ni 3.680154887784099 3.340653756599739 7.301350057237967 0.695828447172079 -2.3838137226051845 0.2784625565521204
Ni 4.290106383144354 6.706223682775363 5.832856060966169 0.2317132162117235 -0.017247731336854165 0.31051984209798134
Ni 0.9020294611422783 7.760699796153627 11.81856641003087 0.2295576033213014 -0.28642423460135835 -0.018861098570561063
P 0.29351614174651297 5.593762512994395 8.059307264021566 -0.6249539316487044 0.5028087908758114 0.17812911233768033
P 8.749477832988418 1.7494540374162286 7.956608675657902 0.055394160499588466 -0.42573148897583457 0.6049674612244484
P 1.800110808649554 3.4088434501008016 10.527448976105635 -0.8029030667650946 -0.22257705823841026 -0.9226779075335981
P 4.100221354049308 6.093075223009966 3.4746129774246763 0.7113548249424523 -0.21544584651026766 1.4001870433023562
P 7.140323815139931 4.156685791279366 10.380547087635929 -0.7614579122464304 -0.09440730853799224 0.236836910591534
P 6.330154408595807 7.815890943835506 10.350916998624843 -0.5455533809321894 1.6406990887526325 -0.9746591856968955
P 2.4352166428536997 8.154466879017232 5.878386696723514 0.4007149123268389 1.7918226190357465 -0.06604829777932496
P 6.9504754274707325 3.7678927819744774 1.6026721496161718 -0.11659695726115402 1.3323988800137891 -1.0857257000581237
Ni 5.425413481940859 2.8886176462831177 0.3785526468163293 -0.9036545723535598 0.3903176282529149 0.008616795134733547
Ni 1.6533252567069125 0.9929276783119508 7.233108149705073 -0.06383046419239975 -0.07806306285201393 -0.6099299474360463
Ni 6.9822069022541395 0.7007306278959259 9.274165646438608 -1.0068141731628855 -0.3023249649920148 0.5607126051711311
Ni 2.840571576641383 1.751185344787494 9.418332252468842 0.6090061500701963 -0.10676197344860322 -0.33688187703127787
Ni 6.418341160252809 1.9338336922777795 2.85055178500643 -0.23912262130191725 -0.17527184539454332 -0.3580322858566479
Ni 4.130642897858689 6.997275688633673 10.864222153135694 -0.4821831442056599 -0.06166996620597122 -1.1331460983236161
Ni 8.383155178084134 7.252794671776961 0.39889505041087653 1.057347920246379 0.37724922510473097 -0.48704741427649667
Ni 7.707459804398096 4.101128229339019 8.062015981427297 0.8422951954094721 0.18900410737897128 0.5954533510864262
Ni 3.091354655493961 8.480658012262708 12.803345035234473 0.25076303375432296 -0.2214293177872122 -1.2823099337771982
Ni 0.025327469581016594 5.160230322730453 10.205087787896804 -0.2272245843127506 -0.9129236563603117 0.7227761794055165
Ni 9.168234368279602 2.3346725703298334 5.778959271652332 -1.2659970555497873 0.010683962076407405 1.1154188562471823
Ni 3.5107157743116177 2.9823189325300774 11.711752073508954 1.2464062779020533 -0.6988127266113836 0.16752896822433083
Ni 1.2152586899944182 3.3931609198383326 12.772723795654226 -1.18851069113685 -0.1321603589170498 0.011088653713993805
Ni 3.301419949874181 8.365796302589171 8.151494343345403 0.3156527924491725 0.20541597307809142 -0.059024815273640285
Ni 5.782804789294963 7.835631512010517 3.704624948000298 -0.3398463589762405 0.1575451175387416 -1.5362467372738124
Ni 3.22403325848555 8.135605705062545 3.503987492490482 -0.17524073504629173 0.7188647601662523 1.8271140952481886
Ni 3.442791731147945 4.641360251669105 9.347488803700818 -0.19640965581442302 0.10983469883665602 0.8904136481832537
Ni 7.0595111504346155 6.413284643485938 11.70853404028395 2.4754979757850593 -1.0840182304487138 -0.29474920952728595
Ni 0.6918001963813926 0.2670500398573043 0.32400455615806406 -0.4756468857490389 -0.7122508543941605 0.4370865089773376
Ni 4.466021868635274 0.36830495604260033 1.3617730953857927 1.5436268317879673 0.3255263428091426 1.2456981960914353
Ni 6.245750884157495 5.779818513088441 0.470892704093077 -0.8391628204280773 -0.9325234328691101 0.2020257164496198
Ni 7.927867141223602 8.790763559561402 11.481900409171413 0.1422498819425679 0.8455921209931889 0.19959088175588208
Ni 0.13133661076994663 4.836127750758249 5.793800881191615 -1.0552581275968858 -0.18558119774035137 -0.1987599012141545
Ni 8.103516976377131 9.349975840480175 2.221034684279581 0.22239913789964924 -1.66911055001579 0.15336861756354878
P 8.704811934881059 1.4499653432566726 3.797215083008451 -0.3837379181528682 0.8017167597664773 -0.3914417145550291
P 1.6710780275297308 3.1657001085373 1.5355432253933767 -0.6247819248472143 -0.1266754245430786 0.1283759521739531
P 4.864250045095737 1.2753689490962412 8.134105238674115 -1.0954871503202617 -0.5581013928005292 0.6306309274288237
P 8.510649019318388 1.5806011867572973 12.513993191535459 0.1650105726778513 1.0950814302414107 -1.0464215031418622
P 6.600952866317248 7.889164635172825 1.2489294122407717 -1.5017600163508524 0.3828264620821923 1.2967348509532763
P 1.983995804262172 3.2334684256411235 5.880532052206849 0.23469980964387321 0.6620901743793695 0.5841896052471487
P 6.938402077654182 3.5934979156562044 5.698141110733139 0.800002605288848 0.9624060793611555 -0.1881924101109533
P 2.4764016055056044 8.925851336302424 10.296913033140402 -0.5262474815147259 -1.2647217883817896 0.4531134805332132
