# total energy = -340855.2746394399 ev
CRYSTAL
PRIMVEC
9.43590323862819 0.00000000000000 0.00000000000000

0.00000000000000 9.43590323862819 0.00000000000000

0.00000000000000 0.00000000000000 13.81039818544416

PRIMCOORD
 96 1
Ni 6.372650502565512 8.576113197695822 8.517811582176734 1.2308469900112158 -0.11646583099992844 -0.6542778774238022
Ni 8.241468888312873 2.7070851602281807 10.370186962890099 0.35014825512288084 -0.05601071103766483 -0.0679102906887282
Ni 5.424200685629746 2.1342597805662447 2.226471201657854 -2.190688136858672 -0.5765750261246844 0.48975118636090487
Ni 5.305176201813124 6.893833183644257 3.424536516452201 -1.1540468530320254 -0.03314100552834292 -1.194185372924124
Ni 3.7964130129481672 2.1036968898827157 12.304457491652682 0.007483967081870981 0.22215514020964322 -0.47295005564316617
Ni 5.185311922605692 1.0158316021691962 4.824164991715234 -1.58867230206338 2.3780333684779817 -0.8856967023235585
Ni 6.751058531303262 2.8549929439467117 8.391640345225285 -3.3044825701285547 -1.5231119996640672 0.838866115123265
Ni 8.693420347117753 3.744053185716644 12.51824203403347 -0.02789312686584228 -0.27650620415669797 0.7943186675301933
Ni 3.469006041371416 7.593024179864954 0.25910801654571686 0.38025947268596444 -0.4531793007741421 -0.42176864767334454
Ni 5.360470594960849 3.9663347589898454 3.856609357843374 -0.024626540299428554 0.19729102997811185 0.2914306866770143
Ni 7.824845451341627 9.538660254113276 6.13917794801702 -0.37126626804841867 -0.4822685048306147 0.05647376671701241
Ni 2.503807496135785 0.4851035613450179 5.857611538104256 0.8713836281349961 2.2816709930961476 1.9514475019216517
Ni 8.230126932585303 7.633117332848688 0.8876505178217635 -0.8340087870309636 0.22509313979204462 -0.28046596013539443
Ni 5.649464004335488 6.070899751973174 5.671129781828062 1.188194959668644 -1.400419985248769 0.43160363148589537
Ni 0.7391888465814286 0.5033610905773614 9.932424271828603 -2.566245061862645 1.2967266234231603 -1.9473874729196654
Ni 9.312623191339597 8.635965132121763 11.601660093203135 -0.1844671387405662 -1.2841238470574852 0.19338089629042826
Ni 1.1385549600666898 6.656086164915575 10.812671379946664 2.1762346804375037 2.438095109656569 2.036394693488009
Ni 7.026294393713841 8.178805054713207 12.83262179755907 0.02859375247729269 1.670534684056826 0.3002917366120699
Ni 0.7910702735172881 6.949523884729218 5.337138436951228 -0.3901247955158184 1.901986676187363 -0.2978052227447904
Ni 2.058725374909668 8.538407328238772 8.609540828611372 0.8812319816839856 -1.0220379320911752 -0.14572447075472966
Ni 9.059552265704447 7.880422921587378 8.003940782539997 -0.030723140115469665 1.2517868254876765 0.8131334862438512
Ni 2.3829807547950645 5.907205702088065 13.030759725141644 -0.39853513106670074 -2.2792806384871 -0.5678808407847962
Ni 1.019870168767699 2.952843260830997 2.217300447272142 -0.5756160046455248 2.274852427512418 0.21274773085281426
Ni 2.8749876229706075 0.5078582420746662 14.010372556208754 -0.1892912996020869 -0.44989471648559937 -2.165937926497186
P 8.760066131896314 7.0480724584553 10.131115143342655 -3.049254301514026 0.7179119093346797 -0.8372753735973775
P 2.4750940424926915 1.232508248901485 8.318582864176435 -1.3450278816317094 0.24486055222695896 -0.514009030467005
P 8.81337898535786 4.402783028726172 5.078857005531747 0.5221054343218943 0.29592600344420644 -0.21553300690743527
P 7.662934787174082 0.4501378781968592 10.190983118804152 2.006280904821764 -0.04052341403534311 -0.7394001611154427
P 2.112840280148952 1.2682042709625503 1.890050111689631 0.16280405194483574 -0.5636431485543648 1.1851291762591267
P 7.172201765939656 5.561521385882108 3.5603210516526094 -0.6647520374822488 -0.6058166965986211 3.846494513566388
P 2.8358758039266965 4.008239605400946 11.468610082769656 -0.24097175869551402 -1.173460481671947 -0.18326591934361341
P 3.3993030239341726 4.920115861271766 6.964818540335558 0.01713254591522856 -0.5817087478068239 0.9311358084929641
Ni 7.44764521822212 6.050735226690462 12.565929201966913 -0.6234840319713972 -2.595319867741414 -0.5497728183301758
Ni 7.423904485601016 3.1403157869502802 2.5883314868353375 0.7215073399954219 2.0614089561441595 -0.2494062626161124
Ni 0.8538473379561644 5.406697085068478 1.3073406233549572 0.5632209734152817 -1.5659512063167806 0.4329979407302607
Ni 0.984164710803366 4.494632111132308 10.949740141581783 -1.7794077903111614 -1.604553749180327 0.9300752284389336
Ni 5.53176054697632 6.525729161274649 11.198230879770875 0.2661927380458319 -1.119211233410079 -1.892936650169953
Ni 1.7874431559681843 5.633385225167616 3.831184316489015 -3.056500184443162 -0.220915097154955 -0.9046763287498548
Ni 7.053752872222353 4.269500895072313 6.451278940903511 1.7370457804051826 -0.13422084099050433 0.10593510667193369
Ni 5.553472560394906 8.234212678700143 1.1382794316912779 1.2527851848452038 -0.12834407049475316 -0.15522495404599718
Ni 6.1407065643463605 1.5801646688903555 11.206543910549568 -1.0049246694496563 2.1387904195481164 0.08680635626228275
Ni 1.090799853629721 7.647110777394435 1.2998909777252423 1.5498887535372792 1.2702018376597544 0.4517461678720413
Ni 4.984789542267415 3.4778663545396267 6.339180410085256 -1.594822895045808 0.0639865301542898 -0.942914289185131
Ni 1.2007469985029793 3.6167722865409337 6.995422005403137 -0.12017104776565754 0.7674526963772847 0.5281156450717163
Ni 3.411682929021172 8.730937498509451 2.2951636338551444 0.4311097225686124 0.8357167708610059 0.022509751066741877
Ni 6.375386914513095 3.382705270086588 0.3589955449454614 0.29647724796198616 -0.3997039545638213 -0.9040831752505462
Ni 5.048595120162452 6.370300962651896 8.314025322898217 -0.5573899685558013 1.4183562580122153 -0.7406317195296986
Ni 4.8931952292495025 9.219283236217192 12.617331285016784 -1.8854657957142043 0.7363929988580027 1.621962688685394
Ni 4.7337190281249795 4.433279868086829 12.083090257406104 1.332210675262383 0.29170759448748473 1.500003695781378
Ni 3.1523465636163808 4.383533786060411 1.993075077925829 -3.6851991849565953 -1.1505514382842572 1.8538229719979429
Ni 9.444206862405302 2.308550349820789 5.4323891624853085 -0.7018432859075913 -1.3540642808023646 -0.9505898034525178
Ni 9.148646064356463 6.562142311984046 3.1464783753743037 -0.4581340736762562 0.578915758442719 -0.0007561614397341816
Ni 1.1264015166581112 1.571417586561355 11.975603996105017 0.3180143507028136 0.8981161590338339 0.7809697570271131
Ni 1.8042579355909225 6.358902391504721 7.367723117546142 0.16832035377737464 0.415163226541685 -1.0150005656284198
Ni 1.589723238900363 3.5969663255823883 4.501678843692499 0.9608130238424228 -1.0511199370587962 0.15091115716199172
Ni 4.341411913874158 0.01507196828922547 7.672656598310618 -0.19947466789299195 1.3804764522473065 0.46747591990247234
P 3.460192907719543 2.4085520526500708 4.3644175896307225 0.5977640014974738 0.8797304574377945 0.024728870205247732
P 4.124640908109194 3.3549920221898524 0.4067525385630836 1.8630576032223334 -0.5378218166158867 -0.2102668734124895
P 0.6568464367173292 9.350263009473775 5.059052931753856 -1.661956198359196 -0.13161708481907008 0.2049917410564792
P 6.355920646072181 1.1773742661093076 13.362886535532814 -0.5406430881147656 -0.03118439602260436 -0.30961249979236355
P 8.731607447641444 4.056608045550304 0.8595381312168117 -0.478524207296834 -0.7062876948321901 0.1087340095733095
P 6.90184426551839 7.254605509174994 6.7925066799962135 1.3419602984499792 1.3202753572773778 0.9729028651274212
P 8.56377103622189 3.536925673091096 8.250718904286034 3.924547806226389 1.6805583868414156 -0.658206265943931
P 5.7027296782806935 9.129972411790023 3.153273169317252 0.11003241666975888 -0.02720972764557249 -0.32494835881848555
Ni 9.483082783867523 1.1838756034606357 7.390317387920242 1.3320893191931702 0.0740930224606724 1.3245945534780221
Ni 0.08326995915529765 6.355250696940186 13.080449191748457 1.3261387580366903 0.10366430835988598 -0.09515909910235225
Ni 7.249472377797458 2.0023364169829097 4.721706179675087 -0.29878044217386607 0.8331281841982232 0.06465321720401124
Ni 0.19880976389522073 1.2901993614791625 0.6553631127236734 0.3401654328785561 -0.4407415892314216 -0.6437296695943107
Ni 5.290210859230822 8.409673299959861 5.585560293046468 0.7312479643219535 -0.89604102167236 -0.166375571346178
Ni 0.17858862319290417 5.475418768565898 9.053061307846713 -0.0029166594261627187 -1.6694555920600345 -2.2641790069589716
Ni 3.672604526174908 5.71786486712181 4.864754473210841 -0.1327537695266746 -0.3663965986609432 1.0585522249671253
Ni 5.962103787298554 8.722294211116393 10.814591586261606 0.8130231859182321 -0.00261198370155034 -0.950728643023227
Ni 8.871277687807423 1.4281711390569842 2.9030698146851033 0.9589039797451677 -1.0363178390489571 2.487350761358587
Ni 8.290639380239972 1.0349015626728741 12.370885307065764 -0.7438898214556802 1.1855140704023712 0.4007593924115292
Ni 2.1195303355656305 3.2110661896502193 9.209133035072309 0.3212050897259694 -0.28778511950462693 0.7032252538567825
Ni 4.732388565764259 4.169904936083535 8.869838712559124 -0.37388236551502707 -0.6833033181218748 0.26783258764210005
Ni 2.095280064168079 3.092749398578662 0.02481548200327682 -1.1597192208264544 0.12614397751964082 -0.5868908062283957
Ni 3.429865914617702 7.372686402664863 11.562134038005778 -0.5097134884154447 0.9959674602563687 -0.36774257116587633
Ni 4.169989859212943 1.5435061846960019 9.609620133865754 1.245109927688133 1.0750697630061743 0.15495293133153315
Ni 7.247226632819785 0.908414222961963 1.3953332520956536 0.0891396323811497 -1.3751301003337286 0.21677767794781375
Ni 7.135562153551837 5.53290229127169 9.35149062048888 0.46782507571177495 0.17266808922310906 -0.1559734021762475
Ni 2.6352873722655463 8.312049444753997 4.393225402306491 -0.0996400176918413 -2.2123926184152993 0.38287942680731474
Ni 2.7204652710615385 0.3283231977840288 10.78651505608907 1.5442233277213857 -1.3413625169649803 1.0703996112240148
Ni 8.713877385401757 6.0614355409958405 6.749666735571302 -0.45839144110270086 -1.7612984823049604 -0.10605646274114637
Ni 7.287725529644024 7.754010125512281 4.353989972929775 0.8894893365967713 0.2492057165695321 0.005694479281615999
Ni 5.050963531882602 5.104634949668312 1.5479939002900391 1.5726257901234786 1.8326450523687468 -1.1377992808249113
Ni 7.197140858275737 5.68662259140302 1.6454677246339495 1.5211767303145673 -0.28567861468458544 -3.8970308317530433
Ni 2.631956498412108 5.767073102661979 9.379939868840482 1.6388612642129452 -0.7481833066247114 0.31172851769410187
P 5.449762547581484 6.3946172853723215 13.29951029123645 -1.0678863578838578 0.9012919856586542 1.868459490964195
P 4.3183788739981175 8.147751497059767 9.645319930288126 -0.9118579340999586 -0.6526953634280308 -0.46403321276951054
P 9.00990997861397 8.800376310655203 2.4015175867641276 -0.4728112160724567 0.17406496957063572 0.7712900678455039
P 5.78708665349241 1.5675866098347382 6.875783244283799 0.9647730369314353 -1.3218496437430332 0.20656371352928937
P 3.086587753744965 6.53141901094497 2.6551461742823896 2.189946116486325 1.503103160642308 -1.8930898879183653
P 3.5948998627667996 7.83063909594789 6.6203731582286265 -2.988801238434291 -1.7201361491340375 -0.8302336362592475
P 1.4623479806919775 8.200413273195851 13.028743272613372 1.1349864939664647 -0.1595516064458091 -0.5099675134077798
P 6.280282445479662 3.991509748907615 10.606192113875595 0.3610990977074297 -0.7235580518768635 -0.4435134955496039
