# total energy = -381165.8612570403 ev
CRYSTAL
PRIMVEC
9.26463233572108 0.00000000000000 0.00000000000000

0.00000000000000 9.26463233572108 0.00000000000000

0.00000000000000 0.00000000000000 13.55972590671321

PRIMCOORD
 96 1
Ni 5.410637978529746 0.5832021254804926 12.041335400207007 -0.071378965963619 -1.52861210354669 -4.524335008801478
Ni 5.129076534709438 6.4096340275475425 0.24389052194482572 0.8670430917781132 0.5610188235576403 -0.2577039838485304
Ni 6.8387254779946325 1.335061325354141 6.668727811290569 0.9583753609352075 -0.01732255043884759 -0.5999792639812376
Ni 7.480468036335754 8.61664549756925 5.072395513575134 -0.03783661123179935 0.1956524659334243 1.4677970291418465
Ni 3.5538666724441663 5.613236960250073 8.080525307574606 -2.279220474673126 -0.8040508072162926 0.7413094623230136
Ni 4.515785662524487 0.7678619994495364 1.8707405188456807 2.8757457186674924 0.5714019665641772 0.13500657011659328
Ni 0.9469380794601552 3.0547623948130394 4.159120476006364 -1.9569427207082684 1.5061290919528254 -1.1566603793954724
Ni 0.20180963503830027 0.8010349422860009 4.472634710573663 1.617244714384434 -1.6824381203626315 -0.672862582404525
Ni 1.0002560390266673 1.8568361585125057 9.145113101186492 -0.1867911588880525 -0.1656860014783211 1.078918447328303
Ni 1.7464758571473815 9.064757238370824 0.34246991672701765 -0.4815182569281514 0.024659450419893012 -0.34935352713572737
Ni 6.326317188211027 1.3321429661424204 0.16901654213098039 2.7392399382975534 1.242112792733022 3.0448947389937495
Ni 8.508916351810882 2.1384902486569946 2.2493554724889084 -2.071817038851361 0.028686312191098982 2.5284164210506455
Ni 8.84113680569369 3.638739970026932 10.764578259586834 0.3393362521090414 -0.7384691646607411 0.33469206846881067
Ni 3.2888518621226934 5.262524300060617 12.393711988378763 2.3236391099978175 -4.136530890999038 0.19171739254507628
Ni 4.485406932825339 1.396995393069542 6.331578572961301 -1.4062391630337072 0.3192561935297147 -0.5884244692641029
Ni 6.583855440171045 8.145474086678876 10.277946956580275 1.0338752910457356 0.47436699059535076 0.8286477798293664
Ni 1.4387510913781898 7.120926181451793 8.798187822729583 -0.06042452383464433 -1.1030461936144422 -0.2753551212713903
Ni 4.072862115877083 4.796476230897487 1.7675649399208395 0.34927999358531464 -1.4119565251334585 -0.16151798614356055
Ni 2.9511560104807537 6.614984605096063 0.9218540871879863 0.10330486813793822 0.3471557481534602 1.3856911636790263
Ni 4.180165088544214 2.004940572349215 13.017377395945571 -1.6974307371167217 1.273317757580917 1.1551691395619266
Ni 3.3821281813087305 8.168394787281404 7.803500754249471 0.20318476975472752 -1.5082620791354282 -0.31012749175556914
Ni 1.2523930102868972 5.203434474497591 5.750951088829814 1.5623804582463865 0.46528842533285025 -1.6166708441588349
Ni 2.651695296828561 0.46680406316845313 11.783795295320507 -0.6783634576180962 0.6571068622321651 0.14357811383568822
Ni 2.3979277502627347 7.086220868413364 12.45440459535013 -2.6417743025492118 4.293482340817838 -1.2989729962551757
P 6.147009492389954 1.947351617237931 10.200724392448427 -0.9894268309243734 0.5103848034508565 -0.3663238364414788
Ni 5.388069333959107 0.885583977734131 8.39822993538464 -0.579273398892454 -0.7873898016208439 1.6558955939874127
P 4.929386647568413 6.254127172408723 6.816189259637458 2.618749302408948 0.6270357538783975 -1.9941491545552366
Ni 6.437789245466331 4.463431224729463 0.09174765483704057 -0.8347963159292656 2.8016154152109816 3.6270341465800886
P 8.63624019513366 2.772839630328424 6.519610773130555 0.9938516994649462 -0.8616810561352514 1.404165054113498
P 2.4725173058613423 0.22422356024755524 5.44027090531923 -0.3116454710619923 -0.5196045222769116 1.1464014206716258
P 4.775352868984081 7.587029838409433 2.1512365299378993 -1.4275677493081542 -0.563157724277514 0.8094472956415156
Ni 1.5947397074027536 4.68502270290702 2.0413894892087407 -0.22618920106970078 -2.483416459301188 -0.5201699078620784
Ni 7.162654085863186 8.497937762395363 12.7244065573023 0.33504790914633265 -1.1342236476585112 -0.009272169330545322
Ni 6.327401150203952 5.556407704997079 2.479368501534572 0.3007553065120498 0.7649345579411212 -0.9989388841798668
Ni 0.41747823371092635 1.7706658123911978 12.186139751976368 0.16132926717152216 0.05960639880872315 -1.7530280147660517
Ni 6.241666241806298 2.9865376416857075 2.0381487207888687 -0.36253120216826595 0.1731206033794954 0.6542058865352863
Ni 3.425041958669649 6.823948389287667 5.52561577269208 -1.5842700592306262 0.36972206348975034 -0.0401608884896018
Ni 7.824927069642951 4.1938304213610005 3.8332398100873037 0.2669519848093596 2.464812471046755 -0.9557587492479669
Ni 0.5676143814369381 8.718074693283267 11.513821127265592 -0.4913421849971086 -1.18688755371113 0.7511925257646805
Ni 4.1183421964178315 3.769686284625208 5.948285906410144 -1.389461429354736 0.5760273811513306 0.7059480521045842
Ni 0.7331576128743501 6.8011759228038295 1.4439754175987904 -1.2276819620196726 0.7141033342218669 0.023270797602482504
Ni 5.295997416987431 7.27166175089526 8.69826598271 -0.09127930443197184 0.3130402945269899 -0.13938181636615352
Ni 0.18141447323296234 7.382207344908746 6.861858338679537 -0.44791213883793185 -1.695212132198848 -0.3700478222602853
Ni 6.936198675666096 0.7293998779655443 3.334553367378236 -1.1932492342630998 0.37367847703433704 -0.0018460520698032723
Ni 8.890276416039612 8.811388070998976 9.379398052240171 1.1630547129575906 0.4063931936585388 -0.6599409892468504
Ni 7.745834902689117 5.455858649362785 11.763468691795063 -0.3254859764895104 0.6969803013883351 0.4334072603535375
Ni 8.538118473192924 4.546192186120888 1.3813974579303274 -0.700872951574522 -0.20595076253563885 0.5293217495646755
Ni 0.9780487151203371 4.992506588233338 13.211729001887253 0.3894318832138519 -0.9120111718483712 0.026278216970238615
Ni 7.341776489035896 6.218541719290569 5.788334807100333 0.7373072831421561 1.0300841994344194 -1.7959055308558685
Ni 3.298070171378763 6.565242793642962 10.349746004894532 -0.10361365762760866 -0.7461742466144826 -0.3452844992726763
Ni 5.431529724632696 8.545326357214252 6.401790589742327 -1.318502324537355 -0.4559797463374147 -0.714323677762789
Ni 0.24273892813524844 0.32452154434331587 6.995747100533821 -0.20467189582321527 1.9636967516026502 0.011983654724437427
Ni 1.6512076419914399 2.5407976467831834 6.328934446869158 -1.4715292424907689 -0.48064331052236575 -0.5647278969781113
Ni 4.146451091174529 8.712339885816426 10.433720633132737 0.7313474660142953 0.04688895124205473 -1.276331861816892
Ni 1.1806199029434101 7.771043967498931 4.678404049507486 -0.22490004994463203 -0.03746791503847096 0.19601396303790114
Ni 2.756098439548808 2.1127716290641816 1.8709980756269056 0.012711534029397462 0.9879584739089631 -0.05018664815672002
P 2.691357188210705 3.3247893712727365 0.11722261459725569 -1.1413391756573699 2.0813807712803962 -0.41985908935545757
Ni 6.731116772457702 5.570184213402881 7.784150642980903 -1.4750799359565048 0.41421628924738335 1.288411932909878
P 2.120238922793219 8.92603789717371 9.58838036569661 -0.44356311784061675 1.7210146950842486 0.7605883651572837
Ni 8.346044113899627 6.651070348364797 9.388035469043622 -0.9546670588456849 -1.7123986712804637 -0.3801242326596808
P -0.023133787148146047 6.9097944732743395 12.853169198039616 -0.42674270384916824 0.8312420229191038 -0.14928827684658805
P 3.607008603994733 4.343704379989578 9.927102738610483 0.6238442435242934 0.031874223000777364 0.37049082333497485
P 1.0412335082121897 0.9714615614710254 2.282372769500748 -0.35799294797828024 -1.3686221240118817 0.68217794626818
Ni 0.5696841003191551 2.4375247892179517 0.6523431507539804 2.415764821590485 2.2755774786039002 -0.9818163655669672
Ni 4.992904967427319 4.712381162437847 4.055497415335726 -0.36493184118995864 -0.6353314182282864 -0.19867531192014815
Ni 5.930921205868786 3.401407881370922 11.95578671092096 -0.8652623457286066 -1.830098117577177 -3.825677833931353
Ni 3.497880498741224 2.141139933528588 10.330232836095403 1.127157741950665 -0.3133226016540991 -0.7073860701026914
Ni 5.574038300488837 5.515207884633519 10.365705260698057 0.2033110109199466 -0.7231019381760515 -0.054868627013421635
Ni 5.42868548248032 2.446733833841603 4.475617922212312 0.41268802552831507 -1.2608952155468478 -1.4144060151152158
Ni 2.673328213524965 0.9445478042962698 7.783377972637227 -0.2784707840822365 0.8953360251855355 0.07161139368939924
Ni 3.9126858859995113 8.719334683292137 13.534640353116293 1.8151216987730028 -0.6374021847143861 -0.06796994028207003
Ni 7.519629637567316 6.7315058870192646 0.7906594804409034 1.5444608976534886 -0.8376944634126671 -0.9011084088929385
Ni 2.788747004190405 8.662199695169344 2.3613722901304 -1.3206060011439191 -0.6990788357885768 0.8368292871988943
Ni 4.276100357234263 9.199993077778707 4.165140634151684 0.6918915740115181 -0.5068996731157334 0.7209591808014357
Ni 8.429601833679014 7.942198786792023 3.1348319804869886 0.5690108406241813 0.06091174788370799 -0.6743432807151095
Ni 6.594370797965658 8.468337261819341 1.8074575206501955 -0.3768458190187252 0.8298099184582676 -1.5314480303335885
Ni 2.7799178094958985 3.3498779958611147 8.03927638465923 0.6193314432556043 0.4445501643442344 1.5151091839642488
Ni 7.287105893136332 8.220295258087937 7.509538599937458 1.3138082614957955 -0.07140339144365122 1.2815409168216574
Ni 1.8696584097792397 3.682700650851102 11.104412388390884 0.42297295239409083 -0.5958868390794189 0.41785774265471254
Ni 5.4080438814526595 3.3292549240982896 7.814415417701306 -0.8672770621657901 -0.5831675917405377 1.6964205506846526
Ni 7.85393463374421 2.2456171933081808 4.725659233619552 -0.7942965560430063 -0.3871500291582106 -0.7491598116053678
Ni 0.8396397391092327 5.8458162924755666 10.934156238442354 0.008984977107429687 0.6108506594781028 -0.16202243658380483
Ni 6.6155034245114805 3.8379110377525403 5.9950120800111355 0.6487353503390182 0.7098810686104032 -0.292096088175155
Ni 5.561410606502885 6.8434597051603125 4.584746953929062 0.15545738177177743 1.5142414366473147 -1.2361630029074904
Ni 8.875712413878263 0.2282407048640695 0.581074965877283 -2.127800496195516 -0.36408877646337295 0.4617397887496435
Ni 8.714424428110512 4.85487120902915 6.955651624354507 0.6384496521422941 -0.9367968634334833 1.7326270825121968
Ni 2.8866000517910133 1.9942769804359126 4.233427460316218 1.8231908489343827 -0.7334611699231884 0.029485925274258896
Ni 7.2652413606294735 3.8578022035543302 9.188164921570442 -0.13184488455916002 -0.21303286619340087 0.5651158764451494
P 7.794678044797657 3.106245957160756 13.07613184181506 2.5832611368046674 -1.6399190160534982 -0.35005312430591323
Ni 7.804730170971362 0.9142533827521278 11.081672348120511 0.05596828783550361 -0.1303168779504078 1.2308426191358415
P 9.203133788168463 6.023261797180589 3.5804589468740113 0.5532859736897568 -0.8389679308084519 -0.11484449334642158
Ni 2.507185560370098 6.254720108883485 3.2371264928688634 0.9407427354551089 0.7604461831524645 1.7863716232235038
P 5.2358421586963155 7.154593855659387 11.771551157116667 -0.054397086693641794 0.7558991872117304 -0.2583722135601486
P 0.6323639709442179 5.000400055053611 8.820221898009693 -0.3055475856943705 -0.2880674266317362 0.5605107735729702
P 2.8114082950852253 4.224255474222239 4.235611134177178 -0.3143513000289296 0.963656921049121 -0.4183855901337246
Ni 7.826298235240838 1.4848519022909552 8.873295271280366 -0.1736726192282235 0.7326715841423576 -1.7632849166073696
