# total energy = -340864.68273785606 ev
CRYSTAL
PRIMVEC
9.32725446895467 0.00000000000000 0.00000000000000
0.00000000000000 9.32725446895467 0.00000000000000
0.00000000000000 0.00000000000000 13.65137972864551
PRIMCOORD
 96 1
Ni 1.0615534539453872 1.230115591678676 3.4377041044011936 0.1394872315957662 -1.543927650857838 0.010917418243452165
Ni 3.9866922951811166 4.9542456813932105 6.827464256811648 0.323701630895578 -0.17586962687954227 0.7497622210760571
Ni 5.966150161281808 4.781075880089745 11.157845348958716 -0.750505526999985 0.8956085621206317 -0.6774663997251236
Ni 1.8574853630496617 4.988047650580098 11.098557590421317 -0.26635908842036704 0.08651659293600585 0.5138164548402249
Ni 1.9564848390291396 0.17994791692380568 8.864236234462998 -1.9709076675287929 0.5780163865569012 -1.1519837998554094
Ni 4.311308722778042 3.529041241063059 3.1045690955519545 -1.565796683016787 -0.7886409004191256 2.940855306682632
Ni 8.795246266116493 8.791356801118996 3.53726321563211 -1.526774279007003 -1.2151208375252105 0.1124112013145806
Ni 7.57881375633549 3.529087877334012 4.169568037195365 -3.760364871656156 -0.9638458971314756 1.3896460345617163
Ni 5.6169004553673965 7.07146709188969 7.025982736829022 -1.8563879045116418 -0.34803326566240705 0.9000874238275918
Ni 2.2672502941529613 3.4216285818036214 13.234329976777564 1.4512722920139456 -0.23229068598174832 0.47204348466849666
Ni 8.96815490430262 6.246163659339083 8.955728203544428 -0.8842054624900128 0.5776934559998438 -0.04193494967088907
Ni 8.784687814372685 4.05949151413908 7.703459450437558 -0.46776336923590406 -0.5075781872399968 0.38198622556908407
Ni 2.1189842615385106 8.044980593529603 6.60756771018932 -1.4688468105625994 0.7618160669167976 1.0203407468944106
Ni 7.013861970008282 3.2781754123515423 9.38330259379934 -1.2642289079057711 1.5646445716902149 0.31640946810953896
Ni 5.921379341166725 5.8990219128717545 0.690214944656696 1.1332407149199515 -0.709192784294127 -2.4925287060151007
Ni 9.224980848441959 3.076473540478901 2.8320472480606043 -0.007078247003020068 0.5884776910995413 -1.1022170128449276
Ni 9.167711507711413 2.9493337386062555 5.599317648492616 2.457682030649561 0.5918414653654517 0.17955890280567138
Ni 8.977715339848029 2.062964772869513 9.143967116718295 1.6146067625409546 -0.45528117760849335 0.20243015097689007
Ni 9.238962402473732 -0.025087515596570735 7.318995629051794 -0.40539637696290826 0.9388827994282346 -0.25550671908689543
Ni 4.6924389835160705 7.927998171470567 2.8121018476993345 -0.9669746725684445 -0.6243584641565505 -0.050319831300474634
Ni 4.635934477629159 1.5710360596008446 5.7725266242636835 1.584817189983348 1.304396224153276 -0.6514977435755038
Ni 1.6892590064672361 5.190915429226569 8.724815236997534 0.8805349556169608 -0.15497529992903633 -0.6822831043874765
Ni 3.705354327028771 6.961293565389822 5.64573286352151 0.4574987540851024 -0.07709298562926079 -0.862543918356179
Ni 1.585260122241574 2.700725105408874 7.433940978795595 0.31178739595649524 -0.7791908107498193 1.474796600388131
P 8.266456244286406 1.9429976294694709 12.493414876516793 -0.5160384021922081 -0.7165453680044563 0.7347222960237992
P 5.036819862742967 5.4718336709403355 4.941594193809022 0.6128139538520607 -0.6813168838194653 0.12368677422839988
P 2.005042524345624 2.56069503824476 1.9599144703950389 0.11182447557317515 -0.4381967113223808 -2.979798263604733
P 7.429857506910931 4.252416439818327 1.3353885788267799 -0.1918840000299276 -0.12123419892284927 0.21500464520779097
P 6.333877157747883 7.159143281281727 12.482917051925227 0.14028427357576484 0.4862652846948335 -0.11585030890311661
P 4.468734119007704 4.543314843516081 12.765226919964237 -0.14277567253905088 0.5156882179416409 -2.8833572124661635
P 5.526883125173506 1.074471700999427 10.26845808376588 -2.671647950180192 0.5280128009452649 -1.5022937773671352
P 6.919199667227453 6.890453069811893 3.782647417055786 -0.7624570429349062 2.6128357651379903 0.12966613174028638
Ni 5.039795256829781 9.106123648290604 11.872535941337077 0.29692307725015316 -0.4219859058904732 0.9356974597217177
Ni 2.4355512687689123 9.01474453898488 1.1698438078241642 2.5034368682871726 -0.7425883290354373 1.1951220258057804
Ni 0.5436875122233809 9.539729041105184 11.17197520633212 0.3493954361172564 0.4886620670617843 0.41654056650518584
Ni 7.2976436787585754 7.913317073374497 8.302769110301416 1.1231149393398594 1.1477206537036815 -0.860408102960099
Ni 0.4557081870701468 6.779654617281253 4.906742908525687 -0.4601986695147687 -0.2802489590285819 0.6508356845114727
Ni 6.291773932331323 7.234582113175643 10.136504486005444 -0.9633998107329926 -0.9349911776833124 1.54198826774328
Ni 5.6709425661479775 5.310024465241072 2.8105731107374883 0.6718595950613074 0.5201580807875364 1.2232619785751062
Ni 2.4844727169988317 6.055244093310824 13.368959563765296 0.4685334146327092 0.052102377122194135 -0.02530171198958223
Ni 5.729284541110446 2.9486062127793855 1.6003786685591863 1.3005714510905473 -1.0650167496455463 -1.230155620371146
Ni 2.030925654724656 3.2811601336925476 3.878275090645347 0.12309799160446543 0.0142577954705948 1.641733700664734
Ni 6.299161117650312 9.237628605124469 4.196993895417529 -0.7606295028078642 -0.9015892051840988 -0.5875024716704657
Ni 6.689525360037076 1.280464109799763 8.325334536364837 0.47127215372011094 -0.8404761399228623 -1.0795105723863474
Ni 3.790306958197142 9.077722159280096 4.707636811494303 1.3778948075630593 -2.0993083022930943 0.16925880643124397
Ni 7.6432184465218755 1.162381071746231 2.041099823595809 0.1376416937465952 -0.060709916285547054 0.4750904990249367
Ni 7.840974889871874 8.831342739834279 12.714908249056558 -0.7445837621989113 1.5457261375191573 1.8879229990054454
Ni 7.493842470658738 7.828159242613931 5.744158713368263 1.3815964247843626 -1.027803630930359 -0.20741500578599117
Ni 0.9797254529308819 1.0826423756704295 0.039082127784210524 -0.8956052196865222 1.9222099452127737 -1.1253602837306103
Ni 0.7607616317276193 2.7583115727819 11.562376757735645 -0.973552582896278 -0.21390806970950255 -0.056220255945309626
Ni 9.299160501020136 3.4292396212231857 0.4594400214718228 -1.4147091481779313 -1.2505958905033687 -1.848214881782546
Ni 1.4173788740642026 4.716596571869833 1.5497316783039983 1.841390145551229 0.5775507597743924 1.1547886162940562
Ni 8.564014307476278 4.582125548203343 10.665099568222947 0.558856782909315 0.25412706513054945 0.2874645029404146
Ni 6.9411560235922245 5.145799500706433 6.198681406430779 -0.10726513833726688 -0.47719906072750723 -0.02114629506031197
Ni 8.360969311000186 6.635464594748113 0.33385693832359514 -0.14520047993045962 -0.5397041212402641 -0.8646658497951882
Ni 3.7626423222676966 1.1405646241943188 2.9427869388898436 0.07948231179704376 0.3829496179236179 -0.08427124854525486
P 3.0381944892805053 6.703040551359317 2.0517748660169994 -0.3403461814307945 0.2118082497576804 -1.1645266695174266
P 5.8420976805462645 5.280624960032168 9.063983113857281 -0.21142386983506814 -0.13145844775401874 -0.7356391514111138
P 9.108502098109216 5.941348992388891 6.796503369251229 -0.6877808942772542 0.7121971183380895 0.20725276917651403
P 2.711311538915253 8.397354929597881 12.12642473313178 4.073943812295434 0.5519831957179332 -2.475942519521645
P 0.5096019945090974 5.267902585316131 12.84787292117126 -0.6810492319803755 -0.07928639373615379 -0.20806035267947395
P 7.140227609783104 2.8422848422602534 6.583336436527451 0.07103392391937442 1.0245267599513 0.6888944390564071
P 3.856698353526134 1.552167024373175 0.8583769431852059 0.6662566470522332 -0.09083990290170807 -1.5248382383265544
P 1.738161800188774 3.1083727498108984 9.689202953137324 -0.4777055680502805 0.6926636762908521 -0.5792656855829702
Ni 5.127434137205058 2.6062680022202387 11.944588047234369 -0.010727670830149265 -0.47641615981489566 -0.30640427726771097
Ni 1.6223919211745215 4.72685655147954 6.236154582867104 -0.771704272564787 1.4789921265267174 -1.0504468222511714
Ni 2.90714656790198 5.4550539406513705 3.931624186439564 0.6316285154554026 1.219044855169965 -0.48367772647331536
Ni 8.156702444225118 5.391432739816999 3.059533381417857 1.0418863342756701 0.7199153129179536 -1.1873135855049552
Ni 3.8680869308929084 4.193197702961938 9.888390197280168 0.5654303223617746 1.3936952649304257 -0.2687126762542082
Ni 2.790621181298285 1.481988763842782 11.684925685095656 -0.10031133272725305 -1.435430954106315 1.2945517272590286
Ni 3.643001632764327 8.691760380871317 9.973943503618415 1.2429386310684274 -0.8889244652322368 0.8776643189373852
Ni 3.9731584493504943 4.624238100874093 1.0059891352808927 -1.0967197371757822 0.3474015456156791 3.0619326683126427
Ni 7.952043832774043 1.1099805577032025 5.3730328654751185 -0.820138971027407 -0.6705028239230968 0.06832372407706297
Ni 4.757608508546088 2.9505742634136105 7.783962048631572 0.6772136602843692 -0.1647802018346001 -0.1994731252310952
Ni 3.5417263067623326 1.9626688085575354 9.632262864479708 0.9237485148899574 -1.267769831179494 -1.1364391672525913
Ni 1.8428695557329253 8.16124481701596 3.699960375930323 1.7940340248647684 0.35340815682107524 -0.39826902188950764
Ni 7.377951337340006 4.409450091371981 12.772994657254202 1.3957860860211833 -0.8916284944269612 1.2627515520292962
Ni 6.636490592709084 7.878647669547878 1.6229030547041685 1.217266937333936 1.353620508396727 0.49269252837741595
Ni 4.455088346126794 0.3648402112940709 7.89105664852311 -0.72914557326697 -0.6588289871295945 -0.07139876345796091
Ni 4.031006079840858 6.453098120812673 11.2543059463475 -0.3840163686252354 0.13962401428394666 0.604014610392876
Ni 2.386620493284802 0.9794176535425908 5.723831828310596 -1.284155214516053 1.899319156657529 1.3358721832743703
Ni 1.133597165313909 8.053160595454797 13.13639474050124 -4.551139273478517 -1.5117392390507511 1.33772312044018
Ni 1.3424437138965817 7.372877311060297 10.227285718317548 1.6751801532486374 -0.0007461341374051666 -0.2097282273002001
Ni 0.6211195783378364 6.802310517710323 2.1262977615493934 0.2371410720955142 1.5898452393255587 -0.2765583975508721
Ni 6.196813157416393 1.0970716379033534 0.09016283535926335 -0.1730208445768375 -0.15702344070731666 -0.5072452293806102
Ni 7.481707712956712 0.8301899810210848 10.6196944948229 1.6623752881744855 -0.31334779846507965 0.9365369249038773
Ni 4.398807694340459 7.655735621645717 0.1702876797585574 -0.20991514650002557 0.4415651135739815 0.018182841556613847
Ni 8.57333223441273 7.394292686682012 11.261691266215651 -0.10511081099842544 -1.7113995405919882 -0.8995809165048184
P 8.932030448822264 8.802997214348917 9.341502504143977 0.947032939339195 -0.30218612542130535 1.3846704357239958
P 0.3559634634808366 9.1068231923549 1.6127876475344167 -1.4776443542495714 -0.6169791409733439 0.35323383602674
P 0.8207153562142302 4.983113533113248 3.7612003287698235 -1.1432644177045408 0.5418286237824346 0.16078265063943278
P 0.6310503058746133 9.293638766539276 5.322413856982503 -0.8634309489468227 -0.8541122426490582 -0.8457697842216337
P 6.143666463038113 9.320184131965844 6.555228756023951 -0.005566952564816219 -0.839622019452683 -0.008017728098153935
P 6.0144933197519075 1.9202950927694473 3.704888897044658 -0.3757255893713529 1.0237459159212177 -1.047158638418203
P 2.9575603768024017 3.1261038600273094 5.729620322261308 2.0015107371266305 -0.42944236216851844 1.907836964320553
P 3.374386039328018 7.214043499447849 8.27623027395278 -0.3174458797938533 0.24993719541891798 -0.416542880498031
