# total energy = -340865.06915311265 ev
CRYSTAL
PRIMVEC
9.25370894137569 0.00000000000000 0.00000000000000
0.00000000000000 9.25370894137569 0.00000000000000
0.00000000000000 0.00000000000000 13.54373841493978
PRIMCOORD
 96 1
Ni 0.08915300998894193 7.895014789999849 3.7629245841108694 -2.244102033703438 1.7559390177652596 0.9343753984761843
Ni 7.140254511232522 3.0811335034136453 11.89118559063691 0.6645499487737716 -1.4118824773624137 0.9695414048543559
Ni 0.16918556424730655 6.544417433273772 1.8498988155422182 1.3558000325465487 -1.3318057265144805 -1.005529650023507
Ni 4.892399008657987 8.16068877947314 9.461763986353686 -0.19549074354457946 -0.9133394037414915 0.25381621875835
Ni 7.47769101510377 5.204286021587551 1.448204555387357 -0.9077932771122816 -0.05465496834071878 0.8692395852087996
Ni 3.1733929835616324 0.2641702617376789 13.493870641073663 -1.0236021912545017 -0.0771660049590413 1.3300044116396836
Ni 7.585006280026158 7.928096800183305 12.99152008509516 0.6768243952657504 1.0746373034544459 -0.1224665286680536
Ni 3.2844189858500528 3.352535538845973 10.74125491665999 0.6905474012787978 0.046800505293306496 0.8213895556050563
Ni 1.5976713908234954 6.492698452877875 4.8403700290058245 -0.9498842927450608 0.022169337008187625 -3.8621232212425816
Ni 0.7680846945612186 1.985087177771903 6.707821280049016 -1.0006954618596573 2.956289381849515 -0.7986106100373278
Ni 4.7430071282659005 6.628431858576037 7.336792188962418 -0.2637293641070038 -0.6283447024978083 -0.11178385214322685
Ni 8.567389296273946 1.3502087009421047 4.9955538059500295 -0.9779103456443415 -0.1680123356186526 0.6626843563199426
Ni 3.8059117645601637 5.914434168580211 12.296739572874992 0.9049889748942673 -1.8048665967038982 0.5674010729349003
Ni 0.22651876997979228 0.9208051341317636 8.977236999554021 0.20451608697164134 0.7233814170896832 0.9715062418902108
Ni 6.332646299553945 4.751520540676748 6.978140631511703 -0.8374952029176673 -0.8061411140864181 -1.3011972576000042
Ni 1.5466279311949804 4.008956650558872 9.163232851829095 1.1204803299304895 0.24450908242481117 -0.008196162657547175
Ni 9.041401293375298 6.720876412906867 6.174238530344588 -0.9617334787741629 1.8126225865002332 -0.030211233476057652
Ni 0.5414215667188076 6.113453691102053 9.50960103576442 -0.4617680708844177 -2.248390119555831 0.41203650798724517
Ni 8.343005356993265 5.8116902359740825 3.919030030485641 -0.12068732528044378 -1.7758180160773738 0.3266139194463665
Ni 7.673518007971543 0.559208121061079 3.010407404439617 0.0033514329707361634 -0.2719648646429187 -0.23190219229407802
Ni 6.054581593539214 8.937028707960138 1.1293198876044421 -0.4865277943276008 -0.30732678908198036 0.7838295950734113
Ni 4.659279567947045 4.140720215035019 8.731052246905172 1.514428098736824 -1.0673178869748974 -0.2553789352597795
Ni 0.8975366824936378 2.356669868377963 11.161191939017835 1.3884108766030345 -2.6295235102063166 -1.4582775196871853
Ni 8.569998842252053 5.072763053549101 7.588718868134018 -0.8658444434843218 -0.4354592577865597 2.8855452212564177
P 2.0909588640681034 5.732358187497784 10.947918928304222 -0.46596899633964267 -0.4957009761864366 0.24332868896346482
P 5.445780069072207 4.461860937106809 11.243809054239623 -1.0880291513803195 -0.5026946338954504 0.26606906798377405
P 8.91167354491044 2.047290610625942 1.9064704410122988 0.288723057937864 -1.7788362340784076 -0.6744052443012967
P 8.980733976238868 3.1453172300241206 9.533017546748821 -2.18161368536123 -1.9043338362633009 -2.139422653815477
P 0.939640133719849 8.712246859186342 5.573357255532411 0.6269830462635911 -0.5080576979795767 0.09882137844528786
P 6.5312586588735275 0.7044737725466471 11.408311316290048 0.5203455142079941 0.44470057387916956 -0.01902076407687692
P 2.3685146160800112 2.7148346807277965 5.226840086879897 0.5466034194632586 -0.3706304342366326 0.5326760107488892
P 5.616982941912519 2.488220597543839 3.430615560475329 -0.6398617019984723 -0.05940790964467188 1.1152694751535115
Ni 7.885557499256496 1.182133581791865 13.236268662085136 0.3368924185542392 -0.3888610983120464 0.6158154596825459
Ni 4.663508513025042 3.2453405721424344 5.393726104405361 1.1827041117574018 -0.9708395548404892 0.3085264658170364
Ni 8.738379333803987 9.178643053663643 7.044910769827431 -1.1374807211432283 -0.5360436416695413 0.09592117407935738
Ni 1.1627748222663294 4.78134524524214 6.341869471456 1.802133256933135 -1.898521857567214 0.09204497895340276
Ni 1.1638019839811165 2.101202720088547 13.347679618673872 -1.268671517058157 0.09571291472329323 -0.5514514915841794
Ni 1.9973853572219207 0.4214333471261423 7.3481825795455835 1.0049750630716177 -2.070521459968389 0.2410103252429333
Ni 1.9112055639803756 4.340396750905959 12.651084454090917 -0.34512251977351527 -0.14252601842209003 0.6863732152964502
Ni 2.793130313780165 7.841565365994356 11.408920210351607 -1.8124819471573106 -0.3492347421696759 -0.21038051617221834
Ni 3.6100385031466793 8.094598788779367 4.817805784633423 0.7564231780360005 -0.12782779297996694 -0.02562232855379458
Ni 0.08018338971738288 4.359413123193232 11.173435521583912 -0.042035222694179225 2.0161994494870568 2.0679922657886323
Ni 8.985823516267093 6.591389260879708 11.764754938739426 2.8303600914438416 1.876793464751187 -0.7789977209024067
Ni 7.341513431366781 4.520751542087932 10.118391455780456 -1.0175392728898733 0.7135415481811259 -1.9369297679214512
Ni 5.402990917998556 1.4903283647736811 13.096023147809225 0.7993310331431202 1.1077155740656535 -0.07695980248550617
Ni 2.9408750339449354 2.743817297761246 7.613870449582587 0.09731831153720014 0.6549147396768528 -0.6137218103783108
Ni 2.0303933377322383 7.679468142949994 9.05490985798112 0.945325983950417 2.1499428366205104 -0.4991190007290501
Ni 6.824453179335796 7.450300036042783 4.744764407632009 0.11620409269810955 1.0155078442821415 -0.19417228184347204
Ni 3.9076933114155 6.092558815858906 9.737054430367577 -0.9839910046207828 -0.5563234749645 0.3145158506312519
Ni 2.4284508901942052 7.122977836263987 0.5804972043136827 -1.370512399056059 1.0022196118136677 -1.2416494799433584
Ni 9.243530062168928 8.816600937183217 1.501932516038032 0.1700591908453523 1.4642165108794396 -0.4667668096505897
Ni 7.30299949391684 5.435508451924337 12.399333595393019 -0.033875055480890044 -1.354866464988686 0.8348834763264332
Ni 6.1257056020063585 0.39722934549373756 8.433441856440233 1.4429776561053214 1.7589590355385059 -0.48004707169926364
Ni 1.5162572577901967 0.9223976974751404 4.08296318942382 0.3358449511263313 0.6430853511420924 0.24260800874735639
Ni 6.585346588809835 2.3951005224456248 1.5859987621114924 0.30816779692603696 -0.7263700674043619 -2.723582948486587
Ni 7.281567903543446 8.215026559556287 10.350761346050877 1.1170450789966955 1.1902708683610663 -0.9064889564785614
P 3.3300490256303656 2.6628288353484897 13.125481405492586 0.48532914603380933 -0.15737928138483864 -0.030396095793354106
P 5.568197387314706 2.254471904611226 7.545880672401915 -1.4900733240415436 1.7522034619822275 0.43011470564519466
P 7.362574873374486 7.3756226032650245 2.227308566795138 0.12349419860161957 0.7004320073823614 0.16973420340576575
P 4.440956808154522 7.915104592547621 12.75037397707425 1.4028566197147194 0.25416511745733644 0.760129166132678
P 0.6732341758534085 8.419635322400033 13.076601463061522 0.3955431383179123 -1.1468747607636185 0.6293605453568323
P 8.8216812235023 4.376967409436034 0.11158955317518157 0.42784673554662445 0.05098651835019606 -3.1133189932044187
P 2.1712625520043356 0.49003109299745895 10.545859146638243 -1.59434261297528 0.4927295522629386 -0.9318873419470081
P 1.9285285074946217 5.634426183645613 2.984281407418372 0.7666564257282346 -0.6939510276437081 -1.7797284068753738
Ni 6.820520352950351 7.700344510774855 7.320066109687845 1.1488352269240987 -0.79811901511289 0.211215610479004
Ni 7.675128153362291 2.720451682177127 7.200460993653669 0.3574751278015973 -1.462491557768533 0.7307429996610769
Ni 4.253208303367911 1.715739465769149 1.5442164145925164 0.4716277372873168 0.12998931940766 1.396121100763099
Ni 4.026261086654834 6.709670171135633 2.120542972195798 1.5597389068584815 -0.16725334596544097 1.786433072589059
Ni 5.543212372630697 2.2894139103322693 10.16285552820885 0.10092736904469714 -0.1539599712906445 -0.1352217714511929
Ni 5.516247064190253 0.2506006226515196 3.917540183313742 -0.6494328906266751 0.7535574264524312 0.1813563610257264
Ni 2.4958641612953167 6.892902865860838 6.625745506812048 0.9003782155951331 0.6400419363300783 3.9168167561307192
Ni 1.949321591937202 1.5439258481254505 1.6901640644418667 -0.7223239223594463 -1.4740016152906614 2.422175610212835
Ni 5.182354730920477 4.351168068347509 2.256278228635788 -0.05199799033384593 0.005122665938546016 0.7210339999034292
Ni 0.0660557519699474 0.038397340714749977 11.311540652935225 -0.25390492181741436 -0.003806775340599895 -0.37909656272611486
Ni 2.1177576057439884 8.184369021168095 2.8912362873642103 -0.40778878845448474 -0.6876579955461448 -0.8140541982859077
Ni 4.106685072809915 0.5506373356535499 11.454224519570115 1.2650071808326924 0.401796832537108 -1.4340243035667755
Ni 5.559202782028463 4.109183574278315 -0.013178207189443156 -0.8244712798541736 -0.3136373046810405 -0.6640802082262047
Ni 5.794321023914125 6.846958199969689 11.157562634292253 -0.6603212554044047 -1.7291761478491188 0.9102342824536066
Ni 3.2383077531943436 4.958664819825463 1.104315440131235 -0.5815773644352822 -1.2007949078208418 -1.8580984594448449
Ni 2.8855100921470007 3.42358551763998 2.6991996137610923 0.17921180387889782 -0.3328539868188074 2.42118239306163
Ni 3.7956494011214352 0.856112453518466 9.088078853030511 -1.106467046370533 1.777723717740519 -0.34064185829434235
Ni 3.256926215988501 4.76342081063365 4.90126221127441 -1.2094500123926781 2.168209753250498 -0.6936121562470506
Ni 0.5929203088371202 3.3983876676457 4.102141501621082 1.3176394623164276 0.29917562072975573 1.0279483840383394
Ni 0.8026787608185139 3.882828594950341 1.7013915897441287 0.23852921069229244 0.9352621719565118 -0.058238057706286796
Ni 7.783581624509171 3.356311052176001 3.1938029644457244 -0.25266847830715194 0.42942230756386046 1.1766861876980959
Ni 4.11165431461929 1.285812139021358 6.066890877440202 -0.3721805523325719 -3.0467202222382626 0.61957081295992
Ni 6.171511462260375 4.544302231854895 4.44789894075302 2.842083293418041 -0.6722316336887455 -0.22851939186477419
Ni 5.93414456905315 6.558501578588239 0.19667648336702967 -2.5163042111681437 0.523696432958098 1.7358594734065653
P 5.113784746176587 6.181727557153391 4.647235865498439 -2.3188213768942 2.34997414834792 0.6808322308735629
P 8.318834668713773 4.070392025554106 5.664410977379166 -0.3952263784084419 0.4430707515852304 -1.4680507970238652
P 2.92101657412572 5.040069699149619 7.893968195495864 0.04520822110552214 0.9995361514442332 -1.404035727624485
P 6.612571001106263 0.38182377051376076 6.055067413269181 0.6738241749868459 -0.7005667331880129 -0.7400203111979449
P 3.853901500171744 8.649932381822596 7.4714715971892804 0.5321617901166319 -1.0105273603484144 -0.6540346510647446
P 3.9920686313743112 8.772340446355953 2.3649945051223087 1.4538526511466123 2.3549325207944602 0.07398683590011129
P 8.774848201533496 7.677469341775273 8.829650517815583 -0.6849205420103237 2.7053733674570957 -1.7444274175812344
P 6.44872482703402 5.910871490560454 8.752519001373306 -0.6638218123584955 1.4880840615256565 -0.34946999810893364
