# total energy = -340897.4818034768 ev
CRYSTAL
PRIMVEC
9.02897427195779 0.00000000000000 0.00000000000000

0.00000000000000 9.02897427195779 0.00000000000000

0.00000000000000 0.00000000000000 13.21481650972358

PRIMCOORD
 96 1
Ni 6.193361828798672 1.998075932352733 11.246786739159974 0.6088544549836805 -0.39529065598747404 0.8880135233821933
Ni 4.683067212734638 0.1626777415587218 5.90182978691011 -0.5552842350667082 0.49765784280249137 -0.1814610049243907
Ni 2.8017449491389237 1.6095230453919769 4.798603775734295 0.9066511930880387 -0.9735281574162459 -0.4569922467623291
Ni 3.4584764355444997 4.353031109256539 4.746524651042432 0.5471353807073286 0.2869435974399381 0.2395345120283552
Ni 5.3278353079792025 4.536454725434625 2.754641692272595 -0.7764289317339661 0.13663073598357758 -0.30959090252580873
Ni 7.474446899192172 6.144415758244825 2.6687057191463444 -0.23233670872833534 -0.43102410483334147 -0.3221597403297548
Ni 5.104801580840089 4.297033409648541 11.727290702032995 0.3128320351709257 0.5212713684563732 -0.7754156599781032
Ni 5.467865672897043 7.974913924598774 12.391863852758071 0.09116823277540428 -0.8529591028812215 0.0810447711881572
Ni 1.835933608979557 6.393768945938165 0.3287702412586473 0.3067973989410716 0.43138097395212804 0.463508193503976
Ni 2.8220420837275695 1.7190354766311602 0.2740438212547774 -0.34629751391822294 -0.5436543641372638 1.107278743638551
Ni 0.6588903141992352 -0.1279965477560318 4.6848377946264685 -0.404907867362264 0.4300010628854659 0.1997574892407334
Ni 8.729718131601269 2.3671533214008074 1.471945852835228 0.27456939214530135 -0.4213549571746937 -0.38804503016865427
Ni 6.883608868404005 0.5611092294774128 4.818043157749132 0.2280815329964072 -0.16405129408837554 -1.1371469919528931
Ni 0.8008573941389909 7.377945220151493 2.5998299932644198 0.19153381577936043 -0.21198051366948656 -0.34796487431831685
Ni 7.427848361998221 3.9463751285011943 3.903735796608454 1.5354319546820008 -0.5760191536212144 0.06475220467572074
Ni 7.392770796216687 3.8114822500517427 12.682920067692532 1.1980073177733754 -0.25604150854444296 -0.8379376897717247
Ni 7.917634110617294 8.697213823541158 7.035119574349187 0.15901013212004225 0.22006817577362747 -0.3464170702152228
Ni 6.8994456896088465 0.7215866099599545 0.4409985880157418 -0.03148727197500384 -0.8170888713471735 -0.716544853783824
Ni 1.7846129181424297 6.487164657764211 9.134173751280432 -0.14493128542947298 -0.08590004239792948 -0.1448803775868795
Ni 0.0430311893843535 4.788317968028163 1.376666696936588 0.43936322082665624 0.6127476193904995 0.11451487792114472
Ni 6.352199547519071 1.6644914419114054 6.854155450814315 -0.0798324960476109 1.0843812702150875 0.9763391445024798
Ni 3.4568060752691885 4.205118449634122 0.45412220239501083 0.7241134101597013 0.5769835744170128 -0.31623848974931346
Ni 6.149192085734768 5.670800902885656 4.887209616608705 -1.4353281099798636 -0.1952925114908443 0.03199840728346747
Ni 5.202729837845628 2.871457660953396 9.096511190110673 0.42476681106972003 0.24923836957968046 0.1407547854542802
P 0.09493334617677836 5.529009887947892 12.346960054070477 1.0170165676171838 -0.40286435456967395 1.4170871614918046
P 4.005442679425981 6.039905378857113 12.537702556946765 -0.31968865308144295 0.3872179062816686 0.4988006981576829
P 2.380344653088535 8.447562679690602 1.382969824007911 -0.1351675211744898 -0.400679173992897 -0.1300610531858599
P 6.354194950874983 7.663206639276792 5.782341241788812 -0.14782069116212604 0.14596255490746476 0.7050548508663534
P 4.672656805180942 0.9553557877333648 12.499617439772225 0.23406397583208718 1.411913073490033 -0.4257839394803248
P 3.9176449317658424 6.218019958052049 8.366921297188364 0.08761111155176525 -0.37120764689634134 -0.17890532838207251
P 4.766738719066035 0.9300746592421691 3.507807140410392 0.44410999148302227 0.202074053189052 1.1057569076773859
P 0.4061034075183228 5.371066037699147 3.5674055950334935 -0.29455894789335074 0.7919861627422746 0.6751063841333792
Ni 1.5644323469330372 1.0446523451540526 2.6299334970153114 0.463802327705627 0.0197193328057983 -0.8141102483348237
Ni 1.8462446978141804 6.6812514927809055 4.826104226148039 0.8324797519809469 -1.7410682713010146 -0.8907239803348207
Ni 5.892191356672842 5.782308737480752 9.496762016383284 -0.08466951242493806 -0.6075406212682632 -0.40252522606270036
Ni 8.472464591254429 2.370376665283435 10.230330075453175 0.4167279999256436 0.6067554063628067 -0.13937770260109544
Ni 2.4896584468895733 5.18138534221949 6.889928247629357 -0.5323656785973219 0.16934288150461804 0.5372003809818038
Ni 0.49827749909977637 9.180209783365454 9.145208060969393 0.8680509642173374 0.2547073631140517 -0.8009533992378916
Ni 1.4133234303513758 1.3595378294863567 11.422358759146652 -0.23565266047544578 -0.4757355888081033 -0.6143612437345225
Ni 4.075986056890878 6.933918314101484 1.5710307214692392 0.05629250394414176 -0.8675377720263445 -0.8798597839268072
Ni 5.630676140380344 7.844228548248215 8.11118823614078 -0.47108446318933717 0.6552075883269232 -0.02240973515376786
Ni 5.338724251179339 2.7563562945227664 4.768884003398002 -0.3623237141431502 -0.2999204693155802 0.06281693532622085
Ni 0.8604260531463709 7.373214037533855 6.807044970768418 -0.5412138730165711 -0.16777965078255622 1.1547045412206824
Ni 5.095257954834663 4.661027486074992 7.206382967723008 -0.009179095396106772 -0.39602316327812437 0.006569682797717718
Ni 8.109075456116875 7.318787379482095 9.220955739313691 0.20004031058847485 -0.9527179055391141 -0.6435170393628723
Ni 4.557970771575525 0.3981714534542101 10.214683765609461 -0.1834222424158196 -0.7624763262086158 0.3288307245920272
Ni 8.231246509550576 6.973681917628351 4.871721313818064 0.6552487259775037 0.028713565884608612 -0.09334904247680698
Ni 7.205500836918155 6.029440797456651 7.126988486593854 0.004684292849546771 0.45130445234893246 -0.1223477437020022
Ni 2.5024976485733164 5.151941856501708 2.574550670568116 -0.9797533123903515 0.2637429909537587 0.25589058478887544
Ni 2.2272403331509616 5.140791073042198 11.480715729781348 -0.052436363422845175 -0.20666064411846988 -0.45868583241466815
Ni 1.0244635582589405 3.1654952432549246 3.676018740416347 -0.10009458873075665 1.2559224449226047 0.37067465721100673
Ni 3.725833398313356 2.727743474455409 2.7728784148892087 0.29874521806055643 -0.2596315398885464 -0.4905626265186067
Ni 1.1138774923476233 3.4361026368297916 8.065702971497888 -0.8548709751919534 0.25852108043318706 0.1896016317536541
Ni 3.4990345888239465 2.8344930395094834 7.143705632808657 0.8905735707998856 -0.27102512643746873 -0.33653374966323973
Ni 4.208305677618904 6.8181036586884245 6.264788239965869 -0.043495866400105734 -0.17063254685031903 -1.2021002568958266
Ni 0.7935592740820504 7.332132203735662 11.31673330141299 0.1874007674475934 0.4054390572753856 0.017849112366278935
P 0.11993096486989425 5.596068081270788 7.970133082621601 0.4965550966566158 0.15227821271284742 0.3883653896225505
P 8.521582212323038 1.7508716405811446 7.927489236241629 0.00781589649999299 -0.7416295646665937 -0.22314424359578988
P 1.6082680179418782 3.2818064922633474 10.303328431074055 -0.022393537203851756 0.24110134229484284 0.6701698660637103
P 4.114124445014739 6.197885345003704 3.6730454991262933 -0.34196931885651427 -0.42727106554881256 1.0148905224131166
P 6.8314123670441464 3.900652401829974 10.326070611946777 -0.3564384590069668 0.9087152747059187 0.2269278790079382
P 6.316914315324929 7.88690851052603 10.314970390744252 -0.33245700849070486 -0.11291282354134748 -0.2104728187757085
P 2.546053421373862 8.501808758253137 5.80664362944842 -0.283536371530602 0.7676884665371746 -0.5217899599640046
P 7.041877761733351 3.9163808753412828 1.6192779493997942 -0.5079085739962221 0.23700583206923054 0.03537169463107457
Ni 5.376718175711821 2.6684231122457107 0.5521479723247301 -0.4613911471609731 0.37573690222526257 -0.12927635250103542
Ni 1.3678173990672233 1.2238233143609414 6.732473767796407 0.25104328399890313 -0.6439582406653491 1.3437284460939953
Ni 6.922216763199845 0.7580049784489681 9.088411297121583 -0.8120024579632015 -0.07868655536862577 0.2720538248122992
Ni 2.641498710402587 1.752433653162922 9.134636034772843 -0.1471432054791272 -1.3280773698203 0.23722154762446246
Ni 6.589237214047413 1.9258260787146804 2.5890069615778497 -0.3535742500852943 -0.19671561709061605 0.6298251436980765
Ni 3.766093595435585 6.915408916456144 10.516999111696965 0.777090733687681 0.1156379357819944 0.013481836536518715
Ni 8.266333104306572 7.315157731748716 0.32647056146339454 -0.15334059253909074 -0.6117549164599271 0.31700185027789923
Ni 7.5168379342872305 3.802958898160425 8.172135619548378 0.35963356890549675 -0.31519642163804423 0.24336802684183245
Ni 2.934832032696147 8.55870935530725 12.374076773069621 0.3038825392871218 -0.8821580930426807 -0.20251551160184475
Ni 0.006546006484327469 4.932230791964294 10.180231907758085 -0.283224496717138 -0.6171547473192598 -0.45724164376897386
Ni 8.538854640467202 2.265730851278807 5.663103702157533 -0.17879554227708563 0.253140532847564 -0.15288653572080765
Ni 3.528703798903257 2.6341220382678343 11.4144827847242 0.2460694849333956 0.06801956257308285 -0.5324083589097992
Ni 1.1083156440795603 3.4316874683182936 12.838894698611302 -0.6930902223053095 -0.05396488425222964 -0.8939422301618023
Ni 2.9440596445954337 8.352514665538166 7.926564669256809 0.7987311947755922 0.44904291000826535 0.9123076200428675
Ni 5.640887910495895 7.76160440295431 3.475152951374228 -0.15060082501042452 0.6671935570442058 0.4521261769192794
Ni 3.1240432215038245 8.338357233583096 3.538835211146104 0.6606521563812622 0.07746810958049238 0.12021064275434136
Ni 3.356954646703427 4.300500535841619 9.43122971974432 0.17792239564351292 0.7095154577408683 -0.5746243301562168
Ni 7.343129494629332 6.265638769360108 11.497405789072767 -0.9802832167518923 -0.2206402462270136 -0.4456187148180648
Ni 0.7007016891338885 9.10716537997482 0.1762076597887421 -0.3326174453279691 0.142356068503129 0.254580093507568
Ni 4.553275704855731 0.244256331610026 1.3471049316533652 0.294317521306506 0.08424810861680329 0.8408736324715971
Ni 5.9873296605698885 5.640969171266044 0.36040415618070204 -0.10846507218263901 0.10925774328726345 0.5421551538839179
Ni 8.138509912860194 8.994872024601605 11.052740534528356 -0.6347192385655843 0.2225418341251006 1.60461596987683
Ni 0.11421110954876122 4.652756945468587 5.955284024412405 -0.1765085460151218 0.3990305826458805 -0.7638194705000717
Ni 7.784537998085609 8.68898842780706 2.5240561308941833 0.8121163578332464 0.24316928056746512 0.4024632624765133
P 8.650678489168437 1.4769054685067329 3.549156231852635 -1.3312637379680814 -0.4303702732994265 0.3333124145124647
P 1.9678830417546767 3.2059721357642212 1.6498301931814041 -1.1694991830313535 -0.41051775734987367 -0.19451398145360696
P 4.514640723136508 1.085761265875629 8.115192586314297 0.8408983150619452 -0.6498753774807324 -1.1470082010176892
P 8.420719538617629 1.6776827735991329 12.47073013888125 0.40091031616709666 0.4837713146283862 -0.27725696627979346
P 6.334737510911223 7.54214614970181 1.3423872924974187 -0.279559389160725 0.9005021427675072 -0.4378239013639944
P 1.8697742052599147 3.2223506954367314 5.826029740513936 -0.9895713269220376 0.7024919752351837 0.13802478811762683
P 6.7992511600135614 3.7673757098090674 6.088792761076963 -0.02298540515157977 0.6074370058108636 -0.7647684646769022
P 2.334585810519471 8.567052127709346 10.169726695972546 -0.5748318181813326 0.7253855920039055 0.229556831990353
