# total energy = -340889.80770900013 ev
CRYSTAL
PRIMVEC
9.10039054164988 0.00000000000000 0.00000000000000
0.00000000000000 9.10039054164988 0.00000000000000
0.00000000000000 0.00000000000000 13.31934143927894
PRIMCOORD
 96 1
Ni 6.633893556514049 1.7660127051990757 11.246545762268946 -1.0831319711890184 0.8229856964475826 1.2408424106610307
Ni 4.787251390336282 0.1935179866613623 5.965945815196253 -0.36987118747310493 0.553570594809711 0.2630583061819083
Ni 2.9253842706351123 1.5261719101546736 4.846628709077554 -0.07416629890076905 0.2726757746670142 0.32192731260397456
Ni 3.632038703417995 4.54377953943065 5.064492970790416 -0.22395439820191107 -0.07132343013533524 -0.9101170401494519
Ni 5.259115744874218 4.761215172744856 2.6823692593390884 -1.1178878866129651 -1.0420107756686763 -0.6096664093620145
Ni 7.352842617037587 6.0683224796626165 2.501346109012234 0.13020992005889834 0.37689595553037025 0.42463851302197186
Ni 5.192382580387002 4.206764773242854 11.912140142569916 -0.6043457684800495 -0.7373695038386592 -0.9676760695108431
Ni 5.666949750941943 8.07066322912305 12.356233745062413 -0.5433417179928514 -0.3430316986827576 -0.4215233644317579
Ni 1.5745859883044069 6.503284750197325 0.34698333408351295 0.6697605464404336 0.10754101770647286 1.580717823102994
Ni 2.603831068127091 1.4107880573613525 0.5055357998676375 0.05432252470196451 0.4412051591314014 -0.49850733528698016
Ni 0.52940703452827 -0.019737837236645944 4.97469395621329 -0.2182123535118113 -0.30770551257763784 -0.7849176859312677
Ni 8.91534328658582 2.3085415929762365 1.6366006002501507 -0.37340696854050526 0.005228081168158738 -0.8928091449986236
Ni 6.908388639076155 0.8699045202100321 4.7669393184509055 0.12222895873595079 0.2568418929585512 0.9867114888757393
Ni 0.8793125040429633 7.778567991083203 2.8779102628374216 -0.6938013894397214 -1.1977172973367824 -0.643898076851375
Ni 8.005167717761465 4.083399877867332 3.984654269262198 -1.6985990463932101 -0.5548414911023347 -0.3655435066320285
Ni 7.461028060842856 3.911229587545 12.895280823384672 1.0505818051671392 -0.6090930533570478 0.3355988965537962
Ni 7.856867752060703 8.950152280744229 6.836698491812968 0.7224272807065301 0.09647498970029836 -0.5431967077745548
Ni 6.937773800419293 0.47713075059531374 0.4575448898821829 -0.5902548376046222 1.257792151141492 -0.6568091284860882
Ni 1.925815564655714 6.521494631847252 9.312830148507635 0.026133720972574343 -0.003724757149754875 0.0643210306755731
Ni 0.2591545540777065 4.826082757152995 1.5426590878584088 -1.355298667430098 0.07961472360984999 -0.42802568432664995
Ni 6.700799628423229 2.2394605277065702 6.909408792865738 -1.4214611221897844 -0.9720844829911839 0.5148096719914295
Ni 3.4107900064299663 4.2400722029473705 0.41873900415923315 -0.19876067254510285 0.6707121117204256 0.17000288368612013
Ni 5.930806476857988 5.592781567310302 4.782988767365354 0.645677794459617 0.5097471698668576 0.657204564152294
Ni 5.348709090623113 2.870700023341551 9.656163315909595 -0.9574824168072928 -0.45855136371933286 -1.4353561350043216
P -0.04483216439790335 5.580031920038165 12.562216536769206 -0.7372841432137044 -0.3364931262332914 1.130912581007407
P 4.220870378718811 6.131160676960343 12.534192793864264 -0.9628850758801031 -0.25375296962058236 -0.899167997337116
P 2.261692782014803 8.499837651217302 1.2521009057959094 -0.004694320151875786 -0.21882967538083606 0.26607138197661917
P 6.302666638766711 7.718805725818297 5.652435537926714 -1.125427903743752 0.9281217042569887 -0.46082344758296123
P 4.762070609464043 1.0722626263290356 12.696808584064527 0.8243236985327158 -0.49364820742246596 0.5425793859055301
P 4.0723611040335665 6.106152803510068 8.223921087638844 0.41276644417473424 -0.05454518223573186 0.5882385785055418
P 4.760705550869596 1.4638797362947253 3.584408168901475 -0.3265851230909601 -2.3322001121939513 0.6384535087970359
P 0.3643996616705354 5.625825085686558 3.7105423131456 0.8800418180306262 1.0302227818948129 -0.6420075446968814
Ni 1.7905564587272393 1.1371029095652854 2.7578761104323504 -1.3272625872284884 -0.6197428197614101 -0.2818571840559662
Ni 2.0183847381405045 6.502502116603175 4.984963747038849 -0.5978236510908156 0.45333613806698053 -1.3003019994792444
Ni 6.319866377056747 5.775508310763026 8.996815443736818 -1.4232806918970262 -0.3116020194185666 0.4891171523213318
Ni 8.904404617048982 2.2295775034827714 10.178747787582816 -0.23441184608980922 0.6898403479094442 -0.04400571615698873
Ni 2.3133374988380617 5.348745492185632 7.042428292660256 -0.09141274468604256 -0.699301493322344 0.9240609039240537
Ni 0.38791871121380056 9.188391407037813 9.112214767194207 0.7100227363945901 0.18221048149590555 -0.38516153797327213
Ni 1.1832145888857173 0.6224803696539433 11.509442396973565 1.0116067094555221 1.3331067047140912 -0.09048740465829577
Ni 3.905059522698098 6.747812246415997 1.495842128264179 0.18210583759724122 1.3358197327698802 -0.743859482438377
Ni 5.879762385816287 7.837320112988216 7.842694803694088 -2.9613547121875645 1.4798416190112063 0.9482056194910573
Ni 5.3558255960954995 2.936696056187766 4.930607113807956 0.43569451372581736 0.4356968277186625 0.2853446283839344
Ni 0.9041083383915682 7.595277023411439 6.954894365310851 -0.3656638342599767 -0.15391446276468976 0.3457310998917917
Ni 5.1413930916890775 4.375176602235141 7.041470021526955 0.20146315907793041 0.7444742332042404 0.820770948184451
Ni 8.504114834813237 7.117424611839195 9.348899546768248 -0.9670746884814183 0.033732616365754815 0.7378616129837293
Ni 4.331503827603455 0.7374956566267635 10.52582303561169 1.0148301014888266 -1.4373811358541504 -0.1883819004139401
Ni 8.034643883010897 6.9971811504496415 4.695880738297416 1.2107142238170825 0.8482344437120423 -0.4753368107077878
Ni 7.4649139276417165 6.608448864313551 7.045492394185259 1.9228318950674883 -3.026938925846277 -0.43949614686009475
Ni 2.4115216133413457 5.347535140231889 2.689627730905297 -0.6794039830674686 -0.10092094128679394 0.17382071477031355
Ni 2.361442163706387 5.286426017153795 11.539877743395364 0.7773272751785194 -0.07678599591180324 -0.14114045092847305
Ni 1.1682990486437224 3.339288237252813 3.6511913855371545 -0.609123649484667 0.08473224734207342 2.0350968006121914
Ni 3.4566468748127677 2.966299626906015 2.8539616748564374 1.7536263104716832 0.6228553972484627 0.20446003692272527
Ni 0.9575795036141974 3.6625341124179496 8.484727362615832 1.4244474585116176 -0.49278148854679654 -0.8147041731650807
Ni 3.539296622511241 2.5588478372447354 7.154311225178351 -0.5490719356084092 1.0973758827025424 -0.841769147702673
Ni 4.124861257576013 6.757995583530573 6.113018138201075 0.9345330070999712 0.8419136437003372 -0.19160066446155388
Ni 0.7171972353273312 7.340111170546709 11.653864686227033 -0.7036296883840527 0.358970224289885 -1.5676327077842613
P 0.17773426915329887 5.74637796035752 7.961703342075198 1.37251400286712 -0.8585795343917924 0.8126814863080972
P 8.609715767679685 1.711155550483551 7.808970576098734 0.7947917505118699 0.4165462229321407 1.2970750079015145
P 1.923303856841931 3.231293901650767 10.491631957977035 -0.8394263585021092 1.392580691710008 -0.08321786758007604
P 4.094220242325984 6.346084602460767 3.7136191552174846 -0.44076807159398285 -0.024794433335860525 0.7086356262390763
P 6.969852677388805 3.893101609410739 10.457934121514507 0.8608415909530918 0.32194993831179386 0.003281498964749187
P 6.428070021643275 7.863165222376421 10.069222766276864 0.21312079792151684 -0.40643021754406133 0.42003006771568313
P 2.5644081759194512 8.573159498520385 5.7031019627572865 0.34105066369698683 -0.30809374915499194 0.6094506938067826
P 7.091898016123029 3.9178273707514957 1.9018687967528554 0.31247156650771346 0.3550207527238337 -1.5837841207331433
Ni 5.292687085906993 2.7299897834259164 0.7721927159804267 -0.08397968544676504 0.3229860928857921 -0.7151945104035167
Ni 1.5318232527356856 0.9929527219916435 6.91216530118746 0.040891338897723124 0.7492875954324838 1.1201738544336644
Ni 6.923440685177595 0.6576497392812852 8.854365209132794 -0.9100123962507876 0.5143180770669916 1.5081438083900092
Ni 2.501915793465651 1.6163931828570148 9.329838778594448 -0.05564484305781384 -0.6097988211748208 -1.1528088668598664
Ni 6.557159062724847 1.9398665677878921 2.5765599275272213 0.9263934087119724 0.16700883405480269 0.363606951730948
Ni 4.31476820923553 7.074470768067251 10.322609492773498 0.18309905474844596 -0.18045287537485052 -0.37327070007295715
Ni 7.794884991482163 7.263886298632768 0.40404642348766473 1.3794444114383664 -0.4463792471331732 -0.9778278132328643
Ni 7.770414041079037 3.987709270396571 8.321311648079224 -0.46010688113191084 -0.028318901549351228 -0.27057312650171467
Ni 3.0067053613016568 7.899703290754462 12.275011848653733 0.12604653270982807 1.1024489263500754 0.30774022247031513
Ni 0.04265990115460611 4.834218506375901 10.582350112007756 -0.5348969296596078 0.03432731252696024 -1.341824029982431
Ni 8.90497794165865 2.3333947597858087 5.692034067673507 0.4805327530864305 0.8010079066249108 -0.13105966965370333
Ni 3.4537620509831695 2.5517404321629797 11.902483718072794 -0.5107347305911075 0.8899243672516609 -0.6856525350803416
Ni 0.9566785649418622 3.4102075814296686 12.395218908480768 -0.4687676421307024 -0.726638233464084 1.6514442430842784
Ni 3.1958751813201727 8.270243896021885 7.9457066754264005 0.2736520225373545 0.6473816645246012 0.46783407457283943
Ni 5.687480232202431 8.442942009000735 3.543238001692942 -1.3795351713799597 -1.1354104688777606 0.9675685973987015
Ni 3.089600819547131 8.37253228669914 3.5037459465165166 1.4317743311903341 -0.39247992601155635 0.17555286697007186
Ni 3.4727181646647285 4.153290877903037 9.146831743110331 -0.615755810089204 0.6200035296219645 -0.032349105754666874
Ni 6.817594041764146 5.840594304546277 11.352101193182246 1.10750860026117 1.6549154894623304 0.6498622648546097
Ni 0.309687203166022 0.07676907527359393 0.25849113560080506 0.02457691800841574 -0.5557927992720106 1.1623836550324949
Ni 4.667189936759321 9.507542106419606 1.6068050112896166 -0.7183029741255114 -0.29402750086991297 -0.5961557764700894
Ni 5.850031409629223 5.603993248566031 0.3635697060451114 0.9763082912645443 0.5203694254673941 1.672399505179707
Ni 7.979823129857893 -0.07461137265530411 11.128510055646146 0.2695624258490132 -1.4565391968398398 0.3991380547580223
Ni 9.220970805491955 4.93721672752227 5.934672322797463 -0.13383414707504693 -0.4337119360781498 -0.15904124246829382
Ni 7.767993337171551 -0.23710794773831853 2.5803957421776187 1.3772420044704088 -0.7257530026456532 -0.12031760064585084
P 8.634932950114441 1.4375978081562988 3.682451227349999 1.1330931335984937 0.7151122351023554 -0.8158480569615368
P 1.8342019321870366 3.3661980923446855 1.659204150496073 -0.2991185422395752 -0.8226889911427703 -2.6149494690468837
P 4.69913230786939 1.2622787826761088 8.178955147498685 1.6026537039441369 -1.88251802593979 0.9490977922880234
P 8.36113859763082 1.7215754977544993 12.52851870030668 1.154875776691224 0.12937893951717072 0.12143628763132636
P 6.027698335891862 7.701760694168964 1.539156347505057 0.4572951227147285 -0.6084536200008359 -0.7128473503275788
P 2.0117505533714906 3.3909420544667013 5.871632096827758 -1.5906062858612993 -0.3164904578591194 -0.08437023601696438
P 7.082870428618417 4.148613277119397 6.092346600885827 0.20635982504859943 0.46619756741068097 -0.7471489518229262
P 2.382291158638913 8.584835299698224 10.132648848809266 0.06807946927674081 -0.652891795709553 -0.19407329437176254
