# total energy = -340872.85838834237 ev
CRYSTAL
PRIMVEC
9.21209367739336 0.00000000000000 0.00000000000000

0.00000000000000 9.21209367739336 0.00000000000000

0.00000000000000 0.00000000000000 13.48283026956392

PRIMCOORD
 96 1
Ni 3.5530768606903043 0.17726647449913116 2.7300435468672886 -1.8076336179260737 -1.1056502068961924 1.0709318295784007
Ni 3.4593898688982487 4.334151851847118 6.439129976101938 0.3411041426427416 -0.6717827190767849 1.7905095566512779
Ni 7.30065786540199 3.3558735732475777 3.928748800845423 -0.8251695914727789 1.2339302569222297 -0.41230493115728345
Ni 8.960041495539134 6.764514018568399 3.5044710912908528 -0.48096649818973936 -2.029966935584794 -1.4125784749881736
Ni 1.22096167208724 5.087258926870137 6.247349848154588 -1.4872021731413354 1.0520272793644139 0.6996141394667564
Ni 1.015780711597127 8.244934306567462 11.326184315438312 0.9037178214913274 -0.17115602345395683 -0.47595644656965763
Ni 2.1368464408138608 2.6159490041492806 5.7985605999805205 -1.0054234634629458 -2.286979292682939 1.1879216514025994
Ni 6.753874050474022 0.9852518334458122 7.797916543990406 -0.7838784460334758 -0.16839877242379384 -1.8725969101713362
Ni 7.628322822240891 1.3170806565865818 2.610006282575529 -0.06728988349590992 1.1680639932467238 -0.9612051170745187
Ni 7.547486701004383 3.7299582696774483 8.797493182965878 -0.5134382455651996 -0.14429699427958376 1.089461512951472
Ni 2.7484465462284478 4.415467001950213 12.57068933510893 1.416352083097993 -0.507524451183926 0.7268367226281354
Ni 3.5202265349547615 0.08636153497071397 0.34077837206171185 0.6570058178779266 -0.3041478771333665 -0.24129674613510055
Ni 7.086329295978789 3.7470006428156295 1.2343219714182154 1.1123263333647875 1.0347268404127534 -0.36828738792575283
Ni 3.736379098908428 5.721520782511711 3.5813229820504615 1.3170013145117965 0.5046687269026857 0.5293652012081013
Ni 5.2200420438505395 4.795023681971478 8.349620538103835 -0.034991942694152636 -1.2491668713663262 -0.45851433983381035
Ni 1.336978778737107 8.390835444817471 1.2611439031096359 2.0613475067786045 -0.9074166104991533 0.43175866900652093
Ni 5.206804265364288 5.760552423044941 5.930692421944236 1.0116064523452062 -0.49905240915717286 0.13799650598285265
Ni 4.1329136674127565 4.986386502079282 1.2830014375663725 -0.6139938330927748 -0.10986092408890114 -0.45408998551386953
Ni 1.347839837077602 7.421262594658784 9.208355320627945 -0.4852640971238288 -0.4908971270398901 -0.15058616972240518
Ni 5.654115893726808 8.944473057375063 1.8818925386666705 1.6811140022345692 0.1427425053082703 -0.3035128146525289
Ni 4.532948831480604 7.798193828007411 6.603540052789369 -0.11777786494313265 1.1811398525940755 1.1115765996829565
Ni 4.989472553431331 2.061694181321276 6.208788945603717 0.5609411762421693 -0.7614386289727209 0.1514048089689586
Ni 0.1497904841629478 2.214522813949614 4.396521410276708 0.8741192818986042 -1.0152743881150965 -0.467705262304459
Ni 9.044129485812277 8.64696849494395 5.397702795955246 0.21007378356507692 0.1063678233339781 -0.021794213056956013
P 5.12385857469608 5.570258205793368 12.598032671297444 -1.5975390084253906 -0.7757586451398188 -1.3223180987390195
P 6.215749603518965 3.9340706273113297 6.487573612654237 0.050426532081667995 -0.44268354344914085 -0.033075185287414
P 2.948781945491165 6.358094873643925 5.604906732197329 0.19143662807986386 1.0022939166950287 -0.3798936047061135
P 7.702793386807949 6.309141808316199 1.3127058333415427 1.2167905119181495 -0.7864991714857745 1.903789276613741
P 1.8677980354767152 7.119759983610389 13.085248325455996 -0.398989702105616 0.19542826573776023 0.2596122566148368
P 8.645955164649248 1.882638718247315 0.4203570425234297 -1.0566915176093026 0.35929289773662637 0.4474575677990165
P 3.447635237479698 2.095815775971991 12.887199367821871 -0.12596888539435724 -0.5140864206721598 -0.3540139087258742
P 5.57923999704187 0.03121886396107144 5.078402420094436 0.3196714266902624 0.6889155221023296 0.7152703579467746
Ni 8.782846875369989 7.562207626558336 13.02224313256882 0.010066125986750406 -1.1125896143285032 0.025149245572117975
Ni 4.778377428857589 0.3242279247211409 8.996593240478417 -0.3776325765860787 -1.1219008644271 0.5653585885835748
Ni 1.2827748200641027 3.130453643144176 10.282087470569756 -0.1997592890129463 -0.16991392351673962 0.3730534418558285
Ni 0.5616862187256103 5.114406966674581 9.460443340459843 -0.3840863026312224 0.26973031888544513 -1.9411625750558763
Ni 7.680030303551492 5.493410921080554 7.43820731960493 -0.4982083159893226 1.864098385782022 1.4316452618116375
Ni 3.1358150816125114 6.280510621444054 7.882588580997043 -0.16649229942970037 -0.1355488157733085 0.4912627379094248
Ni 3.4534941290017973 0.29436876577368865 11.225696956159442 -1.0081678589773024 0.42383170084996047 -0.22882123937590915
Ni 5.887568769439126 1.9013208440441969 0.6824576868763503 -0.4772700231747587 -0.9715880029707397 -0.029483868391729867
Ni 5.2063989332464065 7.371176441819707 4.277562882144126 -0.10908727914767018 0.7518820956325373 -0.97887476644014
Ni 4.734315985225201 3.6582605452804406 4.6045212714048125 0.6524583077165602 0.9526006632349595 -0.9758974289793709
Ni 7.180440044075902 1.431725161291806 5.3826557622882705 0.24651994220725285 -0.2159407838688152 -0.5158738515898857
Ni 3.6547691618105103 2.195638022093792 1.674716238705352 0.011805477275360314 1.9813957115443104 -0.5434347919272898
Ni 7.80564641172027 1.5933237070161164 9.582989057835672 1.4577077632266444 -0.24963971878315716 2.259347389898283
Ni 7.51355856031902 6.14609696389854 5.231581112279126 0.2104892738359407 -0.5127821000384395 -1.184869751950153
Ni 3.480651380899828 5.577185700171699 10.465669756432963 -0.32420865243898356 0.2817823649539728 -0.6551304552320846
Ni 1.834883225086055 6.001024914071471 2.453645733265472 -0.7849444254041449 -0.7784613887829626 -1.3475838152843436
Ni 8.40366789118584 8.390264295015001 1.6337417676343702 -2.8252042582745154 -0.14268208438398008 -1.6550486726060851
Ni 5.517822969089299 7.028735286865325 8.639487353740968 0.18887992309628118 1.209463125018801 1.0099588894394542
Ni 0.21153362022853997 5.44999432399934 0.5253610912885962 1.7761584301359281 -0.37046176986925233 0.0483087144077168
Ni 5.85709516384934 6.747471645430219 0.5831374998551069 -1.3220064810358716 2.2368502372370314 0.9535465720879965
Ni 3.6065530639698404 3.0561857446360587 10.766983519562801 -0.5574215931246852 -0.6896716835420639 -0.9205428634684663
Ni 7.458157029479549 5.357477268092985 12.746438577794084 -1.295434644084614 -0.30447749255864337 -0.7295451226982339
Ni 1.6410055034286706 8.66366080852578 7.227228267410401 1.1135666335297918 0.13387579894625976 -1.220042443196544
Ni 5.6562530994392715 0.9437882002052967 11.659371922383343 0.054466249368680386 0.44293216912483724 -0.12390711776932208
P 6.704064260442592 0.01808610334172491 13.397605546379376 0.19338758115864757 -1.12184044350281 -0.28313527943744143
P 4.251123252336616 7.363336950176145 2.1438780318497384 -0.7275828567655405 -1.2515546548722123 0.26670850133998586
P 5.396554969094155 3.7320770512027357 2.52379674714902 -0.7186858113862268 -2.1931206575595645 -0.016929428765486972
P 5.643595682849076 2.764963830032101 10.035837154444703 1.6585883103282273 0.15035991264421203 0.26552862209927175
P 2.4805957130577694 2.1408997619926713 3.6777247778229616 0.4004081797196975 -1.683432623065417 -0.5422487420389888
P 8.960234949504484 1.2563453235595394 6.608987163728076 0.39987339026215 1.1760655233949617 1.0329013571682406
P 3.207899713940224 1.2808863408785203 7.037133952589692 -1.542400929800666 -2.3732675716582228 0.6455682654649463
P 0.6765610257705396 1.1816905171207177 10.920094963464296 -0.8455196158840407 -0.11308020235714719 -1.3941994582603539
Ni 7.517906668492654 2.51925886984747 11.783454216969684 0.4046695260992127 0.943614400575949 0.9052108610970862
Ni 3.272844973737077 9.062231249713102 5.21820607359841 -0.07338545487068651 1.6642257111196626 -0.21249113475731793
Ni 4.131015976133586 2.5332336158207784 8.480686520839395 0.3023900139019953 0.980486333901634 -0.15943102170754478
Ni 8.436628762044442 3.7189221815587774 6.271686356995911 -0.4846408617175331 -1.3133737450615381 -1.4561890125892727
Ni 8.825609413806442 8.965918811248407 8.287099901339399 -0.7061444843861064 -0.2747090030469591 0.6734233400040015
Ni 7.997617230004894 9.109995954967951 11.5577385786621 0.5304859450761058 1.8868253950658924 -0.8809553309838313
Ni 1.24822946910833 1.5150761840778944 1.7043644407096343 0.2661641988007416 -0.2716277930184741 1.0130894646486357
Ni 2.3020929755991006 4.1623094580527225 4.273733414839509 -1.587876545634962 0.9592734472694446 -1.5513203437774832
Ni 6.211742342808096 5.544786767021979 3.0078443623225883 1.1883834215303664 1.7859579327248531 -0.13822841948800066
Ni 0.09745197444155522 3.5027235571371698 2.1219145583167376 -0.20923637526544608 0.7964226012470734 0.4161073356225092
Ni 0.6776241013706186 2.946313104409525 7.913274985948716 0.404513974357955 -0.5186231322002487 0.11972701824970348
Ni 7.327594027053905 8.333803373412886 3.6690690946874827 -1.617018200195925 0.6553106895636908 1.633690261534967
Ni 0.6560843841426752 3.1561369600680944 12.661145645679602 -0.48131231156493226 1.2603933362097648 0.019290215688179683
Ni 1.3896351056872926 0.8794122477921954 12.861959152599548 0.3818031630240005 -0.19946952568666937 0.8365703771105528
Ni 6.188555503246581 7.672457962621987 11.57836721983417 -0.40888099307739906 -0.33179057855129956 0.15100500242737863
Ni 1.6462195483995954 7.864520901842494 3.9293420596725035 1.4877693584987153 0.5352828522441169 0.26035170588402257
Ni 2.1921650628110383 1.083028994791031 9.16775854539408 -0.267114735639469 -0.619964448853913 -0.21119709853624272
Ni 8.207183147042993 6.672678657587573 10.552202636344418 -0.07536546141519278 0.8160151786670203 -0.45872799850651313
Ni 5.14629923467695 3.4120304957612815 12.431992054044901 1.1719039358181043 0.31388773012894977 0.3309120326010882
Ni 1.1921830917176843 5.7143629857936755 11.614325705946374 -1.452500507994092 0.383709636018094 -0.17215952501780674
Ni 5.277442598998651 1.6244513712506645 3.453236190381327 0.6828160940728111 -0.057661616377526495 0.27314525810426504
Ni 3.9088387029732337 7.409793538141468 12.287442329924282 -0.7286773753812998 -0.6504793296133184 -0.2989686469252722
Ni 5.8891900979106495 5.274817152326013 10.610097880918216 1.137214611966035 -0.662901357426755 -0.05721090199335308
Ni 7.046293537244446 7.921221337877902 6.7760392688566045 -0.8215330231614562 0.5445323958668429 0.052562861698380446
P 0.09299884840101641 0.12557925979442472 3.2276274123593676 1.6803393288520738 0.1431695655433599 1.6190192897863538
P 6.840707244636452 8.745298381904462 9.62842586704078 -0.21642517970440148 -0.6219732517538256 -0.34585888371890755
P 9.079826348466575 7.070051526608429 7.000015663894734 1.0293105544931886 -0.12982245481249252 0.17341165225735294
P 2.6168333651337483 4.153032879809399 8.582468179267408 -0.496683394704364 0.5952335217661361 0.527317317540137
P 3.379134109557798 7.739945760249184 9.813787929385226 0.7817230902533698 0.2684691927848344 -0.15495293133153315
P 8.148502110886122 4.533326527317721 10.89608179910792 0.9495649617324291 -0.6541076703945251 -0.9104625964143288
P 0.034821713763418825 4.496109669221368 4.157754077773355 -0.4941943097339231 1.1711755422925119 0.8586057596440374
P 1.917690734350439 4.062275333778393 1.0733535328953383 0.9888591313463615 0.5120441934311504 0.49933034540890786
