# total energy = -340889.29712003557 ev
CRYSTAL
PRIMVEC
9.07647467493105 0.00000000000000 0.00000000000000

0.00000000000000 9.07647467493105 0.00000000000000

0.00000000000000 0.00000000000000 13.28433815088296

PRIMCOORD
 96 1
Ni 6.279086882434481 2.132744587581985 11.48074995576851 0.4998803043751069 0.6393924756715376 -0.5412663235210614
Ni 4.79995737407775 0.43943478831537625 5.788172146244448 0.00815528211728273 -1.0545155930039065 0.43738501405436286
Ni 2.9607550471915363 1.7641852654270576 4.821603858031039 -1.1995034427029279 -0.37480847687372226 -0.718614334718343
Ni 3.6508484772945082 4.3969891372232865 4.7833047663754975 -0.7519479158734663 1.0245720113669385 0.19125690796888997
Ni 3.9810778477807105 3.203160450747455 2.6675213866275986 -0.4889657143451322 -1.0641153208771996 -0.31508997796716703
Ni 5.4016096369867705 5.115827761959187 2.5208355751396905 0.23138591477929182 -0.7280572252987978 -0.9516017896568
Ni 5.3585780715448035 4.867041596853868 11.19767377777916 -1.070740539503201 -1.0431410326183777 0.03797647924377331
Ni 5.9535863551449175 7.988413936190742 12.446853528489276 -1.4861017409883053 0.30270317426703996 0.7008559822936574
Ni 1.828219792782695 6.933854673916881 13.359792559674545 -0.4125774680923797 -0.18962785700589924 0.2197964101694795
Ni 2.600282863785563 1.705787228714631 0.08966830654171698 0.7759933868584443 -0.6830004421694754 0.6871872265573133
Ni 8.199160596810238 9.027207362317652 6.572413123037968 -0.7938540691889489 -0.5523732320675002 0.313498465110331
Ni 8.800821936193724 2.3597290610206505 1.410663846166931 0.4703175031163255 1.7451522115624007 -0.3396231872218409
Ni 6.941705824329726 0.825129586614132 4.607207547028878 -0.42533759597152554 -0.8025927346135274 -0.8156151150151243
Ni 0.9535108720470274 7.379663870249531 2.5059710329071847 -0.7193625257382772 0.5469088665188194 -1.1012631335720904
Ni 7.873896057856784 4.26970973579053 3.6562081354665144 -0.46920267278559197 -1.9464335936468284 -0.2707387055453015
Ni 7.921592931174129 3.811892363739735 12.560168773956528 -2.5390841851771366 0.5457027620258602 -0.5840422810360071
Ni 8.06802369372955 7.476691382288052 9.050207148613781 -0.43839005828010946 -0.09066738187958578 -0.9625220361137296
Ni 7.07399543966756 0.8612820920585316 0.09419746730011005 -0.5171051528938255 -0.5910359387450209 1.3120545120294824
Ni 2.3261370290230294 6.719604494153618 8.969730587763497 -0.5378889224083961 0.3470271929953959 1.363422582088813
Ni 0.08028686253395131 5.036562910450075 1.1867508516874652 0.06820236800785028 -0.785878250072324 -0.896980502767494
Ni 6.682472637114367 1.9680338054526085 6.8889252176641325 -1.4905034696004267 0.360867698422914 0.397747859278715
Ni 3.608769941671442 4.056884562518384 13.492503323427588 -0.891613839138942 1.9132571068948598 -0.5502872960727491
Ni 6.1757512206422875 5.748067743817675 4.6974213496859845 0.2140458808389475 0.024367887321403194 0.12858935373633984
Ni 5.258010734464651 3.0913655147532118 9.228403756504319 0.7101314940583124 -0.9565411359399463 -0.856357587039809
P 0.28069904932678147 5.637561667197563 12.022020064646899 -0.28470313814519355 0.24411287542765697 2.465056468736761
P 4.080592313822838 6.0835614694939935 12.69746224966731 -0.44441312454573784 0.8540798467492258 -0.22073306305113596
P 2.457636991082346 8.780009580243833 1.4260203333154786 -0.16618119594718478 -0.6119238379376236 -2.2431322135910015
P 6.581079340857836 7.846630328561768 5.481476258752958 -0.6209126716997951 -0.18158750319992598 1.0340287859044643
P 4.589038260443404 1.0443300755509974 12.68085683963228 1.120276955670432 0.6500458416203256 -0.6310168500133325
P 4.197760522700786 5.783983353278519 8.054453456755857 0.7217703638488214 2.2991781487419756 -0.6819511749693545
P 4.736912182438876 1.211772876494555 3.7453726976753843 0.5308638972408147 -0.5161237628171628 -1.3880712338754289
P 0.4816004580933138 5.502422038877495 3.4611410844865453 0.7379935105759032 0.8024847482807534 0.11100866454009914
Ni 0.7073196709914576 -0.07230228794645957 4.26858969884146 0.9627374945586451 1.3027113802516856 1.1722903726232456
Ni 1.953874505286089 6.715411162950456 4.786493331855304 -0.0039039630400965024 -0.8756984534602661 -0.41839047522973105
Ni 6.241501201671944 5.842354160567549 9.149109860276917 -1.1202754130085353 0.027521859569352602 -1.5397583499714966
Ni 8.351944891491662 2.429436384917361 10.11549208076378 1.4940724178986076 0.013633017402402327 0.1869315411206587
Ni 2.291346902395934 5.495124553407058 6.988677487337261 0.26688205080337263 -1.1813455408469784 -1.1483703714725384
Ni 0.5286084269987117 0.11297850826457286 9.272254927590541 -0.7464223580695467 0.6981180145372041 -0.5626152215104826
Ni 1.4707156165270119 1.186558430428792 11.317286281230725 0.08883778487001474 0.4208286523575785 -0.25678995667469323
Ni 4.149210460783663 7.289688778870873 1.3477620628246152 0.09208894481746076 -0.9122973356302224 -0.4909693750387222
Ni 5.766302381019302 7.862604923621431 7.723806568444231 0.9514909751105486 -0.01370526540123446 0.09042235574831524
Ni 5.444731967173394 2.8314697449018547 4.783410961126747 0.37895695182445704 1.2377869116641587 0.5285306211219477
Ni 0.8664003160097498 7.611803781184723 6.825824659531017 0.473933502602358 -0.5268257226156992 0.3637406490953349
Ni 5.2280402157788535 4.475546023724072 6.7033703119242345 0.15192879979322865 0.025065941829692313 0.44710686932781707
Ni 0.5993168860289912 7.320739398018092 10.754907015687419 1.3313521839168296 -0.06837540325060482 0.7643457753171868
Ni 4.799276638492821 0.6204668868290063 10.459463233591078 -0.26554173472539433 -1.2698441972100196 -0.18371406262462553
Ni 8.439305958224192 7.224692145221869 4.4490708553550204 -0.8767569766317674 -0.7916220945346366 0.8933578184132421
Ni 7.443344415101005 6.330559569129566 6.898702395958604 0.277504049293593 -0.16867130935889016 -0.19828553268089721
Ni 2.290484637321691 5.4921656227312345 1.9747830718653163 1.3114045371503091 -0.8316366872543614 1.2142903712041153
Ni 2.354882223655957 5.315809723862341 11.547185210620333 0.5489750050192288 -0.02173096391918838 -0.7905221766022386
Ni 1.4269125507554585 3.4552232231348974 3.7036336221973354 -0.8824162318000739 0.5283714698362643 0.3015788308546096
Ni 1.8043395884633922 1.4177271585961526 2.4989567334400786 0.08085630932643494 0.401096978256606 0.568882285466117
Ni 1.294913382600528 3.293035700906991 8.088036412279012 -0.45725038551972225 0.40281216117549984 -0.18090487531060456
Ni 3.6647354832270564 2.4955040425533195 6.936975165838194 0.3387310144248747 1.0441607321321436 0.1788580200839049
Ni 4.274011984687279 7.0418102612121265 5.623871620760922 -0.06915521883942284 -0.06763081177509643 0.4013422614981927
Ni 0.5152941466049505 0.35203196980030244 0.5973046316399417 0.7214646596829446 -0.8876666815657357 -0.7615599850419336
P 0.4017174986730869 5.912424543442889 8.177944337746624 -0.4428342100943922 0.39332993271667743 -2.196228092840295
P 8.722383043860992 1.6446753261369547 7.9386403655156395 -1.0665388427170277 0.6604081586912561 0.11297375868626994
P 1.827448292453109 3.0648894387367136 10.217024247079637 0.32386566727726807 0.8601800461096929 0.7599687292954137
P 3.897047847177097 6.274612180522882 3.46693278284312 -0.44806769057918966 -0.012604576137887968 1.0012230522283532
P 7.018374804141643 4.071570298203915 10.080859884792387 0.10840387992740039 -0.08795152561031949 0.5648569663568078
P 6.266915330175954 7.884524609456139 10.276059452299558 0.012722075552358736 0.7773642990640419 -1.3358109910191316
P 2.5398426203183497 8.766086268413423 5.67473709131425 -0.07064105935632996 -0.6845963259016855 0.681228180760401
P 7.1247873907777155 3.9125595420390087 1.4209992276410437 -0.36678714923114253 1.1552910098517715 -0.26054299595922226
Ni 5.40033893056157 2.874437775022562 0.3648561205729147 1.4578334901712313 -0.5084474772188277 0.17644401132577356
Ni 1.530066683058339 0.9144457259465792 7.249329327511613 0.7360387008423775 0.47648583671056643 -1.523635219157389
Ni 6.914857612860134 0.8615053733303882 9.052332858933651 -0.6282799106981438 -0.9723266809089771 0.03197732423754493
Ni 3.0809275691176365 1.6045663854729486 9.063890841518296 -0.5596324847330749 0.14858713701450538 0.5390793431720715
Ni 6.607773252261511 1.9947458698052154 2.339783508382236 -0.06354558596212927 0.43666793338268023 1.286270975307475
Ni 4.271624871902795 7.040984302035745 10.525765064268253 -0.4106475980595186 -0.12550917214911933 -0.08494796289730532
Ni 8.411731628797343 7.478279765319551 0.29898814537520235 -0.9873699483953445 -1.0604586979612187 -0.6829163670961013
Ni 7.75110043481009 3.9756138101523484 7.823783934684111 0.7055639292922881 0.07452779600524584 0.8538610458702005
Ni 3.0925636093826867 8.568164666213987 12.208412728979981 0.48796195567096606 -0.31589241926380435 -0.18919668300575157
Ni 0.14416436688133183 4.838886373061213 9.907884065014528 0.06040395500935404 -1.0249952149472863 1.345155408348509
Ni 8.557045984993483 2.1334797820137084 5.647251711337164 2.5203994642834395 1.9110338739912958 -0.9661254371942716
Ni 3.84869746769822 2.9420302803687606 11.348052806727168 -0.9554808129962319 -0.7543984342964879 0.11307788836430202
Ni 1.0130706974910664 3.4792668039945833 12.565788019298253 2.3334260141812524 -0.2891143798390117 -0.33704771318518084
Ni 3.5765484573181445 8.4481736737772 7.8964765110325965 -1.564608576245957 0.2021974661407937 -0.4090404014733987
Ni 5.662322289540041 7.897567503263375 3.426655019754052 -0.45515570777422265 0.029036496441666122 0.8140418569907335
Ni 3.0335756018299884 8.387733430309986 3.425618486370067 1.3247675887207766 0.6141064474112392 0.8193442430402534
Ni 3.4465188841222747 4.538282615231112 9.51335241117595 -0.5733544623048578 -0.5095682210868321 0.3044096154351854
Ni 7.349221374891513 6.29242022342462 11.271149653874037 1.3566387263977604 -0.6083875426495909 0.3717725182608759
Ni 7.979582526535599 -0.2151777954536595 2.476094001908382 0.5657360265276515 0.12834844137012735 -0.014881802207838888
Ni 4.858046810658342 0.5047282226794088 1.774362716245467 -0.6443109960190775 0.2690752017999495 -1.818798633403958
Ni 6.15827900729578 5.595446825676634 -0.055820317964163035 0.09699178143571682 -0.11143058256886618 2.3745628934308782
Ni 7.956446593122484 9.024675025941717 11.130455223180949 0.2126716261992402 0.32097831842714397 0.5710942055157714
Ni 0.11037900597759133 5.116118209142089 5.767807260485718 0.4408207792087892 -1.056811845237251 -0.32998772101460594
Ni 7.5244790203500544 6.215923696627552 2.3537059125652 -0.5341004019002414 1.0796139307334311 -0.22681037959346745
P 8.734409372528068 1.6304615671236407 3.449225488807951 0.01329748843985452 0.5483507411716686 0.2805137826541943
P 2.072558485399812 3.3551278627269645 1.4319717776226497 -1.172572936860671 -0.04282583691627463 0.47571836241692267
P 5.002880113707797 1.0203863359104346 7.936806917673565 0.30556121254112534 0.5431486281454387 1.0594883636281496
P 8.707052878488396 1.7015848210370037 12.300287526464317 -0.5853183195349532 0.2108479427269401 0.35684135087234026
P 6.407155937145756 7.942795575526046 1.4095610545193464 0.3326583258682335 -0.677719139165878 -1.6686197264223004
P 1.8676479978617724 3.450340079872342 5.929863173833872 0.391491593956358 0.5265138478022352 -0.209732083954942
P 7.091277047050286 3.9489925105443993 5.6897486724331 0.6487651751356892 0.48687463614405835 0.7259952005634465
P 2.4384584005362844 8.779628368316274 9.967145274448646 1.7031061902349443 -1.62241520284178 0.7236693806437472
