# total energy = -340897.22715091106 ev
CRYSTAL
PRIMVEC
9.03408496144159 0.00000000000000 0.00000000000000
0.00000000000000 9.03408496144159 0.00000000000000
0.00000000000000 0.00000000000000 13.22229652037777
PRIMCOORD
 96 1
Ni 6.489806410131337 1.869233436456563 11.398134857297846 -0.39250615126380145 0.4534724065345287 -0.0722215164695724
Ni 4.7942442184366785 0.3298723764817491 6.001798704390025 -1.3012553645314493 -0.8388159786116198 -0.11969616501176805
Ni 2.7808448579315055 1.561686090148327 4.916591924464871 -0.1443900682140223 -0.8346389644157948 0.2959152048109291
Ni 3.2753074172091443 4.337155667668195 4.907958049692766 0.4953610763485147 -0.059585315762800614 0.32734411274417174
Ni 4.976588184535008 4.5154433297248 2.793488059504762 0.6994812134333178 -0.33286504256240096 -0.7747176054698143
Ni 7.2252170431212495 6.074500501218024 2.667651389955602 -0.14702724872655323 -1.0350919370616563 -1.1488144009884926
Ni 5.001178963157662 4.73301119216763 11.306372045107636 -0.04050593053384637 -0.3121933731456623 0.3700964161100335
Ni 5.778056045037356 7.736772090699426 12.287797066523854 -0.6109866708353348 0.9009631415643258 -0.31134748020559927
Ni 1.8273152833305102 6.573796295823774 0.4733887498385997 0.7382925298735608 0.426712107721549 -0.04658761795155202
Ni 2.9403506578439167 1.7415818192860617 0.6249689472213803 -0.7524945324055556 -0.49150724982006316 -0.7075840450461104
Ni 0.47189631904195667 9.086934121086244 4.852357775250032 -0.475517045039394 0.5015155259856847 -0.5463085139306592
Ni 8.481469762787095 2.2118239974147897 1.4892408613265318 0.5697819144622509 1.6306995543377594 -0.855811741838668
Ni 6.895111587253584 0.591464237200132 4.8985165277462075 0.3989688761700097 0.23668752949786337 -0.8810517473523795
Ni 0.981625578097121 7.470122045943268 2.6900893461881834 0.08660246778159278 0.005458966232042212 -0.10501362329892883
Ni 7.4002795369308725 3.7919847908266466 3.9463393556286106 0.7194170331252965 0.48801851994051426 -0.985336977125716
Ni 7.570626238513815 3.8399919170576475 12.644627151826322 0.7610231387018571 -0.48914723422831896 0.08102163125970563
Ni 7.868272227962966 8.78561125915384 7.158287123024337 -0.26948143609943265 -0.0673418197797679 -0.8571165766930207
Ni 6.864955812440058 0.6871198364985338 0.33379136243564606 -0.048465037479922986 -0.8606826967777242 0.19141580214425744
Ni 1.809445863743585 6.622706830527319 9.144368314728244 0.1855781124165578 -0.6180199235330325 -0.09858895071950761
Ni 9.188296551705708 4.87350927781771 1.3242522753942496 -0.3042612627827792 -0.9758400933788742 0.43491572657826394
Ni 6.295934951923342 2.0204369125062924 6.886806553165485 0.8685047639253042 0.012869656873816545 0.9990931503695438
Ni 3.568418296126123 4.302826145711513 0.5765896166996911 0.2931070459381726 0.467541225922769 -0.6534173291957198
Ni 5.822892207529726 5.639635798874128 4.808935447017192 0.9155065865961394 0.4008498952428064 0.435785787888043
Ni 5.182520145851468 2.8144064826865236 9.416839923681477 0.6657264855803761 -0.48662523913741357 -0.324937303074892
P 0.4318924884692252 5.426332024421708 12.459660590932197 -0.8064627590918949 -0.42224790130260825 -1.0154985883107608
P 3.9383550315482645 6.165338223132347 12.640700035196172 0.20076150502521553 0.20862522404400843 -0.4007069419070389
P 2.4545246835638 8.664843614544125 1.352918329636551 -0.31604719967411377 -0.16555436099646326 0.36270655140386565
P 6.327915611851408 7.661274244648904 5.7792413169533345 0.11527412468467245 -0.09798319881470867 -0.2465078580223948
P 4.773899459634982 0.8762944740577703 12.567092119670214 0.16664296607495171 -0.06998825626367945 -1.0684237184445664
P 3.8888392131681147 6.013150031847544 8.181666433905509 0.21007429778570919 1.4057961619590176 0.791790758902017
P 4.8140830684937495 0.9932163087998636 3.8794744809417208 -0.0118278458728635 -0.24256558554519514 -0.7514606918244026
P 0.13770293983602844 5.551309552513477 3.4074914346864 0.9940635583654366 0.12032299996248955 1.2988143591901244
Ni 1.4015569383898605 1.2496126673926446 2.686942774478312 0.3068105115671942 -0.22363069631390517 -0.0058780560473318125
Ni 1.9523560500153585 6.4340570732906315 4.826812093871898 -0.8459358774858527 0.504627332141789 -1.4045386354028326
Ni 6.057977160255189 5.640909604820416 9.086402013495915 -0.7861286755202332 0.22399373608027873 0.00757909789883856
Ni 8.68283047723248 2.220894218479134 10.239623707093507 0.0848677444786732 0.981694238166806 -0.45723033091506415
Ni 2.1484408589810857 5.2668533267634725 7.040952430610291 0.9183507409131538 -0.10887464891623186 0.29142734424290456
Ni 0.5320777778489638 0.11494337018722137 9.018306696469422 0.09072703147292761 -0.37394432910121406 0.5202418987505943
Ni 1.537836106473159 1.0640525671320575 11.401876775191123 -0.1773590669408752 -0.12179161408821607 0.49377187748452384
Ni 4.179303105260539 6.836633956825795 1.5128550553903657 0.13698734799204793 0.4609262917094126 0.280843140969155
Ni 5.5735243668533405 7.800236535895659 7.824161502474048 -0.6024459803541754 -0.01395157708408565 0.9342702403568878
Ni 5.247339703756516 2.9286515181244686 4.844490894271117 -0.48336353766700624 -0.251498883479083 -0.04704527431426092
Ni 0.8119455919669167 7.45352643230263 6.8936823950500195 -0.7700911624413964 -0.5943526618230796 0.17289331786003773
Ni 4.909618514465303 4.625261663647278 6.923789385806028 0.09652409777067893 -0.796113811757403 0.19084116058771006
Ni 8.21080858441284 7.1674531053867705 9.068009520403388 -0.08946461982073625 -0.25903170152101845 0.17819878923335117
Ni 4.521107700847652 0.26665546520699335 10.345706446982016 -0.09097951380336589 0.2740220042822636 -0.005480049277964756
Ni 8.20807125674103 7.087103955838686 4.709662600194724 -0.040815748464781317 0.3417816283257404 -0.02644122491066414
Ni 7.32089703444841 6.000574585909728 6.845896603894792 -0.10793388226951733 -0.28230275623381706 0.7345950264173156
Ni 2.5100210660321927 5.177433956151043 2.635785462903549 -1.2951569649431953 0.6954157851146927 0.008933812154520097
Ni 2.3873472295454103 5.246228511335287 11.293334957440353 -0.2913725797455691 -0.1171255760711144 1.0904999815183154
Ni 1.0495347929782717 3.4542184311118063 3.905548656276293 -0.34459235830165813 0.04275127492459734 -1.0752721088249675
Ni 3.5510999557074503 2.6571592039554734 3.0383117555642514 -0.03283478714183377 0.06604058446984111 -1.4461465407516063
Ni 1.2058154246436998 3.3523862280866195 8.14847791684965 -1.4768210870173277 0.006328770431505229 1.171163200997338
Ni 3.413004936594338 2.7107493945467978 7.238135784278633 0.8820812170581582 0.5575082393012205 -0.6752724773975983
Ni 3.8772575165500975 6.753285491148865 6.064578365964071 1.0652692319759847 0.9697810316689879 0.07282084061646814
Ni 0.8169296965099432 7.263015653612501 11.348551283282255 0.22635015212759726 0.33482036651655883 -0.261992069700923
P 0.13203766530470348 5.45213337039757 7.988409293458845 0.13527782150010895 0.5841214710133746 -0.4295063826372345
P 8.432848318794765 1.671874821544548 7.98013136162492 -0.25070544104351017 0.5494277762859312 0.0019239564955902348
P 1.7990385981398755 3.231121708817006 10.549528046106612 0.08865960742093763 -0.6560611945764702 -1.0389822732549978
P 4.056078189605505 6.193660078746609 3.771818906902514 -0.709224665973327 1.053183247345728 0.03466361282045643
P 6.849381050373395 3.995811810402078 10.415057501785345 0.635114417121474 -0.9824596555779208 0.009533393411731969
P 6.326099760821594 7.711043017401367 10.070259010520221 -0.1266448284154593 -0.10460224679312308 0.4835275740486963
P 2.319157958037771 8.448621830725386 5.707906377144296 0.9928134880084192 0.6787115849861343 -0.10006862058882766
P 6.665519358041191 3.9127343672669097 1.53361447868096 1.1700427142396495 0.5672349796706811 -0.022695898935618974
Ni 5.2812084873922 2.674838907763164 0.36170216719490034 0.2510363420203676 0.9153122111971463 0.10910964774517337
Ni 1.3839766095141495 1.1822816339339224 6.929659734060621 -0.4223504883187436 -0.2682719891723638 0.023058167371044158
Ni 6.688836330717558 0.6996537256466127 9.18526471287185 0.23854078065651818 0.1336387432347892 -0.3266080059090956
Ni 2.606116625256724 1.6267676365104142 9.207491271521855 0.5935358223487391 -0.608241761100346 0.5070277140531655
Ni 6.372318138276958 1.9664311540175978 2.5483201648172336 -0.4992678676020886 -0.33382560670345734 0.8692269868033095
Ni 4.113679513814925 6.867810583213297 10.419010817261201 0.1460882818520516 0.006070888784428254 -0.7161486467866699
Ni 8.219219317292227 7.039909897232975 0.027316361984320203 -0.14484412503230537 0.8406962263534683 0.8710344723256935
Ni 7.516936672990511 3.77663588087812 8.286466333763002 0.6267056242324883 -0.33111617819209427 -0.35068715834548636
Ni 3.111510427052148 8.339472019072591 12.378370089755721 0.36929783146813816 0.003179426169246137 0.2642227588036546
Ni 0.19442073055930095 4.892435685317511 10.064732860893669 -0.28022016267317545 -0.8176475720641209 0.7863613603563295
Ni 8.58788224676808 2.534855764942434 5.752108346888941 -0.1845221603482177 -0.5160731120848855 0.8832796082416337
Ni 3.749461354023989 2.717055185685157 11.57756171743833 -0.548277721841888 -0.6024866037841237 -0.1996721286157787
Ni 1.228301261525326 3.227209950130889 12.673002308540465 -0.7772249452727003 0.3317023897128675 0.4566927132440393
Ni 2.9451477568331264 8.417598783778217 7.853343402954172 1.1306996936656526 0.24980838315053752 0.3520038202743809
Ni 5.799087394278186 7.8206806696293345 3.396543027407637 -0.8668201771340296 0.7675467987529878 0.6870429876699652
Ni 3.2520898194647576 8.348153774493742 3.464122498196309 -0.0880253162710484 0.07562051484879234 0.6614805658198285
Ni 3.4038082383438373 4.234844658152559 9.34181636707904 -0.46695655706389255 0.5308178744942278 -0.5984862243754789
Ni 7.307409145953325 5.939495139081012 11.294697297416947 0.36579213230772484 0.6618788296995117 -0.353987683473629
Ni 0.37335975012461126 0.11264238880765119 0.5969208243742993 1.37506890807849 -0.6860718820059475 -0.8192750803652148
Ni 4.671480041102641 0.408437294296559 1.5228115201662757 0.09726920346681958 -1.1861817858933572 0.7608066518156767
Ni 6.074771523759787 5.695258658528676 0.23505965728823106 -0.3672311787470966 -0.8438121462746306 1.0533598821329084
Ni 8.100692125694422 8.83177543210085 11.225808787751559 -0.5158769369136793 -0.1853739668255517 -0.13514746656983176
Ni 9.267254452206076 4.980816136186515 5.703265567820836 -1.0047508628759536 -0.28283240348504196 -0.4225201811273885
Ni 8.117802682164411 8.890515050985675 2.5358251222334736 -1.0880036974590228 -0.09548305810067427 0.720741665473991
P 8.400985101968129 1.770626401678359 3.667428251083082 0.3536560111658232 -0.726222228972588 0.08272550132468978
P 1.9057401728320758 3.3687108191854938 1.6580228594350273 -0.805423004973471 -1.1273667726376777 0.011534997222793037
P 4.670377882766138 1.1327567814690471 8.043201920727125 -0.20875660741555013 -0.9977952574937267 1.3958948436849057
P 8.574367256018819 1.5620113171984429 12.44068630278335 -0.23212459271752925 0.7470057413768425 -0.11628045446199974
P 6.489408910403417 7.700057570375228 1.3109522958614535 -0.05092404054337682 0.25872445469324473 -0.18715702686790348
P 1.7057707074344082 3.251873001431347 6.007180308660972 -0.001796172668474326 -0.262947748745973 -0.4700850753905453
P 6.788075751426542 3.946476673716437 6.041333665965507 0.7466666128698689 0.9398827014476587 0.0787120092899225
P 2.34772373393962 8.478795673708364 10.097867173441173 0.4880953959250368 0.5443974129508753 0.8228100901016668
