# total energy = -340893.68470656365 ev
CRYSTAL
PRIMVEC
9.05849498839526 0.00000000000000 0.00000000000000

0.00000000000000 9.05849498839526 0.00000000000000

0.00000000000000 0.00000000000000 13.25802306222652

PRIMCOORD
 96 1
Ni 6.119239930047385 2.061740669551201 11.47985716168143 0.5142496857229014 0.011611101876367099 -0.6022446629766467
Ni 4.913816923154471 0.34343744382497393 6.011174800565151 -0.5438685370305988 -1.0816065356834277 0.7292116506182151
Ni 3.0230281739020812 1.6430660826345653 4.971878253609498 -0.638793665745274 -1.0827421919497675 0.4498026709924253
Ni 3.342367303103755 4.138862663851627 4.7411085606478425 0.05215585606794889 -0.010621741379904287 0.39012736661897973
Ni 5.40476924280024 4.398352315657463 2.7708206463400042 -0.5503423176804005 -0.503297557586772 -0.8397904267097474
Ni 7.366449775025208 6.239346517120399 2.4877091567552783 -0.0787415769762773 -0.6917185387687637 0.31383039452845307
Ni 5.144953485169332 4.504427293757244 11.394077741944805 -0.8181088279712556 0.3412545521776768 1.125698126686003
Ni 5.431836026281209 7.9272883846829165 12.507897622575017 0.6559562935674896 -0.6032900735220255 0.20906771089806575
Ni 2.1061454127318266 6.4761627555885966 0.49220058027618324 -0.21578806034103484 0.15430938421026327 -1.3835520058488366
Ni 2.717168085470047 1.6402851246263133 0.3852731977836444 -0.338259731215411 -0.22249863959199098 0.5565646444410286
Ni 0.9328981805793419 -0.07398616491270497 4.654255709237022 -0.33169776172717713 0.42259602867064633 0.4079206860466587
Ni 8.56490679915478 2.3879823720502302 1.4884520641718577 0.4091761557203146 0.3653992677446804 -0.06215873291693166
Ni 6.958491387860242 0.5920786418500842 4.712140399036802 -0.4280706786319724 0.1413998752374468 -0.7229533284133292
Ni 0.5781901571000769 7.3694753124022645 2.269853254466471 0.6614332575216608 -0.004972256403610792 0.4098554411755264
Ni 7.585230549667901 3.6438974308584453 3.8440312932536225 1.142933002507051 0.5628463636846822 -0.34407479523529133
Ni 7.505108160146759 3.8058452069872146 12.47163646652605 0.6895241022206061 0.2733447757095809 0.17863587677076978
Ni 8.170056054458676 8.97076361544706 6.552380027854501 -0.1551511633852683 0.6772784520840337 1.719103594104465
Ni 6.715950180463005 0.7408544601944909 0.21443269697506634 0.037070936710368416 -0.7676023345812716 0.9315559267495183
Ni 1.7740609808669259 6.746096852291875 9.19246394307366 1.866184321776773 0.6040326081150049 0.5766966393042132
Ni 9.154243434525718 5.137516460658665 0.9646771932326001 -0.22750354900575012 -0.9310905570773256 2.0235728591329925
Ni 6.608887826392866 1.9797341130407549 7.069483317122496 -0.3661405167860791 -0.052362572762116276 0.2823855457556104
Ni 3.5732864612352344 4.283300368873063 0.7760421845692647 -0.2653645857175817 0.37308532353502843 -0.34687652635014454
Ni 6.080686974727772 5.374731272913061 4.810435035660076 0.2280115989904202 1.2254299327607026 0.5899002824786809
Ni 5.215990204064164 2.9693928241728917 8.982761592261166 1.3072419211321873 -0.3460630293099137 1.274050264871567
P 0.035012895418554686 5.75645625815002 12.255040600911338 0.9373092842935277 0.35006366582887455 -0.8520543316787648
P 4.084384874074336 6.106322515976481 12.661757068392491 -0.9658847819383752 -0.13817365499066525 -0.15690748395474266
P 2.3339846825154056 8.48704903341886 1.3059759263548107 0.03815799912696009 0.3707037106767293 0.23184871334832327
P 6.537660879100076 7.733635875561044 5.681036133456513 -1.3539575800211714 -1.181442728546475 1.996699431780916
P 4.593055610215679 1.000773484670005 12.629181814016347 -0.1201715619862898 0.7064396470290222 -0.11405619311717131
P 3.95364361370592 6.104248120589218 8.231429170737211 0.2699506624263674 1.0014763058897398 -0.04649428690679735
P 4.8423997474637215 0.8976053776609338 3.941955437425634 -0.5196276622053632 -0.4106907925926282 -2.072841366350817
P 0.14467413174461313 5.5884030562962925 3.640799425520262 0.21523527316135835 -0.42438551647090134 -0.4425529314085475
Ni 1.5497545241882933 1.0417088242116712 2.649894265456739 -0.03992306144718286 -0.42417417179104366 -1.294590293806448
Ni 1.7805649803780823 6.591667627130041 4.783163530188922 0.3473300689477954 -0.8876355712174842 0.030985392637920828
Ni 5.859315470474787 5.531751227685189 9.365467612521883 0.19514030218369618 0.7501640845001661 -1.4188748495198467
Ni 8.514713677579127 2.3335498747486425 10.186378335222987 0.2366631040178311 0.27554281180216417 0.5048443332486016
Ni 2.495769405731639 5.310950408626079 6.82114648453412 -2.050712395662262 -0.3876794192991194 0.568722362849485
Ni 0.33192319065139303 -0.15902007049923517 9.183448022859936 1.0005285972644897 1.083247156610644 -0.03862722545389476
Ni 1.33433445124287 1.185603019524654 11.478995698793533 -0.06710296429608444 0.5142167756024371 -0.32208132168333564
Ni 4.150484713117384 6.760789731410393 1.8127298849243425 0.7325016342233965 0.3214251761565755 -0.9588836680301936
Ni 5.559515515292006 7.79948207674015 7.901277821735375 0.5040485768201836 -0.7618093820485783 0.18424011033142462
Ni 5.500137079643494 2.655289505162651 4.887079868896631 -0.20652257587870884 1.730679471867523 0.9341776806430815
Ni 0.9323546708708889 7.695363733590799 6.9327136282378214 -0.23169804670307192 -1.6239486087671708 0.7717222702869161
Ni 4.7629114526024425 4.561242175280885 6.920780872588731 1.4187126129103695 0.05306679791799248 -0.16342471624797017
Ni 8.108023479733886 6.993756109443713 9.198310295837588 -0.8290308742003981 0.5860469701708617 0.3985528716785136
Ni 4.740600379070439 0.32470447587362056 10.504544389303915 -0.432566509619797 -0.20872318307445345 -0.9562922531539337
Ni 8.338598415050011 7.331601744218218 4.728076103688649 0.2345108335615187 -0.653235552202217 -0.6714137657731405
Ni 7.276979018518673 6.055712703624348 7.183634849489893 -0.18138747137397793 0.42294621292121354 -0.9827959558714171
Ni 2.2863369980743418 5.4261925838084375 2.6350718498577064 -1.3184796988295358 -1.1637039165058152 0.38941439971235514
Ni 2.36866966040986 5.2027376256730475 11.519167407194821 -0.40568202652412716 0.7160763987878378 0.19786567153465923
Ni 1.1974696481592155 3.042277476076465 3.7477784414351043 -0.8908656481190076 1.4396357362162822 1.5282747748119294
Ni 3.6644692733233986 2.563853055210542 2.8530473242823735 0.0042888571833410005 0.23880611850276293 -0.9459479338051322
Ni 1.2974844930097438 3.362576805763073 8.177747622682803 -0.7273342310898442 0.6631078170106064 0.6747957948714959
Ni 3.5871097248202277 2.636040202988267 7.4022326425307385 -1.0665501555709371 0.2715023231842034 -1.7259573838015052
Ni 4.197280899015205 6.884211727704972 5.957837475326097 0.5145479336896106 -0.2734895288175612 -0.5323512804196187
Ni 0.8206878837206381 7.78058605587626 11.542474915192322 0.03346059365129076 -1.3366579124004592 0.28768098982659485
P 0.4775874159149051 5.707359214486414 7.989735838485161 -1.7411554316981819 -1.0440170074654278 -2.1352528387085035
P 8.699733440831736 1.6659568998555858 8.098079969617734 -0.8189439222780412 -0.5921535972892318 -0.4489508645150913
P 1.7196375420604795 3.2785864388167725 10.406712641782342 -0.1513510729128877 -0.2925054077984317 0.7175596682015836
P 4.083796071890178 5.879189808813891 3.8007036051452476 0.054147946797313204 0.8195622725883304 0.49690965178255714
P 6.833855553216784 3.78904169850087 10.303698529190665 0.2971120533325076 0.7548905434415579 -0.5169526864763613
P 6.21084849140717 7.727240577991578 10.309438897561444 0.1783247732882542 -0.003661765122303371 -1.098181152212657
P 2.6169811292118417 8.345066180580606 5.8464967940009185 0.3773764947112146 1.741811577224942 -0.254456166335194
P 7.078099757700508 4.060570090348945 1.4009352250672102 -0.08054314896139032 -0.5089246739655622 1.2212349208427484
Ni 5.23382638099657 2.5604651780278505 0.7034519337577704 -0.19905352119517333 1.3735748400314667 -0.1568025829457622
Ni 1.5439570872981259 1.095624987290228 7.146352801038546 -0.10804906769114295 -0.1156333077963041 -0.6334825379450058
Ni 6.86590450902524 0.4012877113432177 8.954349622251774 0.22202684216189503 0.72093964041741 0.5674578943147647
Ni 2.816902116971208 1.5602714370468627 9.40412836393367 -0.1504424450556893 -0.38793524406366736 0.08169114652290448
Ni 6.3733488357395345 1.9353927793261154 2.697941429533515 0.26042163989000955 -0.26149584679079485 -0.48174759933013805
Ni 3.9975682566440787 6.948137527914208 10.377585050656819 0.36213602361237635 -0.2788549068945327 0.19452940807257466
Ni 7.966629429079788 7.2705565454637835 0.18577795929589994 0.17994816782429007 0.6461110253422937 0.05014628183708783
Ni 7.859222852194296 3.9297201280388383 8.336022179031945 0.1157801177868135 -0.21425619707754068 -0.21677176441054283
Ni 3.103069036966955 8.481487117402356 12.354290002922461 -0.56774842897199 -0.5398267628610575 0.6940674986169143
Ni 9.326807766959607 5.191541325678911 10.120088267781979 -0.4295328649997957 -2.068554308939689 1.0339184855788452
Ni 8.628207563199295 2.3717404902626202 5.827710380928233 0.7423749274730506 -0.07382639906284705 -0.027225411374856335
Ni 3.5001844054482802 2.9676626516009827 11.678157584660092 -0.16743023786293748 -1.235514056469582 0.24062954486474689
Ni 1.0155750657302136 3.448723094552904 12.712269954846617 0.06536129901462938 -0.45109876409602956 -0.17199960240117473
Ni 3.234960726218263 8.4275709543238 7.98868777059736 -0.3213084480730531 -0.23119076804935024 0.5143540725112496
Ni 5.445106721662608 7.685127634081597 3.754208161286105 0.5230423443138669 0.40696320722939594 -0.22388780663003374
Ni 3.0338440171003 8.287943310222174 3.47931635019222 0.19885143248669626 0.15198253584929955 0.3313020689506552
Ni 3.4366843545106653 4.375171626591935 9.464558490868042 -0.36064684066135955 0.2988907424994852 -0.43116705816910905
Ni 7.022417188069478 6.133208129554632 11.45646993892669 0.9133635721112076 -0.5607429441884343 0.11037051673546798
Ni 0.4087093364121461 0.2664130596420156 0.3717669815285825 0.3705185912491167 -0.5602127827165772 -0.0016892147769648328
Ni 4.568932837655497 0.3066472716597773 1.7234502626652788 -0.27187641869417045 -0.2236245256663181 -0.27213250056903454
Ni 5.9599462929948945 5.6078607038589166 0.4217925209441285 -0.12008902957481252 0.4993581133230496 -0.08790370309151957
Ni 7.879378003882768 8.948053968128859 11.218528635361995 -0.6403376131936263 -0.13260515976395226 0.26973160443702576
Ni -0.13099761578090263 4.834247101836923 5.741863928327565 0.6447915351999218 0.2279064408711236 0.4407197348545507
Ni 7.90658066479085 8.96105290865603 2.2431116709610595 0.20950145600137468 0.41892783579043985 0.8461305099951622
P 8.6390868158635 1.4270209735244215 3.7402209389390624 0.10154726201688319 1.053876930978643 -0.9118052264851523
P 1.774269326255166 3.2536846356744755 1.7195261225702467 0.37628223320577137 0.2029492567051537 -1.4657761420570756
P 4.728280825678833 1.0096689268983554 8.111603397013564 1.0686378913379015 -0.5674823197947969 0.9842655984384081
P 8.285098942747936 1.6886303131932248 12.39649081423531 1.2656283593564592 0.5112839182263581 0.026169716416832352
P 6.224282239701105 7.875990126700077 1.4536891832191914 -0.39807181827703697 -0.7845461615244618 -0.06580558564089957
P 1.778671754893637 3.1389497362200065 6.077173184462622 0.21515376919114557 0.3689412194596678 -0.9939031215281721
P 6.823845916086104 4.033521423858257 6.33178030738752 0.40755687494933684 -0.5140650805159211 -0.6994917549562792
P 2.43140879775564 8.57480773434377 10.26060998535401 -0.5042990022680928 0.9706395230145413 -0.3958089903847893
