# total energy = -381164.03808057954 ev
CRYSTAL
PRIMVEC
9.31594042851484 0.00000000000000 0.00000000000000
0.00000000000000 9.31594042851484 0.00000000000000
0.00000000000000 0.00000000000000 13.63482048682629
PRIMCOORD
 96 1
Ni 5.488262693443571 5.854435046095623 0.4278569202969488 -0.09156932486856488 1.011396136106613 -0.44250330911753466
Ni 5.93889336159818 4.377895759321602 5.346895161335893 -0.28462677638130335 -1.173484907151979 0.11235309438313552
Ni 4.667220919763132 2.8123612940790244 3.661781285350891 1.01639718886563 0.02714339318401132 -0.1826030889486339
Ni 5.804632028813837 2.2065736388634076 9.376052418836181 1.3283182821865123 -0.43908991256061153 -2.181305667202508
Ni 0.8797992728573335 4.192704180469259 4.717580098685718 -1.5176684600509927 3.5856563549642506 2.0203222134061782
Ni 7.109888435725734 1.4909137827833359 2.5139605445174196 0.15500512472570724 0.29120288693692425 -0.3465687653017386
Ni 5.826738755340151 6.869891179606512 8.740669884215258 -1.3374564970423546 1.4072385508324992 0.48455421554099776
Ni 3.9812789135014093 8.37067054325431 7.307132046650176 -1.2618982028900654 0.5424271765983819 -0.9872532203118224
Ni 0.9010191218592886 5.463100338471984 7.066027125219543 -0.015019099116651552 1.6815166369896264 -1.5560156923706234
Ni 2.0653998783156746 4.79063849794291 2.683018777816339 1.1125327929486388 0.5382252227018924 0.4532263519619936
Ni 0.42646698199196514 4.482308819122248 9.168353528021102 -1.298347446856035 2.2543993018643884 -0.4880162059476692
Ni 1.0517417212984976 4.158458783625293 0.6296345994052748 0.050068634521617 0.34460495670714847 -0.7819233791896341
Ni 7.042478291122105 0.9189811865096835 4.637025162203189 -0.43332189972858276 0.7916640035161656 1.76319724198957
Ni 2.059968685073011 8.891934671384695 12.995074469428063 -0.6330346517743098 -1.8062632199411086 -1.3235779392880496
Ni 6.790780213883181 4.321450476547501 13.008273293761176 -0.5965941495590886 -1.8690870972458649 -2.070535086815144
Ni 1.6547159625187717 7.195194501803047 2.643982192833947 1.3606126234438438 1.018852592384658 1.0575906323848043
Ni 8.823080556021868 7.358828994611608 13.032311214728665 1.7704832341280219 0.54448277357583 1.4632011822410478
Ni 6.032006185715548 5.245237756700221 10.350246389207436 -2.6678275479928377 0.8098098211872569 1.286107196036101
Ni 6.1470114697304465 8.876647213217952 7.471376733553754 0.22201604352861765 1.6600481827032054 1.6219560038171745
Ni 1.4612145648457502 0.4006236317784594 10.792355766694696 -0.28315790514526074 0.3644302189631917 -0.11867209462262789
Ni 7.021685112189642 6.656211455066235 12.066843485713163 -1.3233539962027014 -0.8255169475098686 0.05245924624098062
Ni 8.18090483767444 3.439836458503768 1.1434571543585765 -0.146580905217754 -1.6457492495820303 -0.26514321373539496
Ni 3.0741205869304298 8.135545523954834 5.000665442259434 0.7615795254259594 -0.4856950140136602 -0.7065844001370024
Ni 0.459520870061083 2.962254774824242 2.9042444140659778 0.43009130860642697 -1.8284412987000447 -0.8432174501134253
P 4.40509830523683 1.0951260556571354 1.223921726219401 -0.05732660163561095 0.8425520486152843 0.8493906688036728
Ni 5.059366114199999 7.817359580210093 11.263193641131744 1.7824146954582851 0.07052484549343983 -1.8633321970399588
P 8.643925706537015 3.8713880807561893 6.635003716786777 -0.22048546581670414 -0.2648223400608665 -0.01843969476242631
Ni 8.688707431952942 7.384717992932985 2.4033961692825865 -1.4180446403090674 1.0370824851291236 -0.8617065100565482
P 1.6457912916328847 7.1540646250168365 9.263715220146668 0.6491750089795981 -0.6793965268683009 -0.9504985292902921
P 2.0012875766072478 6.279577301365277 4.680056422421352 0.4866373233222715 -1.3424994587829007 0.4471919728424556
P 0.35484603233570455 3.226380316532657 10.829933475413277 -1.6178273263607812 -0.6235387964687327 2.344386369847498
Ni 0.15390492467367567 2.033921315765141 5.204042668331337 -0.7229772396727291 -0.5370643696245718 0.8149990786976802
Ni 2.2836257817623324 0.9081551321918453 5.749980996157296 -0.12147665395095854 0.07713515172110587 0.46190022558690774
Ni 4.026172430201918 3.088960879958841 10.306983162073765 -0.440116554052913 1.275791930153022 -0.6952131821855834
Ni 7.870069170891039 3.526167278023092 4.023062769302431 -1.72974256187555 -0.3985914382259329 0.962005244378311
Ni 8.890472068744732 5.20594312016925 2.7602740082155894 1.3889253543456082 -0.08026881225408113 0.7008693520300961
Ni 6.43118491514077 8.259512742617147 3.1495340559161735 0.4222175622853051 0.2579353831330461 -0.24776461324763135
Ni 4.638676878432905 1.4378688182486394 5.552153275770907 -0.7812219822472353 -1.1933780465314803 -0.5118007099617766
Ni 4.2281885973840225 0.9479062498015309 12.770373055821928 -0.7085217263690313 0.17737680755268806 -0.22907063638255387
Ni 3.3721282038079172 6.180092374026671 7.931211550805707 -0.5352280877467814 -0.27197797726904127 -1.655624342603897
Ni 9.312307165178803 7.139671497126757 4.646501336759687 0.07264163472612652 -0.2404997041551019 0.7876839358224951
Ni 1.8512729886370654 1.8024201972742362 13.01841742124306 -1.8377178389059639 0.2512101485940706 -0.08630319137361911
Ni 2.292960354025024 3.9178932551427725 11.641600618287383 -2.329494283227014 0.41378280125439065 0.40189813400166263
Ni 8.213790107222646 9.190501244685098 0.9312558695569115 0.0627428875551758 1.4523459846940987 -0.29721952544464947
Ni 7.518970009776947 3.7692667422894974 10.507496668072262 2.539383204474795 -1.296694227523328 -0.10223091834746911
Ni 4.350516210539116 7.925582859626947 13.22021280063811 -0.22233717431346225 0.10021903012376289 3.2364686639824263
Ni 3.7456228856001643 0.886374463578898 10.410649083455779 0.13831378011295534 -0.9718134887179843 0.21649768481354972
Ni 6.218809422253964 2.216644170416272 6.839389859202042 0.6425523614567579 0.7555070939796343 0.5509683813001737
Ni 4.535810264735659 0.27025822526183874 3.255572747313466 -0.9817559446426768 0.6502489587700672 -0.10786523381511101
Ni 4.641294657680226 6.182896472081631 4.4758072243297 -1.3897969583172838 0.14579517609166504 -2.5852740534696377
Ni 5.480223036893967 4.498062074308088 7.907104691879393 0.09538767017339056 -0.2833545945370991 -0.032210009073641306
Ni 1.9423735696319369 0.46167657866546113 8.316108943625435 0.3770869884952538 -0.160457148979214 1.3916602367782678
Ni 1.469142430110771 7.973718323580367 6.843834494358259 0.18326463379203276 -0.5637480495633452 -0.34053335774093607
Ni 9.252936677124778 5.376750887071895 11.734576498081136 -0.2830596890044996 -1.5589760605505278 0.24436664330967595
Ni 3.9102541840295917 1.4203269025094691 8.004498190602257 1.1832568989370784 1.3542203467642548 -0.7026015042298545
Ni 8.26619227187099 8.301732584428045 6.695542423764696 -0.09882060711433949 0.8751839757176927 -1.7030290571401057
P 4.334651164068693 4.659041524107799 11.752996906998323 1.172239207670336 0.4065839695131062 1.7327579516631062
Ni 4.1722929550924555 7.090837337644692 2.0876817445211695 0.08867014894389891 0.3418597898618435 0.14708432721673378
P 3.482512781393379 3.75009453698349 7.955181465408408 0.7785038119851238 -0.16185737176085027 1.597981495279448
Ni 7.589985423308382 5.534534969320605 8.702888156402311 0.3007203395090563 -1.7764602776470633 0.19490787445791594
P 5.717742252871597 9.372115502430779 9.80728077795735 0.23164456775731718 -0.5573521733393304 -0.4023568188056361
P 6.546916842505458 7.752716269899896 0.976210871463942 -0.4650835084108958 -0.4193353556415036 -0.32622748264122525
P 6.318089398904167 8.434298416062877 5.450928130768957 -0.21952618722722836 -1.4430535036485792 -1.0235363710135728
Ni 5.980945516482202 2.424762278548538 11.621530356328558 -0.9034717669187923 0.17146815537773694 1.4024254457145717
Ni 1.6354505978089449 3.385012149356123 7.129429552270866 -0.6545141618043244 -2.4979905004606207 -1.1734445408323468
Ni 2.718270296221554 6.978664099505901 11.80358246327219 -0.13423755316105268 -0.3872153351785073 -0.66065164216063
Ni 3.349061935422264 5.439745275934491 10.01114895408738 -0.09041155711503784 0.23357495201081063 0.33947534879006697
Ni 2.5262780808904046 2.9018502173878225 4.495250523500822 1.4972096779760087 -1.6692540175721897 -0.7692424412878558
Ni 7.765134418429006 1.3221368908839508 10.40542656727767 -0.5541475503591038 0.22491624789454812 0.5567430790004219
Ni 5.333021862919127 6.508227742099312 6.486833685012215 0.399233442685306 0.9655641653741629 0.24530972394923561
Ni 7.546442717963251 5.7961824708874286 6.338241641138353 1.6099003582042208 -0.31217820363701076 1.1258760470247644
Ni 6.498697535088601 0.320595045927509 12.615235632235724 -0.2271942452954474 -1.6750901646379925 -0.3297714912387417
Ni 2.345287991150312 9.349011970283598 1.4970762773459811 0.5101631743583537 0.3804235090676545 0.6619197102397761
Ni 8.087130581789955 2.2360213264106816 8.308050655195068 1.2111415411624884 0.9297343001597471 -1.240561389085502
Ni 6.35169199586178 2.019211445902077 0.4419873386682568 -1.5442130433087404 0.7790995365875937 -0.07990114450201723
Ni 1.7995788354577482 2.7942511059765565 9.44445843746664 2.2564245598245334 -2.5871123922299573 -0.24276381759893034
Ni 7.952571138913392 5.713904085434242 0.6123237189875766 0.2838168788854983 0.6803079829389768 0.6276661883735448
Ni 9.061251887826232 7.068926245866399 8.299024440559016 0.6232148374704105 -0.37726439461338257 1.3973837695256062
Ni 7.543293930114159 8.028160679172354 10.236368333978751 -2.2498237666785634 -0.8264880531738862 -1.1234872350776135
Ni 9.045107363144352 0.17271846627497878 3.581253365095469 0.885919616967642 0.040912421943645666 -0.4970225232113376
Ni 3.5841962706621207 7.904417043079207 9.570675455731187 -0.49050889046253593 0.6349969177070032 -0.02878864209691816
Ni 4.503428055968078 4.503996328331375 2.0064048226590407 0.15777960214705083 0.04004467462671168 0.28081537305501314
Ni 9.018827095326934 -0.02508969063660783 9.064223672808067 0.8057418217654704 0.6733084116926921 -1.0728203048503653
Ni 3.5204193428074433 4.601487644428249 5.933873932920396 -0.2574864685210856 0.2623257988912579 -0.4385918898782704
Ni 3.529427857156767 3.1909145314986582 13.383039601415557 2.618237652879852 1.2859781266574046 0.7758913140629412
Ni 8.334888016247325 2.176008038470303 12.624261846871772 0.9196437486929646 0.3553521679213235 -0.031049413106636847
Ni 0.4623054046412412 7.458882194313512 10.964767738531108 0.9099584030844006 -0.019898281585823796 -1.112651320804374
Ni 7.0669605824458115 6.229010376972174 4.175145496037402 -0.22981882740248807 -0.4004025232927427 -1.088931608589931
P 0.8711252007677206 6.654161948182211 0.7893293810263184 0.908703704741693 -1.2958030831676264 -0.36612714704964044
Ni 2.5558375597222613 2.543996999496831 1.8388874458992923 0.9113658249548885 -0.7522610762385109 0.3544792783980669
P 0.3859864262503745 0.6875080158399246 6.962103152288947 -1.2110965468571657 0.09881880734212659 -0.3265534985220763
Ni 2.924273685887122 5.652651777423067 0.12265926063268998 0.08579616983021354 0.16229703040143018 0.6127093099533963
P 6.852405159509633 4.57336282041521 2.2895320879644747 -2.067654422833239 0.3215691579336075 0.8003556177528927
P 2.0673655417362617 0.24837787608680503 3.597737921601291 -0.1752250513170079 0.02706060366221791 1.0585946481692865
P 0.3763667862119959 1.6762916804433161 1.1413927419699412 -0.08112653226868609 -0.2080366985303901 -0.8489726074296475
Ni 8.543770031490908 9.110421421162046 11.871374561431479 1.5448146814484816 2.2812562741562323 0.8304606646683891
