# total energy = -340885.14047584205 ev
CRYSTAL
PRIMVEC
9.15935218319920 0.00000000000000 0.00000000000000
0.00000000000000 9.15935218319920 0.00000000000000
0.00000000000000 0.00000000000000 13.40563776161984
PRIMCOORD
 96 1
Ni 5.420696909338665 3.1665986803227515 10.031814258925818 -0.1774642250601718 -0.4046726114230063 -0.13709996231051225
Ni 4.9768530260821855 0.5014021676836545 6.433405252113734 -0.5939968211455576 1.676544894806648 -0.0023317334569701777
Ni 3.764750168127952 3.147510590580985 2.975824031389257 -0.9199373686739835 -0.6158427133760556 1.3459550214316691
Ni 5.520176632316267 4.90361484682347 3.4664969340424396 -0.4397758828840427 0.20395995735785521 -0.4066531321881448
Ni 5.02828278803037 4.670820754272257 12.311536691330199 -0.520023354981885 0.24548584451578367 -0.19134612524858657
Ni 5.921374572272524 5.874826744984781 5.6290410274385 -0.19631863876251351 0.7345968261895285 -0.445937017389432
Ni 3.6979418540317703 2.759648667258131 7.057692951088862 0.17604394767387743 -0.8651687575735357 -0.15819534952823078
Ni 5.275640250394159 8.041004353352319 0.09553021035924782 0.1798602360961741 -0.028123754819409628 -1.0336935140522328
Ni 2.315154470003731 5.260270857598245 12.068626094402891 -0.4884658918905781 -0.01857699167123897 -0.2276236195233822
Ni 7.879103645926476 7.803813771801083 9.903307633260773 0.9434513926355236 -1.7597056838965435 -2.0769353339145327
Ni 8.168704040098818 9.097279154311991 7.503068278013682 -0.43136606155379253 0.4458115475551612 0.5240885261901942
Ni 8.68269024160983 2.195166957711439 1.9372222002744701 -0.9085885193200673 1.9561346229846759 -1.0362031678479637
Ni 1.306132766442223 1.240991454425217 3.037556232560829 2.1623941750099855 -0.3735427227874212 -1.8484637645685584
Ni 1.8391521015825008 6.870100261069134 0.38022119181489805 -2.5219318417675662 -0.11494168104591818 1.3715434114237346
Ni 7.981899054358261 3.946297685772648 4.355612643545197 -0.050222386490661894 -0.05472747344986703 -0.33900509402186774
Ni 7.235521771787705 4.1249783262152455 13.297922888088047 1.319332019527502 0.9196645746285709 0.5316632532136586
Ni 4.318240655174586 0.5387897269528077 10.712739727443742 0.4222157625130923 -0.6217886465468453 0.8174449691350114
Ni 0.5698344349042195 0.1654563679046122 0.7740137956117419 -2.165136770752129 0.31230187369906864 -1.4947555600085614
Ni 3.4988816552036495 4.6872984286702595 10.025231432583492 0.44970471196198036 0.3620851157697829 -0.32997460838848336
Ni 8.987028033284332 5.181921759877004 1.7794642677959396 -0.03903731640811987 -0.5719429266693118 0.1327432280037133
Ni 6.48537999551088 2.393393655499972 7.487692473671311 0.5546766833896964 -0.9342504428625458 0.18369477935091588
Ni 3.311618701858924 4.130125882086106 0.8747593410472669 0.4669670985868538 0.7569957627100188 -2.1513888250384174
Ni 0.5345214688819522 8.844645905148173 4.973250652907791 -0.42802234189254024 0.6864932858140822 0.5536233024245175
Ni 6.561988816336279 0.9685007299446303 1.0535746239654904 1.835412587811555 0.3603727610643665 -1.261237429377615
P 8.974278215184267 5.994695185699989 13.082400585760466 1.3950044706601523 -0.9129802206298598 -0.7246494851688293
P 3.785377029019726 6.204957272126085 0.08986148735484327 1.898121793915318 0.04586102419817263 0.22752823159609847
P 2.240826327847094 8.844801614133592 1.7046744942943 3.4643843608249303 -1.1880777173644892 1.4546766897098045
P 6.4573706968399005 8.015550513912602 6.364568141531083 -0.662633191367033 -0.06564257770047405 0.21506095236702316
P 4.430323646618921 1.0574929947867608 13.154912428398967 0.4421289564972514 0.7210270579248937 -0.025317909939498333
P 3.9819825214895004 6.236895932840834 8.427520767854125 1.1595456713630676 0.6074043528007151 0.16611434726499133
P 4.386505306252025 1.4472783820471253 4.306118252692231 0.32192936948650364 -0.19723626548077644 0.2748149324972041
P 8.995656142946878 5.935461655776764 3.9693554387073515 2.427178976964697 -0.19898538696139925 0.7699299542731837
Ni 1.9763958331998825 1.7060300784026405 5.08655458598484 0.8924687309400695 0.9419928058121261 2.2208235227914717
Ni 1.8369263790262391 6.793326571906234 4.9162895582364525 0.029652532759110218 -0.9985411345208159 0.012883540830887491
Ni 6.694414728757802 0.8637754460288762 9.723297054895669 -0.03752756463181279 -0.022302263041626108 -0.2633807225183335
Ni 8.302000090968262 2.4289319415834907 10.66406418266703 0.05553891360756887 0.4780069013407832 2.187082421785285
Ni 3.3085594782630747 4.969378994782146 6.300743944343668 2.0584673570173324 1.2876871389287114 -1.8598437242707262
Ni 2.0231176881772095 6.82644678903974 9.859390371891378 -1.2695253804180202 -0.205709078838478 1.9673806282121409
Ni 1.0761872323889414 1.3813035689905315 12.080811696414623 0.054442852329912694 -0.07742028706169246 -0.9769927189260786
Ni 4.362846699820652 7.135675674726768 2.2952731803715447 -0.8299328171893772 0.2828678847086677 0.2410524913347784
Ni 5.409220241178188 8.198279587976055 8.439344575458561 0.6486494754934313 -0.443485727635462 0.5269162254469765
Ni 7.149084966176838 0.8675097138732708 5.412673316913623 0.6355350495986604 0.209552106733652 -0.5695751977680836
Ni 8.284679756178589 7.1123742830266465 5.709836588101213 -1.1231997857441818 0.8986131532749104 -1.1698018018734369
Ni 5.290945527725489 4.483008239802528 7.716820993518755 -0.6390893426088219 0.7143740713847504 1.0662750475326799
Ni 0.7746173969140366 7.50250772566618 7.263120731485349 0.915835687800784 0.44010626964026783 0.35138135619903355
Ni 6.181463534032213 2.2964052762890503 12.482605910191507 -0.6477017668681813 -0.7648913634080118 -2.025859855394956
Ni 0.7461418872220132 7.666991370379537 2.7398040150342777 0.5054446858367618 -1.3377897120120572 -0.0554484107762916
Ni 7.257156161408651 6.193627153598943 7.8372976152123 -0.05304031555543123 1.2281635296417817 -1.0165712525496493
Ni 2.3783906367873944 5.583824969943682 2.379151778945523 -0.21359902310951598 0.7147327402757496 0.988674269029065
Ni 1.6557543948169615 1.4100181377719312 7.650784812803202 -0.9540739053463763 -0.13128309851841907 -0.02257505708703854
Ni 1.8401229929033391 4.210984642278194 4.178362693898024 -0.7805959186274621 -0.29650013078012166 0.15356556406570326
Ni 0.6046683668125261 7.944473941745566 11.783180382335571 0.6844369175056857 -0.5412681232932743 0.21615084299709225
Ni 2.0280637383022353 5.509597580659961 8.022858760939933 -1.2092679782888591 -0.8047802291831494 -0.4234617191050513
Ni 6.336549683508021 2.351059130170585 3.3702843519529795 0.8352830257576971 -1.4905317517352008 -0.6981455253410298
Ni 4.1109004020630895 7.4627286595680555 6.195335372762493 -0.7763541126319726 -0.46402292835686537 0.6010730112660487
Ni 8.095475020192186 7.632900261925193 0.7633797878429364 -0.39615763197345966 0.07002707992141488 -0.2766663838836461
P 0.045100649658568366 6.192317366251019 8.860067506250964 -0.22417705573567842 -0.6326423014318976 0.8165630807506905
P 8.47279452926707 2.039787708968963 8.630576276061017 -0.6874006281197 -2.122029140929378 -1.7494120152800194
P 1.731813654517358 3.470093811605583 10.796605502924805 -0.5088035750066657 -0.25608341752597186 0.19867274081698688
P 3.9084054462037003 6.1457054234986925 4.329363772344644 -0.5256034201728238 0.4718349682021164 -0.25191488797057904
P 6.943008703652848 4.244168974876284 11.071702979008322 -0.5195459011248342 0.5807579538577805 0.3575674304050874
P 6.045657820691922 8.032321287577274 10.907563725933299 -2.337077237780594 0.2435660017852515 -0.37920532038983723
P 2.3331892342559084 8.920091488258985 6.405629516920881 -0.1858632477571444 -0.3372708849395804 -0.58795909959191
P 6.9649361925404625 4.037295848721039 2.1203826798210494 0.5973999332898358 -0.2416117062723581 -0.08941088376466537
Ni 2.4022232709083515 1.7936667591364304 0.8178843442855122 1.2940475339291002 -2.0449212429017813 -1.277489372460103
Ni 0.7696356253158857 3.5502473016872504 8.761897570621285 1.932420052976556 0.1927841432466938 0.1423118455287549
Ni 0.2936882130071554 0.38886029269994304 9.80685416021152 -0.04426694023817538 0.11944342557101364 -0.5651870960027169
Ni 3.1624311751248135 2.2626897012701246 9.397767270305849 -1.8485738077838616 0.4832604364302387 1.0228478295869803
Ni 5.221453523468877 2.9019849986338726 1.2522565415525675 0.5952936855801102 0.8813641363864757 -1.3654743224115193
Ni 3.97797072527698 7.139275300095537 11.29387405501323 0.6243548646121246 -0.37119170605674134 0.11303366538992791
Ni 7.092974775314046 6.45539227678989 12.083037418970884 0.07649648969584245 -0.7649245306387922 0.4591566014034995
Ni 7.704389004935981 4.227847009463699 8.972460083795715 -1.0258549918444204 -0.25280526099533235 -0.18424036744174077
Ni 2.939373473838234 8.607501120357355 12.910151642350817 -0.03685650670671717 1.7559989244689176 -0.7734809048492356
Ni 9.134072271630933 4.845141543123165 10.8738618899425 0.17017309071539724 1.2738677165471157 0.51435073007714
Ni 8.847934112546108 2.8559684137669663 6.563533999032745 -0.5301894968816095 -0.7590536736803121 -0.4805348099689596
Ni 3.251872248219029 2.7656388835206624 12.144743973956622 1.0707130286993751 0.12641754289600166 -0.3780274980316522
Ni 0.5041133359003354 3.6191531074105265 13.035990148753974 0.44874157671776266 -0.20590679667158088 0.6078442685516112
Ni 2.9705793863863135 8.404456603372964 8.561429579377949 0.6974392433026246 0.9217551386090125 -1.8970308748439846
Ni 5.497095065066146 8.369449559710281 4.185535382514519 0.40647778295254505 0.3327588560018398 0.10140122335732216
Ni 2.998854306267711 8.813907119556347 4.226703922323693 0.5243109266136453 0.022837052499173574 -0.8210074896752892
Ni 5.3766862225780185 3.3015342552151217 5.208492124335684 -0.49796534674058107 -0.04041054260656266 1.5064216834925799
Ni 5.881531390709816 6.005686408200046 10.02257705234973 -0.6465378284670672 -0.5399964556697023 -1.1484310495071448
Ni 8.192958004415612 9.148818828485176 2.8595964331271935 -1.1397967708709145 0.8643156655446211 0.5255147171137594
Ni 4.528484422896515 0.7462948484018057 2.023688315812004 -1.7750837090145108 -1.2150994973689717 1.3193592732210115
Ni 6.1271119387694295 5.906957752093282 1.2591114006517696 -0.16802544824477514 -0.32608170109198037 -1.3844338942331575
Ni 7.655926873062813 8.97612840430511 11.832995350511457 0.3546620838328344 1.8266561817751639 1.973951596561439
Ni 0.300120825975314 5.243866458016909 6.207051100012346 -0.21154805411775823 -0.7740470617653508 0.24489757611248147
Ni 7.322883671958994 6.8579641195586545 3.0974125984257244 -0.2302564291605389 -0.9348510525610221 1.249268944161829
P 8.852449673123216 1.6695300603503667 4.202707335800443 -2.0675438653973037 0.8386635121941556 1.6022580111676148
P 1.6643275483670064 3.288830233875472 1.8935064446509091 -1.8680288311846798 2.6786133257544322 2.299231113467098
P 4.849721219164857 1.3576999186716585 8.643606370334835 0.8352737697863163 -0.46689819302213137 -1.2899911044715398
P 8.210287498557369 1.5431951170642917 13.10619566653788 0.8381374644873565 1.0988470679314302 -0.18569175517628664
P 6.346066250322654 8.326437242326723 1.9918091908857964 -1.6005405142558757 -1.0057620777492873 0.9420681391347517
P 1.7274263248694184 3.607218471645881 6.3092429071418366 0.21297861591669773 -1.4937883109992853 0.841213275199203
P 7.077632860574383 4.299088449968236 6.473005710846231 0.8098573865957408 -0.4233668453983999 0.10803492662375587
P 2.248666733230468 9.071880270984776 10.434291760368124 -0.2703604962702763 -0.30113043046328136 2.009947297929758
