# total energy = -381170.0438343629 ev
CRYSTAL
PRIMVEC
9.26065959880549 0.00000000000000 0.00000000000000
0.00000000000000 9.26065959880549 0.00000000000000
0.00000000000000 0.00000000000000 13.55391140466873
PRIMCOORD
 96 1
Ni 3.484989850048168 1.668492996112846 12.511886085876373 0.09609626620464096 -0.5761027144739562 0.9575202120237638
Ni 6.2220425472348495 5.9115511603576145 3.8056133243264525 -0.554927880168554 0.6407623594358706 0.10592636492118532
Ni 2.9063190288897984 7.74158709827094 7.891127299480523 1.7368578327640927 -1.263305110539921 0.07250408070699771
Ni 0.6936178293448105 7.217563427970439 6.409820936989971 -0.3938693501599152 -0.6250369782808138 0.2789613505654099
Ni 1.3593351441828285 5.826788345275077 4.677170092860974 0.5543226424843872 1.0319109682305132 2.161103995443652
Ni 7.703192404582291 2.73409854685222 9.762950110604484 -0.33987412689038243 0.04191129552180524 -0.6332786494643158
Ni 9.35271030967535 7.6229395306059695 1.5365119311075672 -1.4562748874348597 1.0776375237333506 -1.786535145384562
Ni 2.9623367573323063 3.461930808252525 5.773329337012543 0.2576849576851369 0.8221058649457906 -0.10165036325365073
Ni 8.156733196526714 5.983710218057072 5.1908088597600175 0.904310460770004 0.00952953675699004 -0.2543499797746329
Ni 7.100101224702994 9.144558469337733 1.0530518009168142 -1.095241867078675 -0.890570228365776 0.44533640769095556
Ni 7.80525413134124 3.0360793877815855 2.8826321143898403 -0.7292239919133893 0.6411899338915924 0.07971422530219176
Ni 7.048056319124073 6.871529630486103 1.69883369435986 -2.406243512363611 1.1426267841205417 -1.326168325723045
Ni 5.328805649082746 1.0832934101087224 10.433042160922126 0.025711545833491202 0.11006738367275237 -0.1034097691469187
Ni 4.524452559426457 6.825781973269044 1.7435348970697269 1.1346136840080783 0.6933010527645349 -0.1568277797567428
Ni 3.2124023419137306 8.574138895665273 3.6268372215309883 2.0915924217060753 1.6433149291089248 -2.518315842281534
Ni 5.300560638047923 8.818759212545558 2.987498894867624 1.7742879525860926 -0.2513083647348317 -0.4683179561877934
Ni 9.433648472443991 5.309858340041025 11.449815328813063 -0.9469704615323755 -0.5958467298701029 3.238033180256069
Ni 6.995992892226441 8.540068929895728 4.970355159534315 -0.2206307331453168 -1.1461718211593228 0.4919214545393463
Ni 0.8757453647610958 2.7354969064149275 6.237279110072749 -1.2838106866924406 -0.5592954131086303 -0.8892702786074297
Ni 2.2051019024777174 4.982734808960989 8.651244997592535 1.9064164298239423 0.981694238166806 0.19211565642475947
Ni 1.7066191306801801 1.6915890805459115 3.874073674679252 -0.1308822635355746 0.038324092391179156 -0.32234100310262553
Ni 2.6351484016367803 7.894489844892571 5.523340615903772 0.1989823016376057 0.5382959280388278 1.279230780631242
Ni 0.24144391072128613 5.971013854080435 9.468247221862748 -0.17346281721026255 0.07042740068362709 -1.8309370685387047
Ni 4.856104552931421 3.232155328319396 11.664265343578478 0.20023262910493902 1.267170249922282 -1.0695881710663129
P 4.7763610152196625 3.2820795429058656 0.2919635857043266 0.3107864654958067 -0.24792170765078592 0.631089612232797
Ni 6.102681908799491 5.491228353522016 6.342023649847038 -0.8263042192978544 0.9209215869641236 -0.4501477130366699
P 1.6318856096798435 5.623600218352104 2.628116782988012 1.269903075472413 -0.1630483067451579 -2.2822836869794823
Ni 4.734299100426163 0.1352232218457022 5.450325873279849 -0.16029156993562715 -2.0165375495527655 -0.359901992075535
P 7.67918877553237 4.794548950194217 9.985721753866912 0.06714410194666501 1.352369152488129 0.7403576399327056
P 5.845309663986436 6.97153549086809 13.09786264120044 -0.7014586488746628 -0.0883428475114672 0.1331700311284868
P 2.2123529987532145 0.19229666545475738 13.416759002508892 -1.629096728627014 -0.05401502076387472 0.22837592430837445
Ni 1.3702071582663968 1.019079998136438 11.4649148338925 -0.06706259797645224 -0.49074594617400646 1.9250348162560784
Ni 2.0560793721261166 3.6071009043121633 12.953093531690902 1.3311554945249915 -0.5581764690128387 -0.6482535256065933
Ni 2.656614610023246 9.168793614871547 9.881614347456296 0.8320002412413671 -1.148417679770706 0.3628677595720783
Ni 5.489746648025107 1.7327341900631974 1.9575913338125253 0.23659754088721835 0.04112068129970983 -1.4346814775348002
Ni 0.4259736611744348 4.004586925176655 3.989783761196601 -1.052521445392013 -1.9093006933502732 -0.24351329417044512
Ni 6.938734235430272 4.0987678308239195 7.985313761523401 -0.7259653757667756 -0.5401080415469021 1.2348753944443185
Ni 0.37640690803909377 0.23929636381670397 5.184438452189245 -0.018596532055264747 -0.2664560190095475 0.7981380412762835
Ni 3.226821188530524 2.156603829432022 10.2101612418793 -0.5218125856718239 0.9053733548168795 0.44270642626727624
Ni 8.260952656915535 0.5172031946850442 3.3623592727943197 -1.8349431043743043 -0.8008374424853176 -1.0914024387279269
Ni 7.045917106812911 3.721294094827052 12.376632303854798 1.2579441033383238 -0.44088068591244717 -0.6548545758628787
Ni 3.517105816693666 5.982978625967973 3.8070227966803873 1.3860189793320903 0.39644868085131724 -0.7973643963350526
Ni 7.070309683555772 6.919184983530432 9.57445587188117 0.7958626149785455 0.46336472594757616 0.711540201480381
Ni 3.1916214223195847 5.28215044724883 11.15768782943814 -0.1499156260179418 -1.3467811168773902 -0.4868399262513809
Ni 5.908198801670858 5.540411715360031 11.132111740429623 -0.7269588500282964 0.12814352444817284 0.6443842724591741
Ni 4.56562545092181 8.690054568820319 12.006678223254742 0.1834356121522583 0.4929774066076864 0.6215929855962714
Ni 6.007537894579236 1.3623819011108471 12.864030992469521 0.017279613016054112 0.24953456066386054 0.39363692243413495
Ni 1.207089904375451 5.6066809937092765 0.1951220926241753 -0.714509311411034 0.09782199064649605 0.9810671461057684
Ni 7.633876369305027 3.6091197280517013 5.924170660861599 0.013214956028377243 0.11303058006613438 -1.6778111631135812
Ni 8.763148953114701 -0.239371375157485 13.005926519380992 1.5836676497599371 1.4335702467484925 0.520225186580046
Ni 1.1550079561591073 7.360659136334403 12.191796951642914 1.9410371052216056 0.5235750768888854 0.3123065016847589
Ni 5.069433101848864 3.887606276195707 4.89454740204872 0.38736214516901674 0.9292391056908834 -0.6347524057963649
Ni 7.997690632752268 6.899774641520927 12.895448705399602 -0.04706455758797056 -1.2718339739465385 0.17911693017224636
Ni 0.8618210373538954 3.18093462142313 1.543112929096296 -0.23246757787924482 0.4310292470396641 0.20534475352052378
Ni 4.9759560063126305 5.501878111781047 8.515624493460475 -0.7564229209256843 -0.1305423636976526 0.6877991491096993
Ni 2.7522957424861305 1.081737619336968 5.98952776426431 -0.9540538507417182 -0.29562544148465214 0.7890551051384087
P 2.416235675127863 6.888522940403775 10.075841860386712 -0.129317490151616 0.9121602958317258 -0.655517406257858
Ni 4.174658934243717 9.127009519858719 0.6293071804492915 1.2083248976492995 0.15290581899451733 1.705388815621534
P 6.210605632930585 0.2660985641239127 7.003522734348545 1.3315298471452746 2.2815869180227737 0.39960470998179565
Ni 7.3868204990142 0.4486243078924922 9.502023624730718 0.4827230758695299 -0.8820357085322035 -0.8670438631090616
P 8.08079578981014 7.294287990732246 3.4237991172895774 0.4203547980449535 1.098390954230618 1.5330498276030695
P 4.930300955689129 3.3744453593194175 9.078924472220287 -0.6114857219589404 -0.6245425551428987 0.026113923478232447
P 8.587715022280701 2.1377861696212803 4.689951654903683 0.3267972391017662 0.30050308129192765 0.3830486053953274
Ni 0.6336457993574275 3.3089354550373375 8.419675727942211 -2.0394303949905392 1.025232527769073 0.49039113393774897
Ni 8.82505646090742 5.595984932153466 2.248607554064766 -0.3843590966766348 -3.0283987982212555 0.4829567891468909
Ni 1.2016261153556 8.074952313756706 3.4631735887380577 -2.4411300398281504 -0.7922471297131451 0.23794145650962242
Ni 0.8649372492270817 7.9757058274418835 8.63912742482563 -0.8258794730556099 0.17216980943045188 0.8838169688023423
Ni 5.176143679604363 2.229753777682537 6.526465424036308 0.2401376928299929 0.3098179309349503 1.488035210565592
Ni 6.982157467149055 8.670468274283056 11.513722212960674 -1.2619527102770847 -0.3237533100691199 0.34514720236386365
Ni 2.781902070446239 2.602949089057081 8.08446023271718 1.1460370953536714 -0.22384718320008545 -1.1619169998087218
Ni 4.225731470590291 0.3410932357180796 7.989461610848811 0.40658062707899656 0.9753901503256492 0.5621549940446124
Ni 8.292364813450002 1.7297059544538902 11.596875525447196 0.5936381522545583 -1.0854552200055565 1.4648420602785805
Ni 3.0189193859955106 1.7881592363069416 1.8589051173887225 0.15112121629026876 -0.25506988865979296 -0.5909112402416985
Ni 7.943904723214479 1.88784097361148 0.9224264964412069 0.6723218794097067 1.8173773275763991 -1.4436304591979718
Ni 8.060551988458622 6.376417738694033 7.559409555294135 0.11067210713628683 -1.9162879233013834 -0.31020359640914313
Ni 8.188108310423758 8.56612842532261 7.321673612578863 -1.0296501972207945 1.216451640521492 -0.13297488439854518
Ni 9.175118645211475 8.319961578329927 10.654743271963037 -1.2736872251051936 0.7857718064014467 -0.18560356633785452
Ni 3.433232024909273 4.946479327583502 1.0042147877387007 -0.38317356100896593 -1.2498543843516539 0.5576085123245106
Ni 5.80232168325737 7.64930462779159 7.735881606041906 -0.522010560615243 -1.0781576579028787 -0.41630376790403145
Ni 1.00923591724135 3.3239192018748276 10.766698161111659 0.1316577082490184 -0.9398418209073943 -0.2134918081076904
Ni 6.080382241071014 1.573830536179086 4.218613727809515 2.707799974620717 0.6661381191964978 0.16434902783445243
Ni 3.44170552821972 5.852829319383248 6.212258660625574 -0.2831836161768736 -1.4304065043085301 1.5269077192610736
Ni 0.5344002391085416 0.7107657922737229 1.8094606049568764 2.164646718489588 0.13474791713856793 -1.7325782315521323
Ni 2.7581114365614976 3.7905916087856046 3.342773904322992 0.7135639167786291 -0.10629608955577823 -0.4669730121241248
Ni 7.975409486342502 1.7880573690540291 7.5298078576637035 -0.01615526960362379 -0.19566609278017916 -0.3003776114576569
Ni 5.469132420299363 4.070133872096158 2.55148297468789 -0.9999249022422199 -0.26326605131734016 -0.3977581436913601
Ni 2.309719571218833 7.677003259924429 1.1141684484005592 0.3016600777145063 -0.41912658206480713 0.5054295163281102
Ni 6.599497761913006 4.874172099334353 0.7053825709902661 -0.3544024024135445 -0.001406650539539513 -0.1636556013118536
P 4.111084507766974 2.003886295997505 4.120660029540748 -2.6172706609808927 0.32358953079774594 -0.44798798638118975
Ni 0.6407385383579427 1.159008561000761 9.286679030271545 -0.6086400249800291 -0.19276460286266803 -0.8526796239675895
P 1.0282943541953395 4.939320837901561 6.833149753852424 -0.2303003950245969 -0.03943763717033208 -0.6484260466287156
Ni 3.6313823531427554 6.646384480230814 12.881027080585001 0.577633806406502 0.445023247325911 0.47095950757569854
P -0.06395040924658306 3.572966113927127 13.053785606931145 -0.45353231323818666 -0.3930712797386521 -0.09742604075965801
P 0.9000407045807219 0.263377782405214 7.204418848080985 0.8756907401507821 1.222859600930365 0.466377544631971
P 4.874218402631132 7.051473502426319 5.21759161268258 0.7078509255542519 0.8105130179018686 -0.3941974229232953
Ni 4.803791088231186 7.667177700348053 10.112071411918002 -0.44891744017399465 -0.7612763923632437 -1.8367217935412818
