# total energy = -381180.0966506004 ev
CRYSTAL
PRIMVEC
9.12169238196191 0.00000000000000 0.00000000000000

0.00000000000000 9.12169238196191 0.00000000000000

0.00000000000000 0.00000000000000 13.35051883580614

PRIMCOORD
 96 1
Ni 6.581802564136387 4.90042841907528 10.230795938450932 -0.2509602373667936 -0.3040810284511731 -0.1972015555880991
Ni 2.9002967425664705 2.572152989918034 12.24589631174342 -0.49110872883006385 -0.474501459290686 0.6075077111477989
Ni 4.711281011088456 2.0600976805648172 3.456529319069619 2.556455843686365 -0.3025625349241176 0.7721675853544508
Ni 0.7565175705794733 3.2926480861108964 7.726666143246446 1.4767876626762309 -1.3289518020054532 0.33597916271135037
Ni 8.530597357343218 -0.07079618912076245 0.8686167816603214 -0.6833665672596424 -0.4572419008792899 1.1979934338163045
Ni 8.36534878273436 7.615217308814396 6.550218705139746 -0.7420003177424511 -0.4830133534164391 -0.22388394997529187
Ni 2.4843840682528517 5.80385905091512 3.9672939089865826 0.3512530581512854 0.36137446285600344 0.70460413648218
Ni 2.767265984557219 6.371556682255201 1.6723126561001656 -0.6028409017997489 -2.7098380880966686 -0.277226113041858
Ni 3.513675808088554 6.898763122234677 7.308928218337816 0.09521334937905539 0.5419885463990666 1.9561752464146245
Ni 4.458701356036608 4.661558667293309 8.693136789389765 0.6706092675939741 -0.2674908880319651 -0.08726941194163035
Ni 5.739797407093194 4.512537582981931 3.9820591920357855 -0.9241848310964278 0.2723782980312535 -0.6459487887328165
Ni 2.6823977609890575 1.085919204572498 4.255971748469713 0.17833120104615738 0.8058922313004055 -0.947361526323207
Ni 3.3430545568157184 3.6133302945978154 4.564181867308658 0.1686186017440838 -0.404374106345981 0.4104290542908092
Ni 6.407076551405505 6.908131100051154 4.768591690565715 0.4982196288432323 -0.8182062727810683 0.8195931258262659
Ni 5.774250038264405 8.065318085227483 6.6930817350948395 -1.2942236544956485 0.5820653598152944 -0.34614761860391996
Ni 4.377162550095529 7.4748435886413045 0.6583353251798317 2.8752453819923067 -0.3488390493931541 -1.871542757875209
Ni 6.412002265155161 6.0133113455810845 7.2978344163705335 -0.33536492616611924 -1.1418600811578463 -0.43040369764052333
Ni 1.2745557978000972 8.14044434160188 8.015384118174943 0.5584993995698962 -1.5355674518186004 2.1737605078653983
Ni 6.597674308440838 3.7226993832244557 12.560074753742368 1.0726452127250818 -0.4139784622049644 -0.18107868188430748
Ni 2.0502188879891166 9.311879409883698 10.907333600274171 -0.45819629437275927 -0.5672110684112812 -0.12124962554181698
Ni 0.17862006310075093 1.6532975766880642 4.741396277652331 0.29752471538989406 -0.5247133042583866 -0.28225184839122364
Ni 5.6407175871880595 5.971862376546936 12.451854998323979 1.2969953037035145 0.8656672944765091 0.21939660362789956
Ni 1.7918925668960017 5.4424667304565 8.604449313327194 1.2548397533813873 0.16341674582817017 -1.022951187934064
Ni 7.201776613067734 7.183761271112971 10.857202604671647 0.40106175414329637 1.4620907227856885 0.8313962891087809
P 0.8449870382001621 2.025106869557996 10.575373331638964 -0.14774201540539073 -0.12083876325664351 0.0005167917354184648
Ni 8.29769319221361 4.243858141322408 1.1541230087902001 -1.0957486315117644 -0.37057104175360694 -1.7399189881879196
P 1.671139606492377 8.239569769967659 4.28544940875377 -0.710954247069924 -0.5914192902263686 -0.2919397651029489
Ni 9.254412749471035 4.601455837855367 9.876059716738839 -0.7191085007459421 -1.5808144965818582 1.52416512351893
P 4.487909014233647 2.8212937670372513 0.5434558223380662 -0.2305323085297449 -0.4131742211361143 -0.3481703054609036
P 4.286000358958361 5.997038246822959 5.679483866567072 1.5253565727238698 -1.9138109225158009 -1.7063416664531064
P 7.942038416104127 5.481087974930661 11.908649110350249 0.8093534503761287 -0.7416017967524519 0.6059344531234081
Ni 3.0384995000128607 4.455353695025267 6.787176550251479 -0.33393436436717977 -0.4573316323796188 0.08681766911619242
Ni 8.93948632871751 9.132090858021222 9.668845885321328 0.04917646172465079 -1.0984495753826953 1.1433199535328245
Ni 4.441215072225327 0.954448255917305 6.047451102712271 1.0126150961153788 0.24519351008634546 -1.1659124941213599
Ni 7.305216601810528 1.4118919944942336 2.6550445428018423 0.9878543442309309 0.5382378211073827 0.7057289941152426
Ni 4.035007878336958 5.629142159876366 10.863837723526276 0.1163663293075867 1.4979786949315492 -1.8881250877139224
Ni 7.573476445632118 4.93425165348959 5.478732754022955 -0.8826430030988993 -1.9099231574256206 1.8332865426074878
Ni 0.9299382691666975 6.060735022959725 0.16767585688438372 0.029069663672446712 0.25044164585916223 -0.8383035577515756
Ni 7.60167159600284 5.765037129214121 2.803688901228293 -1.423858161667051 1.118843822768331 0.18454067229097895
Ni 6.509586127551141 8.470412432676115 12.939362921988861 0.34250693652753916 -0.040272217256485485 -0.028414803697267194
Ni 7.143498122055591 0.3495669587825919 5.449014281066693 0.4884363242042234 0.9914739432613892 -1.2608407081598285
Ni 7.999824335741305 2.4965250404765436 6.484360087968408 -0.23051533924888043 1.9158624057281906 -1.484991795753578
Ni 8.586084610563889 8.49684709646594 3.9615262630534196 -0.641852507176256 0.060981424779378846 0.7069392123732599
Ni -0.18003301321153212 0.6504204329195035 7.367991174873053 0.24560025860646087 0.2647927723745117 -0.5272880069640984
Ni 8.066184645979739 1.1810402100936492 12.082712888232567 -0.317997124311633 0.007459027381206509 -0.3769993138774539
Ni 8.383355002996995 3.688447429280082 3.5381410985477295 -1.0260563092219488 -1.5916290706988587 0.813782946902392
Ni 4.893459446288729 8.193961309322688 11.302054759433709 -0.9079413726543718 -0.3479317070875363 -0.2769412348115875
Ni 0.03795262444110604 8.204688419266386 12.090977141301435 0.4383473779676322 -0.7684759954354764 0.012574494230900925
Ni 4.095010369161482 1.1798452684247507 10.352606102972306 0.3517829625128264 0.5760366371227111 0.257897073695943
Ni 2.2425862532974743 1.20960022814953 8.44729988915967 -1.8873434723528915 -0.11900042449632407 0.7496066693347994
Ni 5.108995909604731 6.561406460535958 2.8269592500185703 -0.48764442443054723 -1.0133758855408033 -1.1090538332611029
Ni 6.455749900605817 1.2255267026067536 7.3513833100137935 -1.6106675753875488 0.16009848008821462 3.3789329759286453
Ni 8.231305516898791 2.1662376901777933 9.18910873118114 0.2987889268142983 0.45360738945049617 0.07543950918623782
Ni 1.1005230336710177 3.9382996983853618 5.246312950745397 -0.11148431862493703 -0.6135194645595176 -0.40270288929114517
Ni 9.08786889457986 6.086987252906971 4.581804064332662 1.3269358000166889 1.3587033222362728 -1.2577839236113757
Ni 2.077447138994164 4.833630267614655 11.561655380917244 -2.783956564478638 -0.3617889246856027 -0.6400946439448847
P 6.215292974393402 2.7979604785712846 9.632318981359985 -1.5724807799051823 -0.06956505268333181 -0.4916003237545017
Ni 5.454279321763547 3.7630172624346097 6.465269298511635 0.010537923416846368 0.07363896564238931 -0.140062644483262
P 3.3007755137978303 7.521884154950527 9.731673364198203 -0.7419478672379609 -0.06652266631258222 0.3055792102632544
Ni 7.828756121554149 6.610690963108913 0.5547192877789482 -0.3090417148905581 -0.44925759712223273 -0.8042580381310923
P 1.5204857392899092 2.975441242325124 3.1289875981016957 0.5861698689019711 -0.22582641841364332 0.19479448880850322
P 8.53574199170397 2.207485981985105 0.6850737413175523 -1.1393159745797539 -0.5372080942912878 0.5065170929653342
P 2.570657032408879 2.0845255720862634 6.37810332069618 0.11436112595209981 2.7944456369354196 0.344422151272381
Ni 6.530620749600602 0.6263610577600685 10.179717199036203 -0.466293469558597 -0.20469734974451198 -0.18472219217416574
Ni 5.492581307013195 1.4979186729627776 12.467555254816403 0.4195197037381678 -0.2489079828234552 -0.5682721626859439
Ni 5.766897954408435 4.455289843180364 1.204483871034377 0.6213878115640009 1.2101493524525482 0.8978068553235311
Ni 3.7795275251880893 3.995045745119834 2.26705154375665 -1.5213214834225477 0.8370252052597841 -0.006225412084421536
Ni 3.864468722293283 7.755664002524519 4.445695647399088 -0.30284149961711715 0.21553300690743527 2.7346271221158904
Ni 3.112613248560938 1.5629380944582478 1.923222129323195 -0.5131523388936646 1.4000926838163372 -1.5441305108972634
Ni 2.5809827878989 3.204149429075395 9.926684195885542 -0.27088962930086896 0.3263946043467088 -1.1387552169802775
Ni 3.3690422576912225 8.422350236848445 2.363722324770517 -0.5986435758889496 1.974411566916993 0.8302516339813765
Ni 0.7821157752010697 5.000292704503508 2.490565839008671 1.9587072688078588 -0.6959639443086788 0.49296609375377676
Ni 4.208803478470684 8.966687214646171 8.286453443172263 0.15130196484250716 -0.23285452890501832 0.3880221473505189
Ni 5.483131233967557 6.875055844391422 9.202512145595483 -0.5301694422769515 0.927518523455351 0.21806862884509537
Ni 7.636598555164758 4.195996622721577 8.087357005580346 -0.5203326586921878 0.45352305726680603 -0.1846175482755014
Ni 2.741725246596036 7.182019027916333 12.256349770923247 -0.48857747776777793 0.2199182804593245 -0.2808236005851293
Ni 8.28834345778139 6.538155267299151 8.910523131869528 -0.2971817302281785 0.04451196636944592 -1.5729489777908525
Ni 1.2158212221815037 1.333053209423337 13.400716217812278 0.5613790351105363 -0.8013696608397037 -0.38066390721323473
Ni 1.4607568992292554 6.79925458279948 6.188392192135786 1.325512694416917 -0.04822026845896857 -0.9917943027152853
Ni 1.0210730952274782 6.704097090509813 10.296614420176903 0.9455383570715392 2.1826886635929634 1.4739375948219453
Ni 2.2009183636522294 9.199956247460939 6.217082650389111 -0.8557667475333456 -2.0231553119795995 0.8458222347261241
Ni 4.693712632048014 3.443493508848073 11.270507387205583 1.01177023161658 0.24658859066165922 -1.623426160604798
Ni 1.5855872560145405 3.8351789688670825 0.557696608089852 0.518173960477972 -0.6622215577509112 0.6258746436907607
Ni 5.761972240658778 8.790063889952457 3.639764958387641 0.19468521692414859 1.2019495902505752 -0.9474713124281939
Ni 0.897178624054628 0.7998036484084022 2.6036584023623672 0.03925508884588078 0.06374304668491602 -0.7175604395325319
Ni 3.6545694647129983 4.91575286185199 -0.30774035169430214 0.8960479636508956 -0.3852607825552978 2.8187520748912682
Ni 5.472148716644248 0.7389692592617143 1.418345591675497 -0.8959240364785215 -0.3310626992463395 -0.35747692757381017
Ni -0.11337807231733303 3.3779997593618947 12.131549515721987 0.7717862907556321 0.8457427876384401 -0.12405444198046377
P 6.583854944865411 7.828135846489377 1.7904248866324464 -0.41586873724914186 0.7639323419288521 0.09118571627690102
Ni 4.199435500654206 2.2031531782238325 8.134230644923608 1.6317873880852996 1.8388059297638204 0.0956128988103192
P 9.48154288348299 5.141888731421884 6.8472009331371115 -1.6000198658657152 0.937855643715301 0.790352998014226
Ni 3.4641085330595995 0.35683147439412294 12.992297013582625 -0.18338264742713578 -0.3989333949463839 0.3123754072494814
P 1.855315692268898 8.226489263454681 0.782230708521895 -0.9547467630436848 0.45856679033830056 -0.9551789654850968
P 7.0909845404689715 8.380645860434683 8.369252866965569 0.607545763474586 0.014665829542290872 0.5247708969691994
P 6.5134354816295765 2.7292467717635716 4.801460795983331 0.7223306072276656 -1.364067928982296 -0.39861509237501674
Ni 0.5876577180567462 7.212750008698915 2.4885900804935313 0.6478367497841488 1.355166512727608 -1.2092273548589108
