# total energy = -340860.0379052452 ev
CRYSTAL
PRIMVEC
9.30315817142118 0.00000000000000 0.00000000000000

0.00000000000000 9.30315817142118 0.00000000000000

0.00000000000000 0.00000000000000 13.61611236151443

PRIMCOORD
 96 1
Ni 2.594399610622812 5.916529460965349 4.370200384721052 -1.723570114516251 0.691987476159434 0.2220803211076498
Ni 7.213743221013915 6.768503377196847 2.451444492211516 2.0763252111343595 2.055608033191666 2.173450432824147
Ni 5.838680633930492 8.220837995512527 0.4892251753444106 0.45114221573945523 0.7187439183176718 -0.504099484662777
Ni 3.145444271584649 2.0254649766222523 7.874647015423316 -0.8029868847281526 -1.4991991976022114 -0.664386940833346
Ni 0.24523869021277006 6.586003324622422 14.067895193002075 -0.48231709868036293 0.7393073442913203 -0.5806463679805807
Ni 9.035803948796525 3.8343059167355844 1.5762554752411582 -0.19340326488793144 0.3056290896645833 -0.09401238709241873
Ni 4.026164946365109 7.59712636658113 5.485019217881795 -0.6525444396724633 1.1304220145242339 0.040682051100394453
Ni 6.778885701643657 1.7936395797673763 10.174612835766396 -0.4255499690926478 -0.2919364226688392 -0.7596987634634788
Ni 5.201144512052897 1.7315316962486498 3.5278933800779764 -0.8085628361540332 0.07833945644185217 -0.8878744267011676
Ni 6.205597189649273 3.5489315418199245 0.9104144948246581 -0.8084718191021238 0.9793059404402877 -0.8853010095470366
Ni 6.677630128812946 0.32003142980965504 2.346641625194813 1.4365205876260678 0.21846123629782377 0.257813255732885
Ni 2.1674683819592575 2.2758966896900485 10.074016856845438 0.11996021730643212 -2.181232647872727 1.2859223337188048
Ni 9.34799932853311 2.718466527130562 9.443604163129956 0.702516657825532 1.477349962937604 -2.8797890354989306
Ni 8.40202630279394 8.696545682128251 12.787708072919953 -1.17615396934371 -0.7442857713425182 -1.0316096349400103
Ni -0.24483586346676034 8.89703804248057 5.589931862164154 1.975501200436746 -0.5657347409760708 0.3397550848140149
Ni 2.919479864336843 3.125051749015289 1.1374980719926717 -0.2820474456899013 -0.40292220439080284 -0.07790134046316906
Ni 7.658527210083766 4.1746991686928485 4.976498362308775 0.8538286499703682 -1.1287662240883656 2.6858671791033677
Ni 0.790002789136936 2.383162102657532 2.8958070482191447 1.1557448095597387 -0.7236845501523989 0.9018352597566339
Ni 6.943849301187404 8.689103155643084 8.53117553457525 2.347671982577305 0.9511317919989168 0.6928935329134712
Ni 5.618902826823482 6.067622051772365 1.43534240003423 -3.1478303967177275 -2.2349753888118222 -2.999075880887422
Ni 9.026882220172432 0.6207904372859675 9.973897199619524 0.890830166895382 -4.299077061296796 0.5064425309736569
Ni 4.705137334448877 0.3257593842558024 9.304352631960843 0.6223324348654573 3.001837245682643 -1.1612832228794647
Ni 6.844063627337515 4.627856000058514 3.030633067077016 -0.545764468501731 2.6861042348148385 -0.41290322686291475
Ni 3.5236176486122472 -0.06315634943732482 12.638121663410372 0.48626348492262067 0.49549451660258537 -0.08366421108887527
P 8.567687639195674 2.133781646455766 11.301359247935435 -2.0112369632754588 -0.9701880372994195 2.9606085780501594
P 5.40159965977279 9.697705041754942 11.257693014731144 0.7874193693071987 -1.7612344618362443 1.8336418690643776
P 3.00347807888007 2.161858577621062 3.3272744967754098 0.536037213911638 0.7228355718885422 -0.8990607823352904
P 1.023207844339 2.8654285157383104 7.202337549175395 0.3829069376111406 -0.9401724647739356 -0.14604354465704525
P 1.0884788016139233 2.1879539361096825 0.2970684446554799 0.9417799184703717 0.6361670267557045 0.6631222151883096
P 8.943963171969553 8.008558533839324 7.562034854203563 -2.250406121544595 0.3839983709031064 0.468261134807929
P 2.7123915648870436 4.039691738251901 11.591001911790338 0.999976838526078 -0.69225538510884 -0.8308013358372596
P 6.526630569586994 6.001764995536735 4.947265048590847 0.4110258073345438 0.4898964536895175 0.34498265176154136
Ni 0.9079975343485998 7.02149345874392 2.581002132633699 2.1706399599585455 -0.637052000463819 -0.8483560568915712
Ni 2.9878952890517496 8.830855375711213 7.907638805016256 -0.24759749154214777 -0.20696094896770809 -0.11576340561626515
Ni 6.430184729497324 7.2695249570202485 11.326481496086119 1.463065427994132 0.888772770145721 -0.0838560153847072
Ni 9.137924715331136 5.975818487577818 11.559330240332704 -0.5692257848484649 1.5955348335111683 0.4643160341172519
Ni 9.456381120473369 8.888162829647007 3.242650179691618 -3.225351728133658 3.4877569741125996 -1.2353438494403048
Ni 7.81422486415348 4.30183612737573 10.247989634699481 -0.9085473816694869 0.09441733584032126 1.394223883740386
Ni 0.7924727776142012 9.2314772732497 0.6002797646086553 1.516357711659369 -0.1678423856996916 1.2104635412588574
Ni 5.594612281007515 9.214117580223045 4.734281337848984 -1.2360565592366133 -0.6494334048473074 0.08887429453490499
Ni 1.4017998634813889 7.467524071000037 6.52112403030378 1.9780705038258188 -1.6166330489423644 -0.4119863714756002
Ni 4.242174974439003 4.897833648307982 13.440804657046412 -1.090655276149257 -1.7595599023472988 -0.37683682015766073
Ni 1.9949506180330636 1.358484359337711 5.016733590803405 -0.5748408170423971 -0.4803036677947599 0.4567371933287295
Ni 5.545528818837832 2.1845954960332503 7.890700545051824 1.5285092594202383 2.256909469880752 2.5902936181714167
Ni 5.921525256868518 1.404516385648475 13.63245157467111 3.0824220465152465 -2.992326735089047 0.7729517718186429
Ni 8.141770454765723 1.471741006125755 8.069997520290196 -0.9565565625589139 -0.41768033653658393 -2.6785223087025223
Ni 8.40186814910613 1.6139118683086762 0.22829763930090646 -1.389861235896316 0.6499746220627579 -0.15646473999036925
Ni 6.376310140902814 3.4228737494773918 12.0806773599871 -0.8480873766112168 -0.363972819710799 -0.06424312624978613
Ni 3.04145357027064 3.4089562249501277 5.948975155177439 -1.0380494770280833 -1.3171069868517251 0.45640500680029134
Ni 3.2904525969900407 9.250139408411258 3.2648437936703885 -1.3166974101181323 -0.11068959063778355 2.578751164749456
Ni 7.346620228248483 3.726956775345143 8.012006284233577 1.785345753062151 -1.0723251103815015 -0.28289153885775153
Ni 3.136103900845763 7.917787620194593 1.3063336459403283 -0.2503884240237236 -0.6542745349896926 -0.14210898548932946
Ni 6.3101460804496705 2.156592990132806 5.642802639998977 0.8902331567413313 0.024790576681118594 -0.017935501432498144
Ni 4.458296640410174 2.3104672252136536 10.863696826396078 -0.6285930710631884 1.348738240603761 -0.4147240821217374
Ni 5.037241472533285 7.916392146478624 7.881959297694993 -0.25025678354186576 -2.7974952223950207 -1.3357089182236286
Ni 7.138517884565079 6.350028719252065 9.241582363584936 -0.1501161720645221 -0.6156676212507719 -0.7191591514782195
P 5.8077290269103 3.85762893410848 9.708655789162055 0.5786262522267583 -1.556556909586074 -1.7987813097417666
P 4.963802342440889 8.21223257426405 2.5068075861030596 1.0652797734989459 -0.12405701308362506 -0.03248717399442792
P 3.9766349326063155 6.068422123369521 9.189309778816359 0.9848572092758201 0.5195672412810729 -1.4764552190374765
P 8.397411936373137 7.684138804350851 10.243401317121375 -0.39068452467403036 0.7462853182710502 1.6723565677569134
P 4.67572074851625 0.8530502916244154 6.758983455506507 -1.1612693389223938 -3.17319381518318 -1.8297867569843456
P 2.587561789414564 6.889267672576804 13.174582693724522 -1.1914612891247416 -1.1680310831262595 0.5172421926923222
P 2.178753112742393 9.15960107371919 10.031044639235887 0.5376343831954289 2.6418835744335665 0.3956750359100863
P 8.209181138405132 8.177885314535 1.3994908196393654 1.2828007573706877 1.615109413208986 -1.8451904931339256
Ni 8.777138940804514 5.878488847468034 6.850102307264418 -0.5149683090564808 -0.413761461098152 0.11448376757289316
Ni 4.533726646337351 7.020191016609015 12.42536960130536 -0.6384028580647586 0.36383629413293467 1.6995899495515696
Ni 5.994899264854168 5.273309109484706 7.513602613101333 -2.073542249072584 1.7804133487575402 -1.5715991486311773
Ni 0.8736763234622478 4.307306384342329 5.034026301091692 -0.531266274885556 -0.8073400194905258 0.3802859550485257
Ni 1.0393953394442406 0.4516422772259336 7.291850675844132 -0.5469533466035097 1.8547159161258573 1.0778241858228599
Ni 2.984890368983363 5.306223682865362 1.974989761999843 -0.1415734247008336 1.4092123867294182 -0.6943837443057524
Ni 4.929287625865923 5.224783836801411 10.941458203744734 -0.7266490320973614 0.327014754429211 0.6499753933937064
Ni 1.075510199213518 7.52346396069418 9.334961882762718 -1.0585157153022349 0.19082701952032297 -0.8971077723739777
Ni 8.737628428326378 6.1521970621181925 4.151784559960826 0.036405792322543755 0.02352585103608206 1.1136391386389402
Ni 4.580270346343971 3.855758999329081 3.091592940885406 -0.6490531386897532 0.7038207213489363 0.1425293608561997
Ni 8.942670032992755 2.0810699526245635 5.619382869781775 -0.294099491758429 0.37325270235082814 0.011505686646754379
Ni 1.4605027911331512 4.906439069556457 13.19289596045709 1.278755126546404 -0.2987616731207887 0.9510937396721298
Ni 2.861735161970046 3.9816214253513778 8.91303854410787 0.327678613265455 3.1803885331594066 -0.38499133094399507
Ni 3.7254775732062155 0.9013457763024809 1.2801192070279455 0.7757547884850768 0.7003677298033293 -0.9766731308031309
Ni 0.5716325498514331 4.916021322406111 9.567933428696309 -0.48621411974192386 0.6104979041243743 -0.42397696817857305
Ni 7.045430484551841 7.9098241168554635 5.9468642686030835 -0.41356348615473293 -1.9767296735272082 1.3876688562306876
Ni 2.323835863412637 6.005318801933403 10.650808938182712 1.0667599575888982 -0.3792374591793533 1.2065071277142705
Ni 1.4066933246453868 8.05059020216431 11.86064092508473 -0.6752339108501791 -1.0393429990285261 -0.6887635699054977
Ni 4.736116850943388 6.296023886444064 3.5207318089676236 1.06564744125101 0.16829798517987146 0.9173325840612846
Ni 3.4965454585224482 5.863008392378885 6.954293026477716 -0.6994436753271631 -0.11307531726114076 1.6943608399421466
Ni 1.2767840248467797 0.989669959365212 11.996462381859992 -0.7402486251586671 1.6162319568492036 0.2333183559153143
Ni 8.099822514863694 4.40926899718913 13.271856514885668 0.3429921036940738 1.1640427879024726 -1.372845932285242
Ni 3.91778315442485 7.9335564731850425 10.391327112908952 -0.2452716716224486 -1.3050405426054943 0.46335726974840846
Ni 0.5198632659364153 3.7057920906529462 11.505329128787947 1.1049377542102004 -0.452815232566504 1.5689609396773818
P 4.215084178032991 4.84751286611014 5.2445176957768345 1.9887194988992327 1.1651954134496771 -1.5377976267007
P 1.60278529121335 8.395523395277525 4.546256139675132 2.825719507348037 -1.2132246489437621 0.6746590121833155
P 6.958278499410524 2.7365890791219463 2.6347585711202566 0.9691845357355695 -3.8379684783732486 0.100763075552691
P 6.31275096471948 5.706380422498524 12.965043942429482 0.005252763758507083 -0.32175761979532974 -0.12855438673334635
P 1.5142099228817445 5.759315392124282 8.047041047346694 0.7759699898196766 0.43042375224518126 -2.51254680100824
P 4.32538242054318 2.273496474898582 13.059798468375398 -3.0646552094501285 2.156558285054499 0.14428413876377733
P 7.626766228308312 0.49684446183360137 4.594634422460345 -1.7933897064125501 1.6155614131447404 -1.5863799064847777
P 1.086348378407544 4.932273939618097 2.8783236231896745 -0.5772178019150059 -0.9906627602140036 1.0325869112516153
