# total energy = -340876.45429475955 ev
CRYSTAL
PRIMVEC
9.17726179672216 0.00000000000000 0.00000000000000

0.00000000000000 9.17726179672216 0.00000000000000

0.00000000000000 0.00000000000000 13.43185029133787

PRIMCOORD
 96 1
Ni 7.267950644447172 5.249145824439338 3.632200439838497 -1.11739012104094 1.9685116564927905 -0.3521596291259548
Ni 6.68171635345903 1.458789965287529 7.427343158618344 0.050987546791460565 -0.8896034935771323 1.348728213301432
Ni 7.070299962297927 7.233847940502027 12.673729380507545 -0.27106677830868153 -0.1389472999318962 -0.2532580322620348
Ni 0.5953454762617533 2.9317037361110048 7.80476446422568 -1.2859668138034952 -1.6287691700842657 0.2437236104090383
Ni 7.658020969658274 2.091360249876058 5.414795395539949 0.28389992551760784 0.6742054695856647 -1.0488815346465807
Ni 2.636966803952155 8.149812061965175 12.381372112270379 1.6860155533012449 -0.9371048815922055 1.2960357680037227
Ni 1.2475018724648488 8.857030192056884 5.751558679272104 -0.387056698113456 -0.6127661313332609 -1.360168851038206
Ni 5.664453618931696 6.888360751933959 5.45987226885474 -0.3031649443948069 -0.04683238697250645 -1.2858107478416048
Ni 5.838738993157276 1.94082562855953 0.9966313328214457 -0.7535044617273088 -0.021165321223705482 -0.8605806239822212
Ni 9.170351078868295 4.002240473975682 3.971959181742797 -0.6042935750858754 -1.0116416764585157 0.2643705972354286
Ni 8.03583965069102 5.281449785119347 11.185318885819223 0.5757221912060859 0.2562883344479263 1.0257151238324462
Ni 5.470014978327339 2.1019141006664017 12.010343687063523 -0.9437738089719487 0.012090355505630791 0.052640251903535155
Ni 7.307779959603773 2.699372182538535 10.760873291994738 1.1922069090415146 1.4736974537866814 -0.22008720193702097
Ni 1.1789660831585127 8.934027416518608 10.965251824591286 -1.9942612546530687 1.3781539747617169 -1.248900762189133
Ni 1.8951779295759044 1.2033408898534281 12.880096625683459 -0.06885671376239755 -0.05342186726456606 0.4542892460088692
Ni 1.608654646510409 5.022357336847188 8.260493507245055 1.1153548357784662 0.6945156418979264 -0.5228127448015641
Ni 5.418034968869507 5.109541321636983 11.455406611162607 -0.7127074823156048 -0.2756669960848543 -0.7365945733458475
Ni 6.754739823666651 4.013583569259913 12.999639634722604 0.059261613874794714 -0.004391701309792436 0.3839598043556871
Ni 9.171929567856067 8.80851918746753 3.5568074006969046 -0.06591434330462197 0.8321691627190637 -0.10409573947034975
Ni 7.231828942959527 0.2142055442715935 10.637528143492602 -3.658196945336139 -1.5375520863487973 2.9553684126971427
Ni 6.881037297211617 0.8212914912429874 2.698471893179811 -0.3977617432357859 -1.1238096514140388 1.678208398552
Ni 1.414197651382938 8.418531457610438 8.043098864582465 -0.022930383543928252 0.467057344307815 0.38032092205151924
Ni 1.66355302514331 2.2624244052951936 3.487834773740464 1.0633357623986976 0.2448898628029976 0.25170971393830843
Ni 5.677622989265735 8.286681740823598 1.3374996056479656 0.9197728180716611 0.41810945365420255 -0.5513599603116376
P 8.33856997766586 7.499070799494142 10.343518050449052 -0.13899023735468966 -0.13093291426785192 0.8819272079787973
P 0.22007899166795866 8.899722812819212 13.449982542934281 1.0984125514971728 0.6532080413983912 -1.2399494665331163
P 6.696326553857489 0.3228927706151753 12.999331278734294 -1.0854079117073887 -0.009627752897751161 0.22717830445584744
P 5.624257213312823 1.9682289315681962 9.76696944130798 -0.5123840932690723 0.08194902816998144 -1.3709929382369033
P 4.2035804152707685 5.380775286948815 4.870952711135073 -0.19618776961160406 -0.14470322857906692 -0.5641368003613316
P -0.03204883280872883 4.026459267224132 9.534290069522505 -1.874355544733656 -0.942540707895796 -0.2238692946872725
P 4.798569813784118 5.558557197827544 9.352704183728477 0.768567012487386 0.20777598866983574 -0.8631216452365199
P 7.545718819987461 3.80175401800538 7.140908894989949 -0.18293013327074947 0.26124850666667915 -0.6243543503914925
Ni 1.298077760904487 7.590393729246063 1.3158458570046474 1.5516769557859533 -1.4346403398842196 0.2922868640297224
Ni 2.9014004184503834 1.4721520581142598 8.716934705761238 -0.5723365625633047 -0.13827984155122636 0.03815851334759234
Ni 4.600864068065532 6.441630013871047 0.08451248395060505 -1.311146655503232 1.4364879346159196 -1.1039388806320407
Ni 4.635150317241814 6.507476865541235 2.7930591748674938 0.13376472728969221 -1.6041742543537212 0.15748649638666426
Ni 4.531759288542673 4.036609318505976 2.632561718404881 0.12287970494607223 -0.019808550085494918 0.6261204411529797
Ni 0.4433828730469841 6.871281868176716 12.23791958369725 0.16645887508860363 0.8944474519329951 0.05838332503489946
Ni 1.5106782021297926 4.672529303562744 10.623129020109952 1.2528682314773132 1.3552151065773566 2.525093784435316
Ni 3.337926041662111 1.1233335236010664 11.112760702772531 1.5792180986290156 -1.0427481680553332 -0.831900225328393
Ni 6.174103662228171 6.624459418606027 7.687302858107621 0.14473202493447332 0.07412953212556266 0.985189138693942
Ni 2.4584140031026536 4.830414911386285 3.7407839631264865 -0.7102014280642995 0.15313747538934916 0.5723226786062338
Ni 5.309146760497831 1.2690409053387066 5.230751839101003 0.7857329827437114 -0.391409575765513 0.7355525052345783
Ni 0.5364577420301028 6.636288908752769 4.539226826271459 -0.5216387790981211 -0.11184324462625253 -0.2566040659161322
Ni 3.264333581237967 6.440556274268899 10.691980507213842 1.0227457567914773 -0.3147117686921419 0.49925449786564985
Ni 8.69484962582475 1.0516591108422977 9.570703607927657 3.5481123352722053 2.0951063483966044 -3.6978603253640308
Ni 8.161880160912395 7.750592006981924 1.4003106191951569 -0.9051224151483379 -0.051351872109414796 -0.08905375753556276
Ni 4.200010460525166 0.6265362351149194 13.49672600694779 -1.265196156915047 -0.9116077657623655 0.3439670660128334
Ni 0.9601709903823532 4.630378141232267 5.90485657404339 0.9730874703344016 -0.6776227227973297 0.8073441332555839
Ni 5.827138934549455 4.0379950850010555 5.548025372464936 0.5758669443140664 -0.5850342126356312 -0.7248479743328807
Ni 8.320674317630061 1.521039330427443 0.833398134688745 -0.5114929489133708 -0.372014716178669 -0.23127510023304043
Ni 3.4733365359329986 2.6529077072763525 5.12427725051877 -0.15732991620414197 3.4510920145913984 1.2897100828960113
Ni 5.0287171791060645 0.023901259998583523 9.103060643955219 -0.1877149562539025 -0.4184154149303955 -0.6801979397236737
Ni 7.768680389510417 5.770111431235372 5.948617428050933 0.7933125948631822 -0.5383992863859115 0.5819956829196234
Ni 7.939992330991586 8.291068471847758 8.313549091757345 -0.8580457733755094 0.8762229585051684 -0.5373446198691519
Ni 6.172203969085908 7.116085320204905 10.206795207775539 0.5855854571534109 -0.7467298620076366 -0.6606202747020623
P 3.341707073423521 3.2610297670775115 11.4587241912154 0.8324013333345278 -0.4175921476981518 1.3493113394984118
P 7.320242680797936 7.686727443808009 3.386089228038461 -1.295735977375117 -0.2725526188255887 1.3156080337086955
P 2.457799126578347 5.971488081576686 12.810142949466593 -0.124624712661637 0.09395016639591562 -0.7281618691974621
P 2.9628513618348538 2.775323199182782 1.4372481792352039 -2.056093200358201 2.189912435034912 -1.478638085621408
P 0.9502962569472143 6.628396463813902 6.738826452127125 -0.13513178284054791 0.2695110037857874 0.3985965804322555
P 3.0612774920317545 0.8067657216508518 4.461482572719008 -1.1578137762736254 -3.0544525578855133 0.6067821458356841
P 8.788962443089945 3.4488607793609583 12.911110263388577 -0.36877358353355194 0.48627608332811095 0.7078563248708906
P 8.645787985541988 1.849778016654313 3.1080356396637554 1.6808350375415697 1.0911797811941595 0.6984478870727971
Ni 1.3555824818195248 0.8452670870601812 1.6838164186607696 -0.20296622598601818 -0.5084258799522727 0.08420697096622272
Ni 3.7014740809740014 1.212463087840908 2.4044351860777464 2.1357547180455865 -1.85424489002671 1.1269443403882786
Ni 3.0246510411584837 7.033609270593759 5.847152706552569 -0.40928671315625 -0.2638566337134875 -0.9871866287399449
Ni 0.5871914793685183 3.3872629997915786 1.7647974923643102 0.4997314375020684 0.6214430902819684 -2.065862106819506
Ni 3.3774983934951215 0.3634112981146938 6.687946796329956 0.8709622243268613 -0.32648279318514095 -0.5055884105034777
Ni 4.969863400742175 8.590779479770404 3.746935481548024 0.013506004906234804 0.641539089700895 0.16889936620929621
Ni 6.9886315117037805 4.608013154818296 9.288379839750563 -1.5994459956401164 -0.3279346951403191 -1.6182330464396324
Ni 8.988072309826723 1.6432896316258498 11.942647617189637 -0.8508438563104314 -1.9698026073900723 0.2960105927382128
Ni 1.7536094928003902 3.5779573176807533 12.843024159898526 0.4878909932237146 1.281718322939786 1.3251748514615243
Ni 4.658102648395421 2.7872628164682056 7.431573876196038 1.298761137354686 -1.2483124937858308 0.4187226617581692
Ni 1.077621583786543 6.814483796401554 9.797970230846918 0.9557970586850699 0.48244616805905943 0.24116433432229437
Ni 7.535275096335798 8.524235156221899 5.697105397824708 -0.07812245533503964 0.1113807031675372 -0.39189731403520894
Ni 3.4409224481143084 3.799138498461686 9.464296013354792 0.8753037891250087 0.4445643054116214 -0.9921385734285817
Ni 2.3974311000575814 7.875769854616957 3.5771836745315135 -0.14900545549884658 0.5382450201962342 0.813471072088928
Ni 3.696958868288046 7.133026545038796 8.018102757280154 -0.16154138318232822 1.4672519552716536 2.0119352748940638
Ni 8.789246938198206 5.416961229267359 0.4402057050960128 -0.49821088709248396 -0.3731028070365252 0.8701633825746499
Ni 7.187622074040322 3.464920987085394 1.9951669474159317 0.4577003285729472 0.8430588130483739 0.806310806895063
Ni 2.6210534324126282 5.402204192683992 1.408759206184366 -0.5083950267143373 -0.5659458285456125 0.29127770603891767
Ni 4.372460382439382 4.030497262309133 0.2759951286075108 -0.2620802585393551 -0.8193200746705375 -1.551763859072805
Ni 4.294086568744134 5.083147517399567 7.196126642325027 -0.6646203970003909 -0.6619060833930214 -0.4858780765587438
Ni 0.8771241151023724 2.116891391527133 5.612364400061338 0.350750407483254 -0.20449114727097686 0.6358489812946533
Ni 8.61477801874149 6.063646142130278 8.382025228863561 -0.5040786587271706 -0.45776589170355997 -1.0230031242179223
Ni 1.3872532114521126 2.3258117508681533 10.529079525949497 0.15980460299687962 0.2710174131279849 -1.1061721408379337
Ni 5.087534248423728 8.495262541487016 11.67719349120629 -0.4273481986436511 0.3007409083343465 0.6015653775214349
P 2.6669672719814015 3.2913697937843605 7.22891424468908 -1.0619622790899388 0.12510088096710711 -0.3958375296298796
P 5.785235558281012 2.602717263822101 3.5697959789782727 0.8008027325926402 -0.2934245771785914 0.23642450564446382
P 3.5460571565092454 8.159622554569417 1.851096789140028 0.18071409945603714 0.46744686643674976 -1.7632044410784213
P 2.932621462266687 8.363183393161254 9.778587854438914 0.23491295409594382 1.0518627287620919 -0.3223255764836578
P 5.490755589445754 8.709542421577218 6.7776040531093145 0.14069796407441576 -0.44585911296364505 0.5709090860881587
P 0.4672382467377835 5.546250490079847 2.5322799459211915 0.4574506744559863 0.541953322285757 -0.5568443804649765
P 6.020109213304721 5.412684625381881 1.1372710307274096 1.062440761388254 -0.9909905758670675 1.2157769830519707
P 8.864261874163658 0.698970525130593 6.991976623541242 0.5476110347921667 0.6444254101097546 0.4690640903251986
