# total energy = -381171.5747909016 ev
CRYSTAL
PRIMVEC
9.16371115477340 0.00000000000000 0.00000000000000
0.00000000000000 9.16371115477340 0.00000000000000
0.00000000000000 0.00000000000000 13.41201755712456
PRIMCOORD
 96 1
Ni 5.52447141769132 5.823474141170994 8.321057296905781 1.8320174460870768 0.11769404698007474 1.2005087440389905
Ni 5.0026805544207305 7.083365263885448 6.419984070508844 -0.6175362990283945 0.8961857747803403 -0.3907709137402496
Ni 0.3108486525808469 0.4506548081715068 3.335488139878584 -0.9278663937130729 2.9097632132635174 -0.9223398074678889
Ni 2.408846361079252 8.29711710213761 12.662379088949077 -1.363682520618419 -1.1010250494193554 0.29159935104439455
Ni 7.222158829419885 6.509854416204693 10.541403375328686 0.508404282685718 -0.32384407001071325 -0.1031140922833708
Ni 4.499583661418874 2.9235994943663193 1.8066521818601793 0.20390750685336498 -0.902692979771239 0.9021396783709301
Ni 1.3446829398206304 7.870995380830542 8.856183192301403 -0.7900349525531748 -0.6205583736841699 0.3793063647440758
Ni 5.742769339133375 0.5962075268776195 6.0075107802401355 -0.39747429390235417 -0.6573220635667647 -0.041103712018845336
Ni 2.730474286810644 0.9763933981047305 2.774476593887315 0.3379879656112631 0.6388700275091642 -0.1858917870022347
Ni 0.8401427623494964 6.207497774529745 4.636024902361161 -1.6331891535288328 -2.033013178610286 -0.2761575625680276
Ni 0.7800902156033704 5.907468715427474 1.4179990417466417 0.42776240336293425 -0.6173056710748271 0.8583777027936312
Ni 8.071983052352184 0.2460392234982012 11.963586567479595 0.19257974054537158 0.2918963134595231 0.6203822531176219
Ni 4.523894986479144 2.4782889624010505 6.82595204239825 0.0020363137037384287 0.18284760085927218 -2.315249857492858
Ni 8.865303833776142 7.535291995132102 2.8932941859958627 -2.695889082115744 -1.0014562512850818 -0.9460780316250932
Ni 5.49779585521471 4.971184880002279 2.462044452060175 -1.1716776787399112 -0.5580160321755745 0.29934917019314256
Ni 1.6852614197264058 7.910912505580839 3.5840125617772167 3.422174046005468 -0.6409204822802897 0.6958657281679177
Ni 7.1894627088714325 0.13486599903581942 4.003607888169877 0.7394829506372361 -0.3398671849118469 0.24409744880868928
Ni 3.8532396393773816 4.194972746858579 8.174382939983543 -2.126186100520545 -1.12717933921722 4.0354047756799725
Ni 4.63689270578491 5.835524421025596 4.497062724545869 -0.4824739359732014 -0.14568616131762652 0.5763652241067235
Ni 7.594095528080371 6.518321685091119 4.781424587094976 -0.06020238052150922 0.5198968567063498 -0.9185147772948439
Ni 7.0370976874703315 3.1410635181150135 6.698873364898887 -0.35416688936397067 -1.4853545784096354 -1.0492270909114576
Ni 4.986277511881006 2.9386737988232157 12.77375299868052 -2.598934838786182 -0.6411549668885991 -0.30748696880892856
Ni 3.353487500859882 9.137566848802793 7.072129637931284 -0.19083576127107135 -0.9891668923947674 1.817784590317147
Ni 6.615081308653652 3.5336002389147714 0.7153046121691065 0.24218686204953774 1.6131661734396863 0.18267610827841443
P 7.036419572862544 7.74797256178262 6.36883040343329 0.7409536216454916 0.853898069755723 1.3112628693661221
Ni 2.337589344996076 6.824417120819813 6.101368256555555 3.202830149992374 2.10261062719345 -1.0733820908911063
P 3.6292785445892104 8.156701559771033 4.828956755616508 0.12347337266601316 -0.10772048070713063 1.0118890165826315
Ni 1.5136342779797753 2.2998440197328813 4.4425294808844775 0.21732660847274832 0.9035075052527344 -0.08562904812472995
P 4.914754748181266 4.637460855861705 6.55619621867823 2.668999713924068 1.1237546298063872 -3.192092966080528
P 3.4254409589726773 1.7748550213525904 8.515370121396176 -0.8955424847693867 -0.41920088694616836 0.8622906646947924
P 2.774350134676674 6.60140905196691 1.4241817975016982 0.29349219719173325 -1.2785818341933337 -1.4093352854605277
Ni 8.719884905249405 2.054210748628261 10.272921307425996 -0.23541251944018168 1.0349253295768048 0.21908627147633236
Ni 5.661514714440793 1.52843367110919 8.502132224606855 1.652777102963089 -0.9990826088465824 -0.06537749696454548
Ni 6.009680746985055 0.16742924577598986 10.754050036248813 -1.1622903239877402 -0.9537041807117833 -0.35046604347361576
Ni 4.3231455714413185 5.004943991016994 0.45280003289695325 -0.3116405859659859 1.0854277092017306 0.24098204310815916
Ni 2.5202495946856267 3.3562457778456123 0.5533048651108741 0.189305440669474 0.1788816742329887 0.14713446372837888
Ni 0.5114972667985961 5.845668649009658 10.99942305796342 0.46952174668790747 -0.00825555514057288 -0.041407873522825454
Ni 6.700780333140517 2.2646003875497676 11.531840160412257 1.3368504880272396 -0.7168199618220816 0.6745224866054512
Ni 5.948668759706019 0.5591485635620367 13.178701965916062 1.732095892599075 1.0423149371726566 -0.06533584509333265
Ni 1.4785830837258982 1.2603951268148366 13.1473712382941 0.1518886905839126 0.22521063920651535 0.0722557121416175
Ni 8.025541365429662 5.388875987266584 12.70468061127973 -0.4682814465229032 -1.2873606088272282 0.8397050660847926
Ni 8.544115766168721 0.04626299455965961 0.9819017047363658 -0.46092397771656746 0.3902294394144828 0.45752215112387007
Ni 0.8135542551265882 4.271883772576955 3.3208821010494978 -1.2356832350575946 0.9554630723844192 0.9286899180556328
Ni 3.935254852075996 0.8917298729513788 0.6360101052414665 -1.8194357527673244 0.14440960859804808 0.5674170137745003
Ni 9.178464490621106 7.277608444172881 13.304359351852346 0.42237517090909193 1.5324317344030964 -1.8680121190141312
Ni 3.666382410088282 4.595161166273236 10.744648985220042 -0.8177164776288433 0.8642938111677502 -0.569454098809187
Ni 2.855659741634752 4.246188727168362 6.009602855442268 -0.7103217556922476 0.36023674970713443 -1.114186526501978
Ni 2.3186479545326084 5.547811389394491 12.68721824375811 -0.38878653632036914 0.5624894945658958 0.6105912351691292
Ni 3.7968095075563686 0.5494707684636002 11.727896839089976 1.0194817413282249 1.5553919427436955 -0.047681879456995306
Ni 8.083025324006021 6.9776618584688554 8.475281635251747 -0.25841000877661946 2.111796407457776 -1.7134278838759267
Ni 6.926711625775638 3.6265019401816483 8.912915726582645 -2.0821775561500786 -1.5280755143169296 1.1074191258711572
Ni 8.555506258837367 4.960509156785085 9.034791249023876 2.0214941222270926 0.9838508794984927 2.2893639908650316
Ni 6.290291902656224 7.249631634746192 2.867770501981399 0.04640172719299105 0.9655549094027823 -0.020878386110905978
Ni 1.6583109459223138 0.7060859189875638 10.658905974920781 -0.3840613629305579 -0.5827094211571965 -0.14047684920254516
Ni 0.6524992866638001 3.611088578420859 12.301596459215602 0.8280710813902901 0.46282145184959644 -1.2319397088547621
Ni 1.665623587233319 8.480831178582505 1.384119886118927 -0.3195798954177206 0.2545088739500004 -0.07309286333093218
P 2.963819021576846 2.881922937120141 11.796955480924392 -1.1418006886748207 -1.2864000446861716 0.19722649528876354
Ni 7.725099939336169 5.402245841493095 2.6225321868172604 2.362751245507931 -1.058223380872797 -0.06269403659511137
P 0.5433301657787576 4.013293014237045 5.58951177228905 -0.8382922448976661 -0.9200990910628282 -1.130082371796628
Ni -0.1535938750349432 3.7806997037659595 1.1516438711475656 0.03909259512608751 0.9961965455480392 0.03315206127193645
P 7.334084394548475 4.155981156910802 11.015383493265896 1.3490693986909346 1.1056792603619152 -0.6974269020074506
P 6.097872300841083 2.3107946542775566 3.5633722193099144 -0.5843505563050453 0.48505609487808077 0.941878648831765
P 1.240491546705184 2.6202989904670195 2.182470628464703 0.9111645075773597 -2.4893042855405323 -0.005312927572481172
Ni 7.633517812441203 2.077578211464179 2.099181659948758 0.9047462627558419 -0.9479066001933999 0.5415360322426802
Ni 3.9562305863628255 7.612477932177961 2.7859843820556858 0.43408500314685244 0.8657721954854894 1.058407471859145
Ni 0.7820512497394042 0.8194685141518044 8.252548477726327 0.7738963951200993 -0.33221635323480847 0.14219100368017448
Ni 0.23321827555556085 7.579955922136912 6.507766006486926 -1.5952797800775687 0.7397238630034486 0.6748916970194119
Ni 6.7212154084833 7.494036968588063 12.59239582868323 0.23144453593136913 -0.05206226791287808 0.7617523035583977
Ni 7.9801718326843165 9.111065396833588 9.523015439208988 -0.1244269948285341 -0.9988653506294538 -0.14885915972896943
Ni 5.809169588431047 8.348644648618537 8.38351623413846 0.6060455247799756 -0.5364902422886567 -0.9130568395040661
Ni 5.02085219316725 7.924300687229183 0.7955512286609236 -0.12338235561410363 -0.7733122404818552 0.7044223594886772
Ni 8.253616966419138 2.4602731067401034 4.52038620156939 -0.40913424673878573 0.4557288066688732 0.05434900706452576
Ni 1.0419964045527057 5.393540316122851 7.086145533777376 -0.31078826526801956 1.2440632315911735 1.8234109353649885
Ni 5.619966449147438 0.5287598654222441 2.479104532672579 -1.2584151294374715 -0.015228901134612482 -1.411395510423666
Ni 2.6344844149650593 6.994852980147358 10.746271878423274 -0.9054152637984083 -0.8321190262074186 -1.056721856626606
Ni 3.96892232598155 3.1708089237484995 4.265611212454922 1.8414240841129579 -0.6060725213631691 -0.46887382869126343
Ni 7.803623778175769 5.342672556827878 6.790718490297145 -0.4418415071638197 -0.14075067168922212 -0.37020568799438824
Ni 1.402450973435386 0.1415161040475942 5.3741150817230166 -0.7994493038885394 -0.44407785269350614 1.3895856136374263
Ni 4.351580566413809 7.125445024411933 12.219835997680455 0.3169172609838929 -0.17164556149586566 -0.5635061087558683
Ni 4.808455701555129 2.493454903967107 10.345050708788378 -1.6919512020593894 0.21472825161795278 -0.21205379010958314
Ni 1.8025844105845463 2.1529222426159116 6.8061694232726895 2.0782054588762082 -0.028271079030551313 -0.8498596380202912
Ni 3.2847046867240386 6.651891935403409 8.172786621541968 -0.019326211132437682 -0.3449584833918253 1.0163992457481592
Ni 1.5442227450175379 3.1807515500924097 9.85634359103799 1.4687863896383093 -0.8379567159351182 0.4712695826169497
Ni 3.751009280397969 8.646272815460804 9.581303971603777 -0.6391726463512476 1.6921322077219438 -0.7961917161831901
Ni 8.088193656962671 0.5376514141240838 6.1131573706490485 1.2576831363674534 0.40312686420244126 1.1091474214161736
Ni 5.618280326338886 5.184314468487683 11.873136158882758 0.7582692301058037 -0.30349918780577406 0.10658199622731321
Ni 6.482922269822432 4.330009190917437 4.431786862577597 0.04980123979284326 -0.8468067101265803 1.2941853450585454
Ni 3.075817896392764 4.837871213595638 2.976354978109997 -0.49831810209430955 0.9489988048163139 -1.5329595818821082
P 1.9794348675533235 5.076301807920246 9.131571949121515 -0.33513146999907445 2.003611071299085 0.3018567671063446
Ni 8.399228332875113 2.141027745846883 13.223511595924437 -1.1954300439645025 -1.1838752492473674 -0.5806610232685999
P 5.217468774581938 7.20810169687467 10.180820514493181 -0.21680056076594922 -0.4644985824417033 0.3915227043046096
Ni 0.25006942355907835 3.4264489671734424 7.75842285771128 -1.3406485216170911 -2.3480836161934273 -0.04465363415363278
P 8.044317809096642 1.5919840063119708 8.189189664081692 -1.9676526509266046 1.4377598593498075 -1.049082594913793
P 0.03900258640087615 7.996116689678238 11.007135237070363 1.6518368505370067 -1.3078199051228443 -0.7678514744776002
P 6.559347618862258 6.05518773539414 0.9664269461124385 -0.33940798588724125 0.6914393169654479 -1.6966696905809813
Ni 3.3870541739453595 1.1322956119194258 5.205847356398208 1.6757321690973654 0.18827160008832092 -1.5815251494956377
