# total energy = -340872.14805598324 ev
CRYSTAL
PRIMVEC
9.26171640814365 0.00000000000000 0.00000000000000

0.00000000000000 9.26171640814365 0.00000000000000

0.00000000000000 0.00000000000000 13.55545815195666

PRIMCOORD
 96 1
Ni 4.858668492749217 0.8482268617122151 2.8234526833961775 -0.07446634663969112 1.158810592969256 -1.635845360204757
Ni 3.829006464539179 7.079331644024375 13.045257748830094 0.09182643518469347 0.48791490448311453 -0.1326874350651134
Ni 7.4564131542384855 8.913169959724485 11.225965884472084 1.5766207702154846 -0.2398091058459805 0.879607558706685
Ni 8.819469177712495 7.039978612219597 9.901191312247471 0.5151788824053901 0.3604025858610374 0.10478299534536148
Ni 0.18875377457787415 6.774686015604846 3.896922628865948 -0.06048211654545712 -0.16763412634362743 0.2097557381040258
Ni 6.691126812747065 0.924997226652156 9.47611929377268 -0.7847428509163 -0.1512852526719588 -1.0533375135354053
Ni 3.8421488397170984 2.1313709461375097 9.285001003068713 -0.004343364570360261 -1.9849397201418266 -0.39460802809815265
Ni 6.504521756309625 2.921719491456592 3.9607423361517062 -0.1569607057901813 0.17608328555224514 -0.42334961900721924
Ni 3.796812739297143 3.719357007364132 4.69092029033732 0.4416335049180717 2.119987685019317 -1.292266787879594
Ni 8.36480227153966 4.482364966689402 4.579304570829453 1.687321930817494 1.411465444429653 -3.2041406412736815
Ni 3.236052874940324 8.109215953421355 2.8177595064956362 -0.7880055808279719 1.6983324229953847 0.5973096875688745
Ni 7.662597478559027 6.808889533245478 2.033983074937127 0.7847634197415905 -0.9200255575124154 1.110729678301629
Ni 0.18677639818570654 8.827267542687697 2.761842821577263 -1.4591946321848162 0.17546493524195586 -2.2098012035390395
Ni 5.908308042635628 5.012135128900119 5.860959371302239 -1.1026762118695332 -0.8638603231747575 -0.752371119453814
Ni 3.6266472289772564 1.4859219495559566 4.816146101687297 0.7359795654696679 -1.6327574653080528 -1.3638100473352188
Ni 7.621957068213213 2.2424652310276763 11.202731943407017 1.2430491885043624 -0.032837615355311184 0.7560632235934205
Ni 7.668645379187063 3.6584797472905124 6.370563998999295 0.1189258625046468 -1.8639379489447574 3.046891200598488
Ni 2.8858396031977747 3.8999141631735363 2.311395553269866 -1.267068434237095 -0.4659507415071975 1.2825007096317655
Ni 5.8212849579480075 3.5596201893982538 9.906843737597073 0.4777274224271514 -0.6517157731235809 -0.4549204518349649
Ni 0.08890228688888893 5.165731429076736 8.126226021252059 -0.476612849206734 0.027250351075520814 -1.3447178065904581
Ni 2.880560425007913 5.286207832399062 6.897925188846532 -0.221556844504012 -1.2679464659666744 0.3535526528187395
Ni 5.519019590571977 8.73553024449369 4.536347805281385 -0.4151298022005883 -0.7205629738042816 1.5920234779238
Ni 5.241195892043396 1.4895618039921246 7.409250643399161 -0.0028282134774144842 -1.9362756792772202 1.577413184209793
Ni 3.691321792661128 3.903266904409905 10.85465442340233 -0.9848276415894652 0.674506031545219 0.673606402549085
P 5.330719640084109 2.708561094895759 5.804704633745392 0.55781111525362 1.6080195962417403 -0.28645328806708087
P 1.4969248683095637 7.281459336683234 11.04757597023536 0.3464720918228743 0.4005909851544649 1.216843219532956
P 3.6708719234625047 5.899981759841442 3.5627941795134572 -0.7023582778707969 -0.7849631944572223 -0.5130358679204583
P 6.905868962764856 6.304746539545899 4.354189298754389 0.42660232161656203 0.8051571529065938 -0.8606171336471113
P 3.342914555562479 5.15278354993739 9.070051390609777 0.5493347023514927 -0.1688911386791801 0.2701946601163734
P 4.827150872784129 3.0655261576916577 2.3963606846350527 0.36831361317799793 -0.8741776459403654 0.617469450346201
P 4.85264837726955 8.496346425628449 6.712025875177633 0.5249732427879926 -0.46400210242125894 -0.8157650103294274
P 8.14270631892055 1.2448950491823259 7.778677345237971 -0.5753681503007769 -0.8143218501249975 -1.8319125450780969
Ni 3.9642830902253627 6.792570389437519 10.53332288721639 -1.182802327898163 -1.30200047022759 -0.5337389047957646
Ni 0.1338669924923296 0.7994426243798285 9.396426857396069 0.7665353267693379 -0.03775227904810917 1.0464821811764686
Ni 2.6154438009994907 5.061546384414004 12.889559039093653 0.05483905932706685 -1.0850073338348603 0.2066650149938441
Ni 0.7860214715466196 4.772256681325686 1.2686772838418483 -0.6504603034499249 -0.30245609125324036 0.3375611624864896
Ni 6.70360234436416 8.924033952736254 1.714887317023171 0.19837474996059382 1.370424467327943 -0.3219800202187809
Ni 2.714025507408072 0.09373690270486784 6.38031010287507 0.21166709619412577 -0.9399045558245297 0.8036779972579061
Ni 4.628542632251846 8.687350797224106 8.816035859545861 0.1451562569560855 0.03543905753390025 0.18127459994519746
Ni 1.953740492622836 1.816204008202746 11.008929607370733 0.24262497802822086 0.5897537295984876 0.04217689047836608
Ni 5.739735547488824 3.3776922996027103 12.192321304469553 -0.2633231298075207 -1.8860453223667581 1.7394929563940944
Ni 6.025663247624649 4.966187755216073 2.413047518573078 -0.2413659088101391 -1.203536732232037 -0.17470440292684752
Ni 5.298692625732279 7.1170360903593375 2.7583187385926267 0.6446406114443544 0.3545777516491442 0.13830555258283922
Ni 4.938513747441849 6.254020120342611 7.92725842613422 0.8854462768756491 1.0820721624659364 -0.21789559360234084
Ni 6.739139549126442 2.2683054190096326 0.7868253885060583 0.7302524331779036 0.6940471869019401 1.0809262217869513
Ni 8.420196595668719 7.929946176152988 13.547391876302687 -0.39219067690591164 0.8483277747567971 -0.26943258513936824
Ni 0.9204756568411199 0.6596999991793437 0.6573132549345587 -0.9857560669410056 0.5758718294100728 -0.1985639831532645
Ni 2.466700640071097 7.146016000106843 8.597142608361937 -0.8662499064528565 0.5128276085643942 -0.21787990987305703
Ni 7.049758984445026 1.1995219018978798 5.847946660150035 0.08319884141668253 0.7792558596597998 -0.1379977915344333
Ni 7.899002782587498 4.743832474545535 10.818122510328486 0.037981364339779757 -0.19781887745712382 -0.48210112601481486
Ni 7.908894295406397 8.417760764328486 5.029875019961279 -1.010200573136615 -1.5726430165146592 -2.4289990608925716
Ni 8.959126595124653 2.0104685038735464 2.1416403369742096 -0.8600021257709318 0.15920116508492582 0.8536227046071492
Ni 2.3466873225549003 1.239291710928174 2.7773367464787015 -0.9655556807337307 0.4496944275493352 -0.016700600584132527
Ni 8.087700986868636 3.0810302704808317 8.748041896803663 1.0158420876931085 -0.17907039320502707 1.4994506514913852
Ni 4.336631863500842 6.680448054057747 5.381842460737443 -0.5789998335160931 0.6495501329308297 0.9897996408827601
Ni 0.1292064969394549 9.000832102824564 6.496087111436807 1.0090656882012234 1.4478067020628484 0.18270516174413695
P 2.074198372512916 2.7544065897024557 13.05612915121476 -1.7557256162028732 0.4781609104201442 -0.4540295645895794
P 5.013765190937691 1.4397893415494605 10.885344045946063 0.8129262553290516 -0.4490326255956202 1.3036400627135418
P 0.12529897890734476 7.4182734072457635 7.794375027894106 -0.8798590125958589 -1.6303041186715537 0.9519763993873993
P 1.0265315681606113 3.1340258101341485 3.5082065508586715 0.7460004400407797 0.3328102780650656 -0.2853780527250311
P 8.066788031863886 0.9845852558415146 13.122428219906528 -0.1255446533727451 -0.38701710312477217 0.1694380123215856
P 1.0808237480710872 3.7999987696433055 6.432796248141646 0.0632913038594781 0.658910233989491 0.5026714939669987
P 4.295667293090738 8.798519175843253 0.8369479438181554 0.16069034803594262 -0.6500273296775644 0.9876394000066474
P 2.352438848267013 0.08619045640820189 8.764389751931601 -0.5672228954858232 1.523551401194331 -0.5941641999613574
Ni 1.975857470723521 3.3966510325056007 8.934280189282648 -0.8055284202030837 -0.21076283921230154 -1.425593399190603
Ni 3.185150483130707 8.97461218448158 10.73214044253304 -1.0380667034192639 0.6992809244970537 0.7095761357754747
Ni 7.681797016081105 6.333633832132179 6.417113384231307 1.3173206455244282 -0.05555151201305916 0.7605585403606127
Ni 5.361672295365721 8.362431272212282 11.573283943754719 -0.8864904018694475 0.37648046525950646 0.3443933549169746
Ni 9.072795637096892 2.9763265697152343 13.508962237595329 0.6652577734740737 -0.2864700002376292 -0.952271819140631
Ni 2.718600795172619 6.142703554265503 1.6474759162250818 -0.1263329536019953 0.607836041021495 -1.124731906117992
Ni 1.143997913743103 1.7631992068333067 7.205851317116675 -1.0168856984662744 0.03048042797704428 0.7455345561479547
Ni 3.948797500868434 2.852108433079393 0.4083055337781136 1.0391005440004168 0.5097520549628639 0.0214046909280212
Ni 2.8915540820453973 0.7002514970503821 13.06285223094813 0.3175944895565756 -0.5688560602138719 -0.4333476107601956
Ni 1.6140207452471529 7.077988695186604 6.275296134619367 -0.3197681001691267 0.8343661703703823 -0.7152348767231489
Ni 6.391797409381888 7.170587332980008 9.798400155861183 0.4469204643486238 -0.6037747264679278 -0.13348884792048624
Ni 7.113211001600718 8.467292422151962 7.410660276593015 -0.8204719288867934 0.33355332687867717 0.678912902363663
Ni 7.5244497208748475 4.812285818407411 0.35306310179346256 -0.9928469123495158 0.3032842435814906 -0.9315410143511828
Ni 5.279502349926324 1.0190573632497015 13.132147464805549 0.34660656051820954 -0.5884879755121865 -1.0735219589030802
Ni 5.507646203173467 5.514379470794572 11.691826500750654 0.4842811643852692 1.2681320996149192 -0.03311272339356878
Ni 4.727226217537775 3.8960798126987943 7.80563912704237 1.2374153872573526 0.27238318312725995 0.05437986030246118
Ni 9.217167268015436 1.292704027807006 4.524120487656374 0.21123772196619106 0.7503368626326046 0.07334046056536402
Ni 1.565341165306951 7.799254099947473 13.475331094011072 1.4414931011399947 -0.3901659331663991 -1.7428441322545143
Ni 6.0813817318179995 7.0550844712155 0.15706018200645683 -0.33585600686992484 -0.09081547742167585 0.6399272651290849
Ni 1.3305288764515615 5.283151466078615 10.07315544783836 0.3728747501861191 0.6744844342786642 2.218315668767954
Ni 0.2599782239036233 5.607533811555331 12.516187772358242 0.21767962093679286 0.37345273417677616 -0.23926248931389113
Ni 1.869366258746269 5.30812105274505 4.745711676746803 -0.31190386692970157 -1.6412359350927088 -0.8283652155919411
Ni 0.44940439907199564 0.10814442830512991 11.865945837683261 0.8302115247720606 -0.6023346515872917 -0.6820805014583672
Ni 3.225513041992845 2.6092477129134943 6.717217067064331 -1.6803485848234543 0.5890379344783856 0.8779849355015976
P 8.061981201196273 4.06292036693068 2.27369759013619 0.3026260411722014 -0.4873829432390445 0.5248842826186121
P 7.4676754010435245 6.406764342635952 12.21865884660729 0.5226394524484934 0.851178613942031 -1.2440724875625544
P 1.52919268728058 8.915791025387172 4.262988253923879 1.4589393216409006 -0.07956021622283072 2.1290731922603525
P 6.953613109376678 4.858168360078598 8.616811714891426 -0.5764711535569684 2.0207677855840296 -1.074687182855775
P 0.41716529142095926 3.2157326697674167 10.508136576392685 -1.1161189676380006 0.13677471776060962 -0.13003354238203413
P 0.566314115515521 6.937794098239339 1.4560593982619705 -0.557391254107382 -0.38663529430532123 1.933798678491637
P 4.807164089391634 4.99159264254027 0.20441070568307024 -0.0018085139636484981 0.37190955805937237 -0.3803672019084223
P 6.963023012957205 0.8192404687634235 3.656002238227727 1.5209036791588388 -0.8292162507383268 -0.97057318855298
