# total energy = -381168.56799638696 ev
CRYSTAL
PRIMVEC
9.26500332990967 0.00000000000000 0.00000000000000
0.00000000000000 9.26500332990967 0.00000000000000
0.00000000000000 0.00000000000000 13.56026889420881
PRIMCOORD
 96 1
Ni 7.486993634394588 8.983236088852758 11.12382802677917 -1.1383335560618266 -2.3602194802250125 0.7745283722771436
Ni 0.43997277409889995 -0.0011970384355827178 9.868567383510342 0.8485933697133579 1.0304415827738382 0.07941623444579872
Ni 4.189514079495685 0.08773865542666238 5.94849720556089 -0.22461234350088416 -0.08446151017919003 0.9496786044921581
Ni 3.303705637164473 3.5105190424204906 4.242357026224369 -0.47429628525841533 0.8121204715983045 0.08648188304332848
Ni 4.119896844163111 6.333741604745028 2.04647525417889 0.19246121268963629 0.7599080512608075 -0.7614465993925208
Ni 7.849792636411214 5.299470748390772 0.4542390262901559 -0.6573241204492938 -0.16128221598367062 -1.400936262763555
Ni 7.566756048418827 4.2998602696488595 11.528968094203018 -0.044912030021342 -1.133261797965874 -0.7205372627726688
Ni 1.2484684692972665 2.426272757880993 9.26800986497728 -0.2808835072887872 -0.47466652411364063 0.2717864300835255
Ni 5.335242926407683 9.05472485486635 13.121974243871914 1.9858326642697413 -1.6859163087192193 0.1658351254616757
Ni 8.290436196754204 1.7361967767736244 11.06040629920104 -0.17880042737309207 2.463896129880073 -1.2750265127419074
Ni 3.64132236001768 3.452696156379688 11.414586995081606 -1.236935619407457 0.8156966189853372 -0.5827428454982931
Ni 6.023817976968886 8.621030047051901 7.995636760481507 -2.3345956090093214 0.7601808453062198 -1.874411851892888
Ni 4.216604949353609 7.819199595278906 4.004184364057231 0.7083880290046445 -0.252062726402353 0.7025968762441642
Ni 9.09779785553991 4.908126270986914 2.2793863209314194 1.604259872088992 0.5924153355910506 1.3747246373651936
Ni 3.7729687929216644 6.773217774663221 11.466943529133292 0.775603093398561 0.6198837162146486 0.5549844444381022
Ni 1.2576408226349358 2.6883333782405683 2.9792183505888548 -2.9256791131628264 0.22986613570065573 0.7654971153128106
Ni 3.3876650977159484 5.225119096335421 13.437534699699205 -0.4454114839032651 0.02938153848591069 -0.5080235023075316
Ni 8.528046473216698 0.047936200943199885 5.5351390801466245 1.4107751032308478 1.9207423595283113 -2.359160442832879
Ni 2.7402822521439143 9.012819244617585 10.798380885854277 -1.6498177632244488 0.29914065372676224 0.37760763688541416
Ni 1.044990465254947 0.0608358651371768 7.207743653280085 0.8994901565632251 0.08849402837735082 -0.7050077996785019
Ni 7.560474376133029 1.0608984760436122 13.176336651153505 -0.554433971251271 -0.49832144452841914 1.0321778487386546
Ni 4.00489035731413 9.189891989051462 2.1020995549196635 2.2728595654521047 -1.4963535006233006 -1.2377573439778038
Ni 0.5793981038334982 9.252606796872355 3.554173885305774 -1.0829620212700575 -0.3370757382096388 0.33773625461177315
Ni 2.5021531354926214 0.19266389210724072 13.20292906383005 1.6316017544370547 0.6389551310238029 -0.6658540122971759
P 3.3656699797122847 1.8247516789973055 9.598378575693053 -0.008091775869198967 -0.5660599855259735 0.9856115709433413
Ni 5.048843142191482 4.971387714006719 3.712489630414286 -1.1760732367044455 -0.03006930858155466 1.978266164776393
P 0.5765796898079234 6.52873286569916 3.8496922858400895 0.9079205467187654 -0.0013387734160815654 -2.185694797409139
Ni 6.914481281066703 3.533301685710722 5.676463735572356 -2.2524938573115594 -0.037297450898877704 0.9923290921728328
P 8.766027349814049 6.100282049792912 7.107682543369483 -0.1794051508366265 -2.106697909888946 1.9663259616953814
P 3.0669014159952885 2.6883611732506827 2.1649644557951735 3.855505715926063 -0.982499764787237 -0.8434683897819667
P 1.636014295318857 7.070448347820569 11.14637811848478 -0.8183908779880485 1.1890817331489714 0.31602817351072027
Ni 6.995513000552821 6.435489871769559 11.594857092178946 0.5386815935130206 1.5151364376577583 -0.2035570654924817
Ni 2.41071681722044 4.73602883336347 2.077324935904585 0.670701055976832 0.4303684735272137 2.0106875185298922
Ni 7.769576237221778 7.966401968843444 13.449698722625493 -0.9857591522647992 -0.38537005443965244 -0.875938337385214
Ni 5.689759015410291 6.182823964828566 13.413424381425854 -0.825449841717359 -0.05832418966218988 0.4384926452962449
Ni 8.356810680906792 3.585667484765781 4.1747048981068655 1.2501814286737694 -0.6637945586649858 -2.357861007295165
Ni 3.343369116597365 7.188771705876504 6.962763993135992 -0.5146824023849459 -0.8687976125753746 -0.32388983564698415
Ni 8.839156021424376 2.8899861766187254 12.979496095526443 0.7155945740554128 2.001417663192192 1.15170483516241
Ni 0.8585674794186702 1.7814470532394602 5.139016640504145 0.11360367896078499 0.21149611783390027 1.064541609781341
Ni 3.1723556843683727 5.924506405831028 4.925483328302864 -0.805407321244187 -0.6817508860330904 -0.20193315673581352
Ni -0.10665223330900418 3.4354354550988004 6.74744068228336 -0.3148629495580255 0.3348350218045782 -0.5021151072428965
Ni 5.686701564297735 2.8022465946917254 10.325439523758645 0.24116022055723627 -0.6589611418320845 0.050108486620616934
Ni 8.54680810504375 1.382403358033983 7.575959902767959 0.19891288185225095 0.5104735065099208 0.821948770542636
Ni 1.2056085637012472 4.24628075515215 4.896871144891357 -0.3100344178211306 1.2140093496285866 -0.145919103264039
Ni 3.2639124476843824 3.759923668174757 8.525544922306425 0.9072937117680439 0.5521585449535329 0.09749674609659338
Ni 4.887733998566499 0.38425674982474955 10.663172059153993 1.3088802280665588 -0.0006178360896570004 -0.7725401382025211
Ni 3.192599716734845 1.1795924342344033 3.9555301253527486 0.19957082715122404 -0.2497500191087763 0.46489350388727674
Ni 4.450601874501265 2.401164598744544 5.982627624980391 0.7973741665270655 2.353034275330483 -2.1133730079162762
Ni 6.659730748367148 5.5107406202684235 2.5363122764225747 2.2979501898721457 0.896728791768004 -0.9928366279368709
Ni 2.335355279797609 5.482936345150903 9.957671700433949 0.2833201417547379 -0.21676302265979447 -1.232001672440949
Ni 0.3971202805055781 8.866219096272188 12.193054814353319 -0.10498585538478693 -1.0881037133719969 0.7574827296487665
Ni 1.1286627107019094 1.7004060687499707 11.731436212877856 2.4167762935741344 0.27667923939945255 -0.4804419931448371
Ni 3.64949409299124 8.57011885352615 8.69384092904659 -0.07864310372520003 0.6929889208407549 0.380746439624712
Ni 1.5977868914085296 7.537145097643886 0.4304112906196324 1.066563525307376 -0.01925781978834748 1.154979906369256
Ni 7.040022076748946 0.9982763182564327 9.302045781362393 -1.1838523664292322 1.4830097323265428 -0.767395360776788
Ni 1.0463987457673973 7.470381483349699 8.435327878477917 0.6385674086670808 -1.5423942449324468 0.6405625847202386
P 0.11310530815717262 0.6632695468529453 1.0729151854162964 -0.1408992814519444 0.03991046304169255 -1.7174028093632745
Ni 2.136945232599436 7.683504355901628 2.77738673764563 0.01624088733889461 -1.3741798206053173 0.5227237846321837
P 3.946743196155329 7.671876776670542 0.13614551854112852 -1.4071894427621185 -1.3262549718995804 0.9334073781359602
Ni 5.774255846157307 7.4492758056696875 9.849365664023152 0.710514588429344 1.0421992375303986 2.2625669252768454
P 1.200327511779559 4.600222413945733 0.46377364125964643 -2.078962648757207 0.5585793608782121 -2.4207111098521668
P 2.2188571274058355 8.890372960061383 5.168360759181989 -0.6094357814084472 0.12399582082838645 0.31388181659167874
P 5.576883479336729 3.966931638501573 12.536170316707441 -0.6401146985495426 0.019160374978534744 0.03743809024180004
Ni 7.67937216439799 7.799214983006833 6.645575676216349 -0.575008452968513 -2.324094195257365 0.6714962981846178
Ni 5.551877235237365 1.6073946999046542 1.348023710023791 0.4139545509455645 -0.7349914905247859 -1.1794485809345814
Ni 5.77341273085051 0.44000427511036266 3.747569712679354 -0.4308412993985742 -0.23523639887363357 0.0085651159611917
Ni 0.265324681047314 6.312348711960504 12.737594269502326 -0.38064770926331865 -1.2911928380891247 -1.0466379900280427
Ni 4.687637720754735 1.5048033175733273 7.896348351852079 0.7256956670451566 -1.5607624630269894 3.005548118875327
Ni 5.201567457765364 2.6676446257122692 3.2925820741167904 0.6541341527570863 0.2472087407441613 0.8431647424986188
Ni 7.3480741738440685 7.8278901684412645 3.7570218691188395 0.14405531058242288 -0.43256496695790025 1.0760557810685274
Ni 8.279068037617515 5.858168981691925 4.967546443608943 -1.7872344854444315 -1.0237562003338625 0.8019939246872639
Ni 7.070503937840797 5.798094699831876 8.605536181913935 0.08524389687116932 -0.17646200904790255 -0.4243850022502691
Ni 6.0462114901175195 7.749675009980047 1.720662145620826 -0.17030421697662285 0.2175132705622576 -0.01770770169240821
Ni 8.61593429519764 7.283775050446668 1.8435049723213224 1.2023784502578776 -0.38958897761700645 1.0537080095009466
Ni 6.111742858963313 3.34098801073092 7.817631030208132 -0.14734632262886882 0.4250190362898423 0.13791217379916249
Ni 2.0252185569439254 0.6342070842775901 1.9091641982136414 -1.132951980034939 0.3599582992347672 -0.5987919285413558
Ni 7.7561234523265306 3.1705304787042103 1.6014947457577573 -1.000492858930548 -1.3025591709445374 0.4710613232608855
Ni 1.677299150341741 2.42531846253374 0.4729913931138356 -0.0423668950019851 0.6586405252678721 -0.649274767782256
Ni 5.19229318939061 4.035390748412724 1.2589082750961411 -0.18934529276847392 -0.10647400989453923 -0.6475716690482202
Ni 2.4692253135107256 1.9188377882337027 7.164514074049548 -0.699883333967743 0.18719276520184533 -0.34758820770518845
Ni 5.489746122628869 6.156983870425778 6.03229916105505 0.24349452511736772 0.2903053148233194 -0.013136280271641891
Ni 4.79182268366594 1.7309064598485644 12.502798701064055 -0.08666057471303784 2.6434092670494733 0.20563168863332326
Ni 8.960907430727724 6.410983937852251 10.27449404972042 0.41975521678774164 0.4096289269870171 0.3231079631756371
Ni 9.315590289791018 4.512417976995135 8.844223978268523 -0.21784699975259258 0.33836154690059794 1.0053977524313331
Ni 7.599998880515351 0.2774599824631518 2.0457294214074935 -0.4733920282765912 1.0207402963256744 0.5242492201377745
Ni 8.039160040318917 8.296893904104056 8.820100688990452 0.6029753704950841 -1.7463572876140956 0.4519186888941636
Ni 6.63295488862385 1.0594994605345334 6.3000327429789245 -1.386171702859871 1.0044736979551667 -0.42781176854363095
Ni 1.5262147403645938 5.247410694446969 7.2322069681818855 0.2565282183728743 1.5147122056361464 0.758059685198159
P 2.9401005798545374 4.128995077473809 6.3495551124993055 1.5196430672788603 -1.566740277876979 -1.1361332059763982
Ni 5.262253229847925 5.118200957429658 10.35858136731842 -0.179810099584529 0.0011989054041076125 -0.09608726734357645
P 4.469928671533971 6.392731881210626 8.73495530800744 -1.3198290137685786 -0.8004767167117892 -1.3524288020814708
Ni 0.8765313944554453 7.237496358606609 5.898934070025675 1.011120513847723 0.7807784669519133 -0.8246036916669798
P 7.546623196092811 1.6085342953193342 4.04386174099518 0.6727003457950479 -0.04119087241601293 0.3033881161492065
P 7.63462219811421 3.3226618340623237 9.26937923247557 -0.08967339339743266 -0.8487517496680931 0.9632432305504702
P 6.012171867731058 8.31487727564791 5.521768753781382 -0.9664298558085678 -0.9236271588207446 -0.9988290980748799
Ni 0.9740483344402655 4.049093688399 11.23923939427548 -0.47688898568625615 0.2412052148625588 0.5686424015411691
