# total energy = -381174.19729536877 ev
CRYSTAL
PRIMVEC
9.24050884504168 0.00000000000000 0.00000000000000

0.00000000000000 9.24050884504168 0.00000000000000

0.00000000000000 0.00000000000000 13.52441873966204

PRIMCOORD
 96 1
Ni 6.108355188741828 0.44223134690176186 13.082752116960963 0.7496344372489413 -0.10457396465834895 -2.164890459069278
Ni 0.2753043272795833 6.447934647249052 4.470888975765578 -0.3349072698034103 0.34096170352760635 0.6495437051729265
Ni 2.2048962897854523 6.004713641853014 11.341415192477243 -0.5195327884987118 -0.8714450775005508 0.29212565586150974
Ni 1.861334171978204 1.2267884315310889 12.88168418941349 -0.42610789847864683 1.078665964997865 0.5112291537290228
Ni 7.420821618021944 8.777781097254772 1.3367255370767632 -0.7789514410455036 -0.5297094719213974 -0.4269867015391743
Ni 2.7526089688814452 9.09659713245073 1.0519265869879562 0.014784100287710022 -0.6524192269485086 0.5907556885004406
Ni 4.773323436931178 8.791105910968545 5.0703586687951425 -0.229662761440598 0.6320077531716921 1.4625087841597135
Ni 2.510267384653019 7.52573835512747 5.063164008630411 0.5528046631779642 0.028629747921550694 -0.07245522974693328
Ni 3.7861968420716536 6.991082514989564 9.976125394546102 0.524714075589335 0.7728730960619077 0.2604761472770288
Ni 4.585389968615852 6.1342932969904815 12.28470296540828 0.8893492114744812 -0.5107619842846172 -1.897062499412868
Ni 5.150169867496406 0.7109638243108634 1.4879566284227883 0.22727703481724085 1.0956010501903066 0.8905877118672726
Ni 7.727236890385805 4.142778836801721 1.388633171304048 0.34707347285229906 -0.8120901325810014 -1.279266518965184
Ni 2.630070581462351 6.699461297241341 0.11211786562643047 -1.4015854663117797 -0.6088811944565579 0.37003702362700785
Ni 0.35814271666921854 2.800659614728613 11.216111120769291 -0.5345472596296729 -0.9425952152828153 2.837192798094959
Ni 6.027121875733664 6.673523188992687 8.661430154539383 0.09661357216069166 0.2820685287358239 0.0038193737460901966
Ni 4.485666397465345 8.407107326579142 2.858399858121038 -0.8413467154532734 -2.69806834915525 -0.2920392667952906
Ni 5.703546978497076 1.50442875943955 10.629395178008625 -0.6846017252183243 -0.0901801578305221 -0.09854164242133998
Ni 7.06305683816333 6.0405206135179705 10.859053239835163 -0.2860719934682621 -0.6347511202447842 0.48248242061363356
Ni 3.335703556236824 2.7638823896378963 11.126647286558038 0.41562268267660674 -0.30600318517455044 0.436141628565565
Ni -0.17511688258647554 7.275218920596209 11.233977644566503 1.1730897285960893 0.19958728221145625 -0.17777712831490028
Ni 6.683696989199942 7.273195249165338 3.326452882860363 0.1327823087717649 1.7201824289909409 1.3909354427971012
Ni 2.6832866717380894 2.7485061829668025 4.592054223574501 -0.6527655545443339 2.360722130893044 -0.10665758666025502
Ni 5.239738119457289 8.839045670709911 7.836697185676535 -1.3833018375112436 0.3973861050639221 0.3564785682162828
Ni 7.268611956792224 5.317570925220884 4.588239741534942 -1.3299504184732966 -0.48887469729322247 -1.2922025103005617
P 8.986154571072777 1.5845809329161522 6.208776418308 0.24954973017251214 -0.017816716466446735 1.025534118169892
Ni 3.867088256253597 6.845609184687264 7.496396043430722 -0.5623144024406121 0.01944191077469555 -0.8534231870018335
P 0.8986357862266748 1.0151345770831326 1.3630452783395492 -0.963195150921354 -0.259474702595708 -0.36378821450381865
Ni 1.5894599215714031 7.191573834786871 2.6198690597286447 0.1861067312265182 1.503459258430146 -0.003628597891522783
P 6.520075299581521 5.178750761266654 13.273296953067906 -0.1535398530340904 0.46436282819478736 0.18828008472875316
P 1.5636881424814513 6.584860506895846 6.744762891715521 0.7740632597152669 -1.1797144330014588 0.7800603578389662
P 7.4515832718729476 4.555958948034461 8.533272613708816 -1.0355735046837649 0.6016736209645251 -0.17562794318238142
Ni 8.849736939410906 8.705317027113718 3.0705166620607143 -0.21413432678769576 -0.034088971263909036 -1.011861762889122
Ni 8.857637574449239 2.896178754367492 8.594794997359942 -2.2435466754206006 -1.4675653727470144 0.024772321848673465
Ni 4.176035428033251 1.3875455634163147 3.6303732178436974 1.4603351735471626 0.057626906484849146 -0.9824750821968886
Ni 7.344605901301282 3.3891506592329814 10.371930577050684 -0.7636482350295299 0.4421179007536579 0.07014252245335663
Ni 5.317256747921114 4.753317735342885 7.10831315414431 1.8103312193628953 -0.21075332613060477 0.5824718512250936
Ni 4.3064652099818606 6.262764091069938 4.391283840410928 1.368500767942669 -0.4804301660702951 -0.30327498761010996
Ni 0.4378883077578832 3.020010813020933 0.2772938088278324 -0.014043622577259685 0.15736025522144514 -0.9622998928005942
Ni 1.4090851894681893 0.6046249728984364 10.669778973690523 0.6291034350407037 -0.8807529851650381 -0.249333500396648
Ni 0.5777369403434195 4.5600524934402875 7.675661914475923 1.3996399125496348 2.402600773404701 0.007885316285347709
Ni 4.246226333005382 3.9006128222408134 2.791737903466028 0.8572862695016655 -0.24477339182979133 1.7296312331086663
Ni 0.8812211233106032 5.316803962989093 1.4716323455470948 1.4362272247553654 -1.24010527538469 -1.76231329672272
Ni 3.137753376364127 4.5787183212501485 6.477425731137751 -1.3182580697370327 0.7205079521966301 -0.7867490827130516
Ni 7.902547823657433 5.614311384853595 6.665523680510015 0.4639684209698461 1.6080399079567143 1.1910895076076196
Ni 8.6285191583376 4.949595383119749 12.690800226632973 0.26156089570077534 0.553602476488911 -0.5000453691980614
Ni 5.697743938960147 3.1453490746115063 1.073525352296258 0.07697728598700292 -1.4234871514808773 -1.2121715250888996
Ni 3.174549082472477 2.3591203819372266 1.415249532899852 1.3232591224960502 -0.8422810543420849 -1.1115683721528407
Ni 3.5629923516027433 0.18227550476682183 11.796850302427279 1.9090263566429637 -1.050707532111726 -0.4925878844787517
Ni 6.067207202980782 2.10841613722963 8.029339617284883 0.03243703748278285 0.5005367070121832 0.46326676691713115
Ni 8.690144111636593 0.4096465406612105 12.745723038887167 0.19952043352926283 0.43937941877657233 -0.058160410390815966
Ni 2.3995660890281982 5.5081379385489875 8.913957551636528 0.017924188578588487 -1.5544102955567165 -0.24895837644541638
Ni 2.3915268463576145 4.9866313424573345 3.397036509457207 -1.9697732968140338 0.225559795015818 1.3106136658178977
Ni 3.3405178613303574 0.5292824842609594 9.22350443243839 0.9153870302991396 0.7276391639247726 1.0274580746654822
Ni 4.027965514753441 4.605682125977463 0.5156453413491805 -1.0365767491372986 0.4835573988453672 -0.32981982797817394
Ni 9.028014076012715 4.442725752993848 3.247090772887594 -0.5404821370568692 -0.4074941400322014 0.5954340678127165
Ni 5.059160096160108 4.919480564885918 9.936634232015903 -0.742367728384199 -1.3300154673832771 -1.0541929195571653
P 4.3848524462744605 1.7614442716689962 13.21830668509935 -0.23927225950590408 0.6638984312327018 -1.1693189486997475
Ni 5.782544088371582 2.0717497982447144 5.347582249755967 -1.2382147432301966 1.5618089020136328 -0.6217328536082454
P 8.704125001476356 1.1336903052022018 10.225731866806267 -2.627008714204263 -0.3042959726754566 -0.6416200794504756
Ni 6.06373277166568 7.129191159764903 6.158614316196202 -0.844970171138474 -0.4738429997710807 0.15639660575659514
P 2.049498653013949 4.50626349161791 13.148277489031512 -1.0001200489721613 0.024412881626725697 -0.493448175596518
P 4.856774472055363 4.215418476610295 5.038414229815593 0.2810855959972643 -0.7731975692808619 -0.576146423227698
P 2.82019405036725 0.7645938893815925 5.286519119393034 0.13632991691370713 -1.439389938754063 0.42230523690310495
Ni 1.3459909952673317 2.9625533291983004 2.384449540654856 -1.0940959263996899 0.5340093848483319 1.7154639404693486
Ni 0.6652537993469817 8.861426183064113 4.979785973525876 -0.3302821123265731 1.3107147101721364 1.774796002570763
Ni 3.8751829419770814 1.868976072769667 6.976774511137688 1.4772514896865268 -0.284530102902439 0.16341134651153147
Ni 6.6400448255495546 0.5752761928455155 3.5505250571071665 -0.0921470517489058 0.2553586235448054 0.28518624842919915
Ni 6.6048384869576875 3.207777952177557 3.2244247288109555 0.058114644754545065 -0.08780214451664879 1.3585788808432666
Ni 5.753233194404809 5.626786071756224 1.9716575307924191 -0.3139548359214593 0.011888266797153718 -0.6878202321556218
Ni 8.077840275911425 1.7935827613336977 1.858457601583546 0.12063256078310836 -0.3004956250927599 -0.6613484111173384
Ni -0.01748489078307894 8.006438864284299 7.112964826282668 -0.47327915684781074 -0.21535971455436462 0.38674482329999205
Ni 7.100360772256604 8.746428050839496 11.088521871230954 1.6367257059271814 0.6363593452721685 -0.7912593118785792
Ni 5.382420816096928 3.848246858776217 11.94795849500604 0.143615651941843 -0.9246936524120463 0.761349154582708
Ni 7.358263373332458 2.6383131153269037 12.584200792871913 0.5205676575211292 -0.3864370622515861 0.8734736778948053
Ni 1.8013632697574122 2.678453885626922 6.759369364002178 -2.3394287687319064 -1.0310164814407017 0.9730177934387308
Ni 8.373324026345056 6.573568605121761 8.900974636748977 0.9146370395069926 0.009066738187958579 0.3825534109264637
Ni 8.964014311947814 2.089805752472669 4.106541257425903 -0.1785793125012215 -0.1093616158549794 0.43219472810267506
Ni 1.8521398657055248 0.7343404635155104 3.329359946934116 0.10817428041509757 -0.2891298064579795 -0.9903670833504556
Ni 6.831073864318496 0.4089137683120412 6.312468787995306 1.8797777441904917 -0.8605227741610922 -0.2415731397249388
Ni 7.341057545915645 7.41723630060104 12.889812140968715 -0.8625513745553468 -1.207066085541534 1.5482980120113916
Ni 0.3538172344920918 7.549449500751285 0.36048703375603136 0.19704343274368002 0.6309050070258166 -0.3854057927735943
Ni 8.144907888903491 6.260620293024449 1.8080256766142984 -0.7055037654783141 2.428693356726695 0.25698304652210585
Ni 0.46404449201461256 4.224834555094576 5.447771542550838 1.1409062018850094 -0.08883624220811798 -0.9374013297867018
Ni 2.6174203248922026 9.03587774901578 7.23203432669195 0.09499891937540413 0.254400116286278 -2.3568009414617666
Ni 1.6897564042685487 2.718188073539003 9.4398958957567 2.402049271776605 0.4280616797709079 -1.7578210652793211
Ni 0.5536700351301602 0.844944733797755 8.285505002703186 0.39586375488212466 -1.149257659173498 -0.8047624885713366
Ni 4.583181487008646 7.744969426805173 0.22469868074458077 2.007852877294574 1.7148227073409241 1.5048034311628666
Ni 7.4296463039419525 8.920389869823877 8.539128324145999 0.73497992056056 0.5668138329728626 1.0731506916065905
P 7.884806046729247 7.800384758179301 5.4265377773407995 0.2586825457117158 -0.2729259430046074 -1.7990127090262822
Ni 7.667681811061768 3.374116351388108 6.1382870449010865 -0.9933876153443342 -1.391992423306706 0.5827929820099382
P 3.9723376516765274 2.909910150469202 8.910955310321961 0.32094875074078916 0.22425778837494278 0.7126349772064565
Ni 0.4381618268188594 4.740094567226098 10.251523050964735 -0.4357387367001915 1.7561364784880467 -0.8393649091365544
P 1.8016682065483653 8.088060278662766 11.878604780132706 -0.330271827913928 -0.4500880634433281 1.1228300611095887
P 3.5091848687627327 6.335144996631643 2.178499852299487 1.5287622559713092 0.5042010432376478 -0.38490854142220166
P 5.327144092355051 8.389781372547713 10.159665000919057 -0.8153700888838538 1.1440807429582491 -1.2124648879596023
Ni 1.7162027405021243 7.746494110759939 8.755438470986721 -0.9789873807586044 -0.561575981612691 1.6048190870265717
