# total energy = -340862.88108682446 ev
CRYSTAL
PRIMVEC
9.34482904735944 0.00000000000000 0.00000000000000

0.00000000000000 9.34482904735944 0.00000000000000

0.00000000000000 0.00000000000000 13.67710190060609

PRIMCOORD
 96 1
Ni 3.9152311345030633 2.792823696398071 9.980578514825067 0.505269079490846 0.502585876231728 1.0478420376384727
Ni 3.4973116819434806 3.8100363919275253 5.575169970270097 -0.24546064770480308 0.9735350993947816 -0.43427500767047145
Ni 1.4190683866528324 2.8353987383430077 11.322725874202757 2.4662959975708167 1.302544258546202 2.4538775693018064
Ni 7.412570850934217 5.578274322538339 2.8559153109044892 -0.028924910564466312 -1.084060653650875 -0.787591890329321
Ni -0.11757196888284041 0.9265968210264127 3.2132980252675187 1.7310993330137605 -1.9239140723880737 -0.04595641212545634
Ni 3.983588560277254 2.816671700577939 3.3531471325376585 0.14276461679545735 0.1100182756023718 -0.5845734709491287
Ni 1.7963845562337606 6.5733491176359315 0.2453793292148224 0.3671797566838709 0.7011292905597022 0.0004563708111282463
Ni 5.804017362104589 8.478208451502885 11.840814420181164 0.41834548092440854 -0.42376793749156044 -0.274112764223857
Ni 1.0177173163075548 9.302936354674612 8.577676682729903 -1.4765130688586054 1.51109312082632 2.1673741447230803
Ni 3.7212885487863785 8.361435465518703 5.16350314294435 -1.0674775524812132 -0.20023057222241 1.282841637910952
Ni 3.684703542374081 2.685386194808752 7.656852162715208 1.4888574493565714 -0.5712947515623517 0.34751338860319503
Ni 1.138957130660849 0.4764891042044652 6.216748565478958 -2.8281247743554196 -0.4807996335945719 -0.6553898795410584
Ni 1.8551261527363665 1.1270985423754836 12.906670689753676 0.05759579613659758 -0.909437497583924 0.5782328734430816
Ni 2.955208793825017 -0.25237393388905094 7.3563934755707 3.5857162616679084 0.443023700397379 1.3127672218257909
Ni 7.801007367291808 8.733696082489402 1.4883556229348196 -0.19844828351100663 -1.6081103561833336 0.15539181864116464
Ni 6.545137078208415 5.492516824748899 12.139249017315734 -0.9518933527552897 -1.2246884266089875 0.564973180219698
Ni 0.21327236496670707 2.0265290103645555 9.81623380670983 -1.3049173867640687 -0.14801815188491282 -3.6436398734575697
Ni 1.8156722837522745 7.8056330577577295 11.599167415758442 -0.6029524876769486 0.4416383900140782 0.17127120887558245
Ni 8.447996618621413 8.286910452456617 7.374926140887907 0.8746360736340227 -2.785798759893699 2.095685617938843
Ni 2.644371739344238 6.2212920214477085 5.809226169914093 0.7765600579951916 0.12856595669757212 -0.7643964260494642
Ni 8.97064357229533 1.0560498057847563 13.46622878437981 -2.116982836754722 -1.1558939335430933 -0.24947851061494458
Ni 7.373032878487108 1.5071901262359655 1.9255581305983038 0.10110888892788393 1.1501256636007482 -0.3525854038094638
Ni 3.6662475046565106 8.194265815529027 0.07177015740682675 0.13773296790882086 0.5450183343643258 -0.17350061242673345
Ni 6.387116016029118 7.700447660011416 6.02291718323004 1.2338914332644941 -1.9306953569759653 -0.5405271313621917
P 0.13638030666215867 4.3354961391978915 10.284415357734083 0.8538379059417488 0.3093990982299768 1.7427741982485274
P 1.98690693445443 2.2307789427154074 4.046356843692519 -1.4894935402786733 0.5840263401964071 -0.9404311177519609
P 1.5317296477784157 8.713735527266754 3.9631729118713928 -0.3369574674642197 -0.15936160192219007 0.24255041603654354
P 7.457715720915777 7.391002985085026 3.791360750723189 -0.808736128507104 1.1257858013038031 0.32041036173881593
P 9.185172816792678 2.0750380188667865 7.2536919334321475 -1.9798594774054417 -1.0318562037331778 2.43577520327414
P 2.037518529532081 0.3808877633103739 10.60287218596418 0.9801101815091379 0.3335795521309223 -0.15302666084309774
P 2.124369372340738 3.157029070577606 9.21749190866418 -1.3783743183026391 1.1746442175674028 -1.2546140105238266
P 1.4109290403986534 8.634453996129606 0.693476973270669 1.0678200234222965 1.324274708244758 -0.7513002549871384
Ni 1.5743420690402488 3.1010722331837783 7.078966989014797 -0.03667858636795619 0.7059570509656486 -0.4688537740866054
Ni 6.178548772576739 3.44930729421935 2.369530967034639 -0.9632437447711023 0.074664064472794 1.1611801216426971
Ni 1.9709740006273628 7.212124264077568 9.224439789192289 0.7823496680937753 -0.7952442646682562 -0.5313868596238204
Ni 2.0698983627935394 4.448166745152699 13.392194374851988 -1.4161772480830255 -1.7153230440161102 -1.7654289595335662
Ni 3.2347967393804513 5.140478418219124 8.436994016692974 -0.7708439814470209 -0.7531036267444643 0.6439788094906393
Ni 7.740658460162658 7.975774363440667 9.730287543370064 -1.9640783033117855 2.428839909606888 0.8040361519282734
Ni 5.696458377735357 4.852143712509944 4.9909798402921925 0.831282389238736 -0.3180104940480717 -0.2744518927308306
Ni 5.734389039555922 3.3015748890157712 13.11319515353767 -0.803283847143281 -0.8323041456350312 0.8024261271286761
Ni 8.780822056266468 8.316580285243091 5.166607495212592 0.5817758535993335 0.1921305688230949 -1.8649180534698397
Ni 2.923651305535278 7.701886763711925 2.453056919605366 -0.3350795337152165 -0.921024173980259 -0.5030692436260497
Ni 5.154972248345682 1.1397981652910167 8.890663047932222 -0.07501090628925147 -1.719707289126735 -0.9083440074094292
Ni 3.8159983929724923 1.0576664612405233 1.1144166746354762 -1.4862086988798147 0.6130430391437313 -0.24939957774789304
Ni 9.121712081531909 7.831013613930348 13.059772633829414 1.2572799873917637 1.341454048237522 0.8307177749845178
Ni 3.9375372418609573 8.47872241711021 9.691895246985828 0.39711536790103863 0.3042610056724631 0.5769594060472967
Ni 6.44109174962744 6.102977138641554 7.9694563244022625 -1.366897170900975 -0.2502665537338787 0.7410078719221949
Ni 7.568863119707058 3.68614264607459 0.5199491014769229 2.1031135349717975 0.27853763276443 0.06015995731934801
Ni 7.544678701675123 0.9568357539126332 9.151786545423786 -0.060337877658108996 0.4367334965132931 0.25652359038718403
Ni 5.93805959249488 3.278913678147363 8.564327594183295 -1.8917675695625165 -0.17055695641737723 -0.7494909696925415
Ni 8.098219660763869 3.1112861315257043 11.668851807282453 -0.636572232613923 0.035909826522731704 0.11915546201694964
Ni 7.756684842281966 6.241271266328805 0.22714382946694062 0.2452819560350937 0.04998250256571392 2.4360616241663076
Ni 0.3659958434588701 7.73450956253321 2.2741193261737966 -0.1318014329157343 -1.3570321051814371 1.3664410572001628
Ni 7.832789131482924 4.128881965053346 9.08946027243082 0.809094283177471 0.9027382311868775 0.35457003833966033
Ni 9.267809141621273 9.363331985949882 10.97592898238477 -0.40140576774627645 -0.4462704894694508 0.6161561308514162
Ni 4.818558396278578 6.9247520757784695 3.8945005653523506 1.8904550213986793 0.28518830531172823 -0.8497565367835237
P 8.410047267142401 5.918052313126112 7.724006908968259 -0.5071565263215458 -0.3556005364867037 -0.3913039034255842
P 6.14397290444762 8.471648381387578 8.585172170250543 -2.6548972130844146 0.15695684913543936 -1.3749771196956322
P 5.976532254410444 5.151981902993974 0.9782503645625491 -0.8468586464104382 0.049639774514314505 0.06222429604754444
P 7.727557009590489 7.131926939676459 11.694838842871713 -0.23314814888603716 0.5463010577314914 -0.6262338268023924
P 3.8186056003260123 5.130694382021506 3.764416804621381 -0.9137800908233359 -0.8605178890650858 -0.3452695868743409
P 4.89279371963472 4.719839620355333 7.0855597660323895 0.24307646374334263 -0.18625276988607922 -0.015635135434095653
P 5.351886489755626 0.9433791998299491 2.5236711216371734 1.6090380102039257 0.7716849892910774 0.5667055895297725
P 1.427254457053132 7.7837661573733685 7.152604243300596 -0.6979028132026045 -2.3677178454845866 -1.130372135122905
Ni 0.31733638320613095 5.02047212132341 1.4138978926431458 -0.4545422425599398 0.22055257160921368 -2.9969552349999935
Ni 1.2393953551613273 4.293790166370795 4.97055951947172 0.06220244167067352 -0.3660106760764341 -0.004504829848889016
Ni 8.349801153134717 5.425785399259699 5.181296632269932 0.34688835342468644 1.080089841928585 -0.35468342398907304
Ni 7.084072069219915 0.8029217441773215 4.274477207813376 -1.161230515264658 -0.01090559116891025 0.21489074533774605
Ni 3.469155711491309 0.3850004226518942 3.398978847467189 -0.22395414109159495 1.4051477297417412 0.03356678021185187
Ni 3.0235101506238626 1.3794182762550347 5.702722216764261 2.2942223473985974 0.8809998110685214 -0.6755722680262043
Ni 0.9076137349406039 5.531643624710148 7.12566123168171 1.4543527307114825 0.07163453361785083 -0.09025394849125101
Ni 5.949665870391196 0.26122442164718296 0.35376626545330847 -0.043137454619422484 0.8225951458773832 -0.6292132211456907
Ni 1.876123984002888 2.9137177520700743 1.5752606657529764 1.732831485213519 -0.7802827582624174 1.138280077116072
Ni 4.071803748152628 4.287258130743159 11.936978319794546 -1.538109501514164 0.9089348469158927 -0.14328732206814676
Ni 4.979457665858895 6.026003780322756 10.496328050048685 -1.1010613019739297 1.4353556207836893 -0.8837316081773878
Ni 9.073698348978553 5.428831813586752 12.22713807065119 1.1966574886137002 -0.5691147131918973 -0.26326887953081757
Ni 9.242017412962795 3.22335866841017 2.9415475879823254 -0.4580913933637788 0.40963098386954616 -0.18038756935455383
Ni 5.575012977139132 1.917857991317657 11.166560695107362 2.1670938944784996 0.02433960518662905 -0.5868162442367184
Ni 9.016274373396543 2.2264616316138794 5.176071938250747 0.23493378003155022 0.5891641756436047 -0.5578003166203425
Ni 7.579002259415192 0.7593047537738994 6.6748358319753525 -1.6118091451911598 1.8611426455878077 -0.8633291332616359
Ni 4.336804415289263 7.0341426466756225 7.44080905588356 -0.10655165721001005 0.5826873096700094 0.07271748226938445
Ni 7.492478485629378 3.8162226688738703 6.70844077234809 0.11483472315440868 -0.5592177657931594 -0.1517678487353322
Ni 1.9102886796461471 5.4303924000671735 11.156727131314856 0.6111157402140314 -0.08817161204092556 -0.8567247405712407
Ni 5.416459259694062 2.4177409410016995 5.8796357201858935 0.9083686899997775 -0.9654849753967951 0.10371521620247945
Ni 4.102174443130908 0.8967718640748191 12.437970500707486 -0.412092043815529 -0.32607193089996744 -0.2801977940756723
Ni 9.129655186372382 6.500141725494441 9.711002619300318 2.6732901137693057 -3.2910968928502675 0.3524815312417478
Ni 3.41566590901264 4.90624092888818 1.4602902973261214 1.5546517221435612 0.5048839282372852 1.5634716344280364
Ni 5.786056600335894 7.320683145173778 0.8358146085631826 -0.8375201426183319 -0.3617197620105641 0.6293212074784645
P 7.3988993657793785 0.9644237552425913 11.709445745431882 0.20753816162741676 -0.8195599585954852 0.33364151571710926
P 5.87594451264238 4.0552166762798745 10.675511412488849 0.543444819229619 -0.5747372015849973 -0.7300174343489622
P 3.60019825170067 6.807923020818944 12.154321292371263 0.7647607513674184 -1.2399306974800388 -0.8440882827541528
P 0.17778631047116217 2.9339025831941004 0.4118901687442022 0.47697280364931405 1.0272870963052567 -0.11602951479345823
P 0.6587291602838269 5.420561639723436 3.303744758361604 -0.3430427544263511 1.2883857076576326 2.050284564096224
P 3.458044709543871 2.8055139744843802 13.480493666190378 0.29055445471964797 -0.3626348176256658 -0.032138018185125294
P 7.445090856634037 3.4592408476845535 4.273328728301736 -0.969843252365491 0.36099342536750084 0.440590408365538
P 5.40865632729195 0.06097314172131758 5.853895388088149 -0.904166736103288 3.6929641736139946 -0.3559437787587354
