# total energy = -340892.7986486659 ev
CRYSTAL
PRIMVEC
9.05485534931764 0.00000000000000 0.00000000000000
0.00000000000000 9.05485534931764 0.00000000000000
0.00000000000000 0.00000000000000 13.25269608253565
PRIMCOORD
 96 1
Ni 6.501458659157779 2.0279797579649963 11.415766860024151 -0.21113616339132024 1.0459918718036114 0.7800888970840565
Ni 4.632047530009134 0.3277088013823088 6.117815299142119 0.47876383411146584 -0.0217949843879044 0.25139681068357994
Ni 2.82937068560104 1.466406677188311 5.022943829248293 -0.008636335518759319 0.26473106589864087 -0.8650003503164716
Ni 3.4377392593952507 4.012958007350227 4.701380558266718 -0.28525258289076033 0.338921533169126 0.9176925385038647
Ni 5.167832382435605 4.345071995913849 2.6777869722865684 0.00022702840914154448 0.49350396853511785 0.12972115334793788
Ni 7.244364275377376 5.88188922915949 2.4346532373577414 0.6586765207121301 0.20863962222171165 -0.6048396773973326
Ni 4.851935640000928 4.753663293693033 11.42806516470999 0.4938893768989946 0.4971899020271373 0.38627071187705087
Ni 5.8206240771168085 7.911598464517355 12.44503680759548 -1.47581012925431 0.46764407004922043 0.2640756917028291
Ni 1.7339323817554142 6.4799805420065475 0.3852759504551067 0.9779643388107286 -0.026997097414134148 -0.33316020520531653
Ni 2.825993224514442 1.6112390902717706 0.36624988816245496 0.6078393834556047 -0.1644575283878587 0.448134282151067
Ni 0.5713876386098309 9.12484949275366 5.128926384980418 -1.2688646069055696 0.28936891905197903 -0.5056521738618776
Ni 8.6333247738159 2.1013784163241414 1.4809623573403374 1.2999703271714387 1.0695274930317065 -0.33469875333703003
Ni 6.838299282271546 0.901639043405321 5.010407381863857 1.0956113346029517 -2.092015368176107 -0.3494113769568563
Ni 0.5027971084999711 7.224932555560114 2.205765506524207 -0.05733868582046899 -0.04882884857724494 1.3473675855084797
Ni 7.931220336299279 3.6804456051463634 3.5548103911237505 -0.17855025903549895 0.5016412529302715 0.7347392653046637
Ni 7.489361499559881 4.130182166136002 12.617878605073505 0.5725013702759431 -0.2772986181510063 0.053370959421972605
Ni 7.905305339972622 8.85838320627538 7.319544023805512 0.10003648179931159 -0.16001517634578893 -1.2907925173269124
Ni 6.689600445906646 1.0741412838035937 0.4530750861977583 0.11665789240607652 -1.47256719683698 -0.7673524233539946
Ni 1.8654088830353037 6.431826820670014 9.086883389295226 0.3030595291651942 1.1639052338833438 -0.09483642565561087
Ni 0.08100835888776887 4.575282641130096 1.1918507828420273 -0.0655369053605452 0.9410643804605858 0.5187054075014099
Ni 6.183950152451214 2.0924231642741544 7.10804342642636 1.3942897039813147 -0.009538021397422282 0.24740054503999329
Ni 3.2682323651831617 4.338507225705315 0.22800216596954184 0.46187322900371425 0.033762184052109595 -0.17845230000505397
Ni 6.389359548562392 5.604955529769398 4.64552024944814 -0.7687194789048503 -0.2505496321919362 1.0214396363855442
Ni 5.393751026163789 2.9990496220668694 9.425741434205491 -0.9900685782734303 -0.1958635535029659 -0.6245759794839952
P 0.19179632641254193 5.692995889407439 12.273945313677885 -0.38893463186245925 -1.529861659683075 1.475758192970452
P 3.79805912271692 6.393081094156471 12.725636817961346 0.3791230450886761 -0.4725723605887732 -0.614000260850678
P 2.425370199540101 8.195151263248743 1.9309705639937778 -0.04389952959642762 0.2201031427766209 -1.5755869296343317
P 6.63687402256279 7.614653534560558 5.88042053160387 -0.21484009460546868 0.9522792753397985 -0.4141682096182674
P 4.7527668630024875 1.0309405684037072 12.607753465698082 -0.23273240150485724 0.22722946940875705 0.3386500246752942
P 4.029419734576593 6.053089381342607 7.847769882893934 -0.22380913087329846 0.822640654403338 1.8557770104005202
P 4.927081885463862 1.0400406981410548 3.9399731558856064 -1.1202047076716 -1.8516964125732434 -1.2869659444919705
P 9.427372213673845 5.5143073717588615 3.470708893610829 -0.7783906834460271 -0.37560988972909504 0.11074204114227379
Ni 1.6270669776159337 0.863313462185124 3.0490478174606137 -0.12865260287410749 0.2564634265732099 -1.4907148142802844
Ni 2.0505082383495945 6.457135141680847 4.562346874619872 -0.023241744136759973 -0.22689959687316405 0.4945293244758386
Ni 5.767118936203388 5.6407946476802655 9.298939954799625 0.2701460662666251 0.08346263660103045 -0.6705470468974709
Ni 8.878829069904167 2.768060259281058 10.284635221440565 -1.4205782053641984 -1.371747814125057 0.5264110036757838
Ni 2.2691467782879013 5.112452886441955 6.956459713111889 0.07847546779908421 -0.3468001645862543 -0.7221051214804209
Ni 0.2713713016809853 0.14483603502564366 9.271520041495508 1.0342234184137737 0.10347738916006051 0.5675517395801516
Ni 1.440256254619694 1.009761261482656 11.53648528753196 -0.4597690381765178 0.7009745101493927 -1.0406956564016785
Ni 4.30336533166487 6.950688148241655 1.9331310525065448 -0.8683944635996851 -1.2662032580233225 -0.6619539059118212
Ni 5.6832619197878875 7.8166764147296774 8.036872389807113 -0.6269359950757396 0.245508470223603 -0.6529162211895851
Ni 5.458438913570369 2.7860613119356326 4.8126765031828 -0.2975774230047004 2.5335434578645657 0.8477006826957596
Ni 0.8815273039430095 7.236051918065052 6.633836118555943 -0.8789940934924022 0.2727624208435496 0.4727921899090632
Ni 5.02592468766574 4.321167177499324 7.082903525727085 0.5853656278331208 0.09243655796486662 -0.45141449556423546
Ni 7.992259116955458 7.185435276043386 9.149926914950262 -0.16795448579752364 0.28435681054936834 -0.022790772642270425
Ni 4.402941577159013 0.5262654828813222 10.4502675430013 1.0482212753547624 -1.336943047741046 0.9729810266635243
Ni 8.237002805185082 7.325043037526399 4.371335604175717 0.35095146775046654 -0.2777256783860959 0.186246342128176
Ni 7.207683055908723 5.915754388580067 7.167627997295657 -0.23209271103832935 0.5036407998588036 -1.1592713346557584
Ni 2.590566982553207 5.114245747823043 2.5055545665810053 -0.22884206531151557 0.7692308713236301 -0.13996802788692667
Ni 2.251969717480191 5.3907085947292135 11.340636913301047 -0.31500641711442523 -0.3669694404452777 0.3300041760748381
Ni 1.2847753315152184 3.4546265648282386 3.6068006547187053 -0.5689193093516396 -0.8621965623190893 0.6900375515219148
Ni 3.6228114501431614 2.6058877979916075 2.7012046394773437 -0.15850825278295927 -0.9051167587213832 -0.21928861729512558
Ni 0.9520999419130737 3.326364537236666 8.118084482942733 0.588578992564096 0.18353151430017423 -0.40480245213265126
Ni 3.5000366649603776 2.393777808839995 7.132946089912584 0.19956774182743048 1.5443331138263725 -0.5063029200719991
Ni 4.342310264998535 7.0291575256584276 5.982372771170729 -0.018800934756586975 -0.864663278692027 -1.240088820324458
Ni 0.3089072995050662 7.5371258621116315 11.270622959912865 2.221501008474471 -0.25207429636657874 -0.7152387333778908
P 0.22365311889208103 5.673201975371775 7.929737150974923 -0.498371066819432 -1.0351495297724687 0.030786132142921172
P 8.47475614499955 1.7836978673638353 8.059773024751118 -0.49298306303464123 -0.1086620186847935 0.01947636355705678
P 1.8581559438118058 3.2212648299118953 10.230988824781967 0.6484548429841219 0.702402757955487 0.9505219263290599
P 4.2022316510316005 5.888263847403363 3.955731320842727 0.22431460975480724 0.8457936954810336 -0.276176331621105
P 6.900252603329191 4.122404045295822 10.476428831396468 0.06477328772164329 -0.1216453183183389 0.6662453341983235
P 6.142795834385297 7.999267575081535 10.135132313910814 -0.21284029056662054 -1.5396575627275744 1.021619613606834
P 2.458646793355775 8.400026422887777 5.7654003246370715 1.0718455996419218 0.18453501586402413 0.75022759074825
P 6.920970112621779 3.830991632025113 1.5221248247761674 0.7534229577570961 0.3579903768751189 -0.5695114344096837
Ni 5.2334800845209495 2.9289378762397216 0.47559813366908044 -0.7117572025871935 0.5838615324837687 -0.26430657676671254
Ni 1.5241857098788743 0.8804171786636077 7.1631223012187375 -1.2570753275801252 0.9684782536971644 -0.07944425947025673
Ni 6.881237406863091 0.8615694970235188 9.40681678629399 -0.6691915613108411 0.7064301339473252 -1.762549581103242
Ni 2.7494615861661207 1.4945582228135987 9.231284791258785 -1.792769299219732 0.4746860644976663 0.5677795393202415
Ni 6.47313507127875 1.9936980751932565 2.684970189123024 -0.4536300151583155 -0.4930072314043574 -0.1550948562260361
Ni 3.9836474402260538 6.9699387709497165 10.25862062170385 0.3505840571087188 0.8003926416384151 0.49114292450210895
Ni 8.252622430853664 7.303139342168544 0.2152764721059911 -0.7697654036708614 -0.03813974429451496 -0.18500269952906204
Ni 7.5846910178432605 4.015466202312661 8.41544865270733 0.29029683018288716 -1.2629760093352764 -0.4631456679582347
Ni 2.863471271263579 8.42940037400017 12.4445333576319 1.7310252852427157 -0.5902599798109447 0.08924581894171082
Ni 0.021688189797905752 5.2059533239224045 10.139253178630682 -0.20717383630946257 -0.8275722873770005 -0.0034681610542585434
Ni 8.620322001375273 2.3532482758008224 5.716391824945109 0.7082566456331028 0.15127831069342335 1.0415729168003094
Ni 3.6546302122297685 2.7339234541966793 11.40932614133542 -0.34946999810893364 -0.36195758905298314 0.25620348804360393
Ni 1.1513610911668786 3.168076608939576 12.640090165517002 -0.7187716862318138 0.32060165181401556 -0.6726774629769124
Ni 3.136946015867933 8.484915692825723 8.047580661874164 0.6065713153764587 -1.4024205606185653 0.0777784417320596
Ni 5.9346156525033456 7.788135510319608 3.5351966687117415 -0.09510304905343622 0.6936468661397279 1.011462213457858
Ni 3.430576868726353 8.348984202659489 3.7765411642016633 0.9439008214681163 0.28927173135248246 1.1187381504284022
Ni 3.4206255825757608 4.534807437223685 9.341639936692571 0.04754483965849876 -0.6959855415752337 -0.2827717254504356
Ni 7.1462096421904615 6.217109033145908 11.340185981499136 -0.24717197396895496 0.017615656199234178 0.09884940346974588
Ni 0.9430631961639463 0.006332060423211211 0.527560327212109 -0.6660815549269496 0.030001431458096715 0.23736964316655249
Ni 4.705083994149877 0.23804037873255052 1.7866361679606206 -0.22972163970299148 0.9642248777374491 -0.44748045061715197
Ni 5.657881159933375 5.6586327129365595 0.4015583915433641 0.4754964762141037 -0.2567012536156289 -0.11604237030926466
Ni 7.747216618495653 -0.058496177242998805 11.347342939254757 -0.4972739771005113 -0.47196480891176135 0.3573895100663264
Ni -0.029870157191604668 4.839901737094525 5.663275137330925 0.7069173579963889 0.35973975546605785 0.02069223824202888
Ni 7.891279368865009 8.99761971868453 2.2330658957362504 0.5078766923170221 -0.645933619224165 0.621906145961316
P 8.697007572266415 1.451149245738131 3.6566313352864386 -1.0451220676041486 0.3147166537881483 0.18023921670214765
P 1.8435776265211294 3.257203551232824 1.5070439630074581 0.3970989128408064 -0.8834493010502786 -0.3960190495130664
P 4.720205602768157 1.089425879820154 8.34701205514029 0.6251225960160847 -0.5597980637766616 -0.3498752039671523
P 8.558640325981429 1.421956391734938 12.546804328110953 0.44298539096027584 1.647527938749008 0.5620194969080127
P 6.397119559691652 7.664790269242841 1.34607670297974 -0.37799330235960704 -0.009754765393918684 0.0612318502272881
P 1.7008278301934807 3.146725259764784 5.884037946360159 0.24278927152022706 0.298448512755744 0.5481031439372368
P 7.023652173538718 3.9080846714119577 5.940375446061482 -0.6819761146700191 0.24841484523712057 0.45165103705507376
P 2.163395121370007 8.351972304961304 10.334386219280251 0.5244430813161355 0.26011567861381657 -1.2406794027206052
