# total energy = -340891.9296486323 ev
CRYSTAL
PRIMVEC
9.04997851358275 0.00000000000000 0.00000000000000

0.00000000000000 9.04997851358275 0.00000000000000

0.00000000000000 0.00000000000000 13.24555834048237

PRIMCOORD
 96 1
Ni 6.368904313680446 2.01097763650384 11.361563002337844 0.6368612246092515 -0.7863382204278779 1.2714002288432298
Ni 4.5250707312547185 0.23144958175462227 6.155899493234859 0.3848167530393437 0.9834521013981772 -1.0155065587305607
Ni 2.4569334301476315 1.6962555820005927 4.576566014275449 0.9679673754990167 -0.6598391735616637 1.3563438208651608
Ni 3.434041515626312 4.088490715402086 4.932036502255989 -1.1963283874090558 0.9515254278929096 -0.7701577540132736
Ni 5.131672694368465 4.696079126179188 2.6790072341110944 0.42029437712066325 -1.2427987630564532 -0.672484630239816
Ni 7.328455440747109 6.018217644368252 2.508284818509212 0.018316281810684586 -0.7411670232078784 0.20054990323504168
Ni 5.025453095975763 4.465567122203682 11.563902423047058 2.196860069997339 2.633245439142594 -0.5954978311711163
Ni 5.666644077156895 7.847073512272387 12.327800253566775 -0.14407150853233897 -0.14965388771612292 -0.14934047024076216
Ni 1.8439512321470442 6.498156107515715 0.31778366225107463 0.16031368142281424 0.3141880349781879 0.20915949928092364
Ni 2.954528401471304 1.5490667306536634 0.35151293235498543 -0.14129214601498893 -0.0165123958327264 0.3457768655280625
Ni 0.4969659978135513 0.08720649842991544 4.860696426242541 0.22408706712503343 -0.25502849389889626 -0.019072700360734895
Ni 8.688042770229433 2.344795145774796 1.4749591711956827 -0.13500631300627716 0.44306072428290144 -0.875861975621324
Ni 6.979352517683422 0.667318269292211 4.713219785577312 -1.391690575795571 -0.462028780744972 0.4459766123781158
Ni 0.8257861089220768 7.452132447787636 2.482124950475307 0.07797898777863989 -0.5208723332457417 -0.1889352018142488
Ni 7.573972309179895 3.791542818796365 3.750969954903193 0.5760057838847757 0.0771302666250994 0.28886112617762516
Ni 7.392963687943426 3.6809882806720364 12.72784279096743 1.5129227178358913 0.5014803018723751 -0.6826831680393727
Ni 7.691594880561846 9.133871864173344 7.0568094742075305 0.8207483224766315 -0.4246215437411074 0.04550929728570872
Ni 6.977524422013717 0.5201031730074495 0.3560641665742655 -0.676617421461267 1.0154983312004446 -0.3703041612454655
Ni 2.151777202985365 6.4093124679637725 8.873901274977758 -0.7672889171059109 0.2928879879488311 1.2589766583678963
Ni 0.01696418481614725 4.876743848230268 1.3511129295560294 0.9244331996618078 -0.36449321099064325 -0.47217461092972224
Ni 6.146817839746994 1.9827869532804212 6.9932704797152985 0.6316344289926734 0.8277435228475423 -0.15697561818851674
Ni 3.4362587603742214 4.3242064570512575 0.3709197063852581 -0.7772879373001516 1.110355839901978 0.1718738754565879
Ni 5.90165392047816 5.572289000660149 4.79774025036976 0.5373605607087519 0.6607904817313394 0.404837933356277
Ni 5.272246011385918 2.867051308682358 9.445010127165684 0.23579098582552294 0.003948186014470619 -0.8594228562286941
P 0.07216452906052716 5.652933359634109 12.444241802746268 0.4117783692298521 -1.6395379785649957 1.3565644215163992
P 4.093640153204373 6.249589396307233 12.513475948748129 -0.8317140774595161 -0.052326320207542146 0.2502796663600012
P 2.402398259327625 8.604176618887083 1.3171673649644653 0.4250478326452487 -0.7722226069621023 -0.25680075530797064
P 6.442498739353909 7.608796626689916 5.781395090340839 -0.16048311712114294 0.6739329326505683 -0.15403504750295408
P 4.952419768973198 0.8647815615517362 12.71671584232435 -0.53029439789059 0.8530940857971889 0.09404015500656063
P 4.2030091441369635 5.910323799941414 8.05349809330489 -0.4975827665901818 1.9875527322846416 1.084460717302771
P 4.589316529072712 1.2620104606171874 4.154084960025951 0.492958380444293 -0.7604256143271743 -1.5942793638375126
P 0.2799954767617053 5.719713151449713 3.7190479655182926 0.07113136872918717 -2.1103897569182366 -1.3775849896321244
Ni 1.389886657710898 1.1116812667089335 2.4890925289708803 0.20679177037969548 0.47727362271918455 -0.140920364497867
Ni 1.953392622908137 6.5378040635997605 4.810773124498185 0.026281045183716028 -0.06782158762966384 0.04037634693451756
Ni 6.076363756634854 5.474820731537767 9.156390020833541 -0.6340301829183598 0.17945580156890387 1.240189093347748
Ni 8.760913197617866 2.593669556254417 10.215623946776928 1.1621309155917405 -0.7456348291712449 0.4767462894608048
Ni 2.485956711398837 5.047444543883598 7.038703182096746 -0.22666742625769992 0.6647134709348294 -1.0087245028117207
Ni 0.27250842949662196 9.262200560195199 9.554379118098275 1.0370354339412722 0.842631238592652 -1.065673666503255
Ni 1.7227901191470019 0.8776551560574549 11.56869710168968 -0.7226183136714135 0.6637084267090828 -1.1563809004818408
Ni 3.9362519760170613 6.624774357589184 1.735340629418025 0.8615594429557225 1.9111236054916247 -0.901149546543519
Ni 5.730057276947102 7.5816014411084165 7.871146455249688 -0.6225255247128698 1.1444435256143064 0.6072791400767605
Ni 5.3943392721779375 3.128568539214344 4.851675407611046 1.5098281380709675 -1.2085082173046995 -0.6934504338582057
Ni 0.6293599442058593 7.461372475900351 6.797593653224089 -0.1933155902701316 -0.30274174081445926 0.2468163904017491
Ni 4.99128037692227 4.396570085640168 6.927639130179326 0.9361985677278523 -0.5761903890917561 -0.2368204555313018
Ni 8.298975141832 7.290590330439954 8.867172615916244 -0.8578989633849999 0.42862372292196504 1.062602483777099
Ni 4.785936363330176 0.16097377869393137 10.476878727930588 -0.48465808810871375 1.4354983170091407 -0.26568880182621984
Ni 8.08901563917283 7.266191588234389 4.363497843979924 -0.594031531038235 1.1572779583748134 1.2245603856715557
Ni 7.246272585417457 6.019719940809693 7.133660082167925 1.3717128471220634 -0.9348631367458803 -1.6302439548575796
Ni 2.3015633981798453 5.256372348986599 2.571148684600652 -1.2503909735814143 -1.0898965436063617 0.11047567485476457
Ni 2.3642797496207097 5.282780186433127 11.501052131923462 -0.5275983391156656 -0.309475459993867 -0.6380724713085333
Ni 1.0348921986027668 3.4097513731635014 3.8234629981855535 -0.5641866797626606 0.4553683380056609 -0.44738737668271333
Ni 3.6244259146539406 2.7287314363270667 2.4907341950821897 0.2744025275501339 -0.14899080021082728 0.9226825355192882
Ni 1.2977035760692464 3.5262607971822155 8.432784504871545 -0.43872970100771536 -0.4316257429730825 0.2438567935527929
Ni 3.638390031576488 2.4647526116259733 7.21468363524367 0.08800371900449361 0.47731630303166184 -0.03196138339794496
Ni 4.05927738460106 6.974565079023651 5.9321025733530215 0.6224828444003924 -1.0084853902177213 0.3990161844681773
Ni 0.5545618713835296 7.37909912078507 11.49562123978787 2.1183177535160613 0.6356247810989892 -1.8930145545957398
P 0.32604176768971654 5.600633533519137 8.097883713166611 -0.4299568399110918 -0.5524431660734873 -1.2890050864091867
P 8.821222254761 1.9040068898904172 8.042186525099128 -0.8445197138646166 -1.5637423715909198 0.353843701696597
P 1.9794294112335868 3.1807597655865614 10.648104322340568 0.3971246238724193 0.05300174900801194 -1.2788641413204425
P 3.8867304933208984 6.0412950897036355 3.8587090446966057 0.26804161832911255 0.5479311371357467 0.37820618970136155
P 7.110296657509954 3.8899522856892887 10.482733159062926 -2.564311078064726 1.6279968106946157 -0.4056480879623982
P 6.347102915322431 7.753415284124983 10.037576478526237 0.4083068657414839 -0.5534170999509823 0.12231071981647967
P 2.3819000578826666 8.416579613256825 5.914751049454382 0.09968141245273801 0.214940624739075 -0.3947481532204427
P 7.020801419501483 3.9233467065863725 1.5261268449924366 -1.2217833371470508 0.5346035667889051 1.3163156012986812
Ni 5.205837268691392 2.9906649658729454 0.48248965210434397 1.2435736935492647 -1.266573753988864 -0.011654553519792832
Ni 1.6313762856831964 1.0593633406368357 7.005138621602679 -0.8897911841079063 0.6022621464781435 0.6130134714573766
Ni 6.895187717048496 1.0033077734182623 9.284593827151228 0.3957459983573378 -0.6836205922519775 -0.9971643087779473
Ni 2.8263173551707665 1.5196271503885652 9.489700731304975 0.07896346317909626 -0.2988987129192852 -0.9012763019293704
Ni 6.352397152781724 2.0024525566975924 2.459422174252428 -0.03720617673665205 -0.2295159514500886 0.9932117518881024
Ni 4.059422184258066 6.97631172488629 10.311773634022696 0.428117729819824 -1.0844141803355516 -0.07914318329007014
Ni 7.805099711697678 7.228878526619571 0.1425489273377328 0.8983246755002142 0.131996836755992 1.0292228798753889
Ni 7.617366956388978 3.8189371039062494 8.291905298578667 0.7961842599840223 -0.7597283311498335 -0.6921016331397952
Ni 3.2483359555157003 8.344532733917616 12.46595089132294 -0.04366967297380866 -0.5581767261231547 0.12572308793213832
Ni -0.13045272599056695 5.150116550679646 10.266394326514769 1.6462670697587134 -0.7293890567363438 -0.783246983097064
Ni 8.397312208896421 2.407810146508236 5.871822476141288 0.6883200546101759 -0.017982552620349677 0.0004314311104637731
Ni 3.924179304614159 2.7115907769289427 11.584830498473753 -2.053842199540495 -3.0509242330172808 -0.20605797753746447
Ni 1.0962782031948857 3.1837281585551906 12.532139719538387 -0.7878091485464497 0.6635202219576767 1.065305998751191
Ni 3.4047286350610944 8.40893238137118 8.096069192464752 -0.7767091819785462 -0.46101190944468345 0.20917132635546556
Ni 5.443082456717692 7.852476349474435 3.7671431715929433 -0.37692140945166697 0.18307102972398795 0.20834008870342183
Ni 2.8742641415969863 8.48660834737651 3.4613290109891537 0.7985892698810891 -0.3626134774694271 1.127531580350316
Ni 3.4810380543034274 4.312658684405003 9.395909468472697 0.01762619772219545 0.251650835675915 0.19748823359058246
Ni 7.207493427275449 6.143605097357167 11.364967604273206 -1.217601694965535 -0.2918029824147684 0.028227884497441708
Ni 0.565312340918393 -0.19340709186763558 0.11547863146040038 -0.26869030765670504 0.8303043415961829 0.9402655387083743
Ni 4.588701130530436 0.34073078789515193 1.8662856742424137 0.3729189731604933 -0.306942152049052 -0.3346992675576623
Ni 5.904305564197088 5.744021393869651 0.3537944319506913 0.07671014836854531 -0.6563453014757922 0.8301554747231445
Ni 7.860766129838048 8.758650702977143 11.276884162920545 -1.2383862358110544 0.9827620173096882 0.8061066613040568
Ni 0.23956922252125193 4.9222652404016305 5.7625466999878965 -0.39758510844860556 -0.4585189678195007 0.8868812095499629
Ni 8.14297161136481 8.955351987041672 2.3020113721187085 -0.4539377762067215 -0.015279808977205944 0.5123406416256467
P 8.538862923598666 1.5953121211100585 3.6319853617475273 0.21215663423603462 1.280252537027537 -0.28021219225337546
P 1.8318514108084532 3.2660467635632866 1.4273807188969734 -0.9529266791158104 -0.12613703554110534 0.7520029374811178
P 4.8134301982042516 0.9703749014278862 8.343059397407577 0.2966803651117278 0.29577276569579386 0.1580022596808182
P 8.556609931560505 1.642028110451724 12.237571062296851 -0.2143317875104825 -1.2888076256863998 1.1346779615871105
P 6.341057529642416 7.701224057752766 1.7638046219940435 -0.9151630872137917 1.083436904023947 -1.031530702072959
P 1.852621111610298 3.2197380232569515 6.181622247304177 -0.9183615395464313 -1.0769296990330484 -1.3148418449666324
P 7.022330865878612 4.102853031381401 6.0696314775819165 -0.029782887689387416 -0.36712833462064515 -0.4664881020679063
P 2.2175252972447996 8.256105393379565 9.955917616955377 -0.0657896448012996 1.4563841593192144 1.6392991230813123
