# total energy = -381167.72592569125 ev
CRYSTAL
PRIMVEC
9.27606051313179 0.00000000000000 0.00000000000000
0.00000000000000 9.27606051313179 0.00000000000000
0.00000000000000 0.00000000000000 13.57645219953114
PRIMCOORD
 96 1
Ni 3.8519583432145237 3.3218593121550852 5.1389180534229935 -0.3528628258405665 1.2603470563528618 -0.30073268080423043
Ni 1.5746205508840496 3.1509757250870503 0.6450210725611535 0.7472991042475452 -0.222864507571842 0.7364271945300479
Ni 2.430448447424654 6.776857921085086 7.07266592572342 0.7521736587310272 -1.3129909078008228 0.9363070682812584
Ni 0.9353979437596689 0.761540451685988 13.673795373326096 0.6634870547268961 -1.5016664281957814 1.4915576218965538
Ni 3.1298541352621716 5.632414677240452 10.80023044202991 -0.6189190383085341 -0.6618559468813763 0.089734071432039
Ni 8.474172924588226 2.089581051159912 0.4080687443742349 -1.4086937952217868 -0.1128626870297024 0.8079280307835117
Ni 0.3267983952601771 6.99542045927296 5.6933120146143334 -0.3448710658843415 0.7414333894953876 0.22586369940948195
Ni 8.255972152760988 4.775325236467882 4.681201050278579 1.1932685175368094 -0.6474600831710204 1.094429912700341
Ni 5.795738274977228 2.9701945814344106 -0.14707472250786074 -0.04374809162022788 -0.6488045130140568 1.0533470266171021
Ni 2.5600906693800796 5.795218815587596 1.1323129394906624 -0.28319827146489296 -2.503576222078514 0.8513634762593273
Ni 3.5919039862797524 4.495874636966655 7.233275348149366 0.7593367521383697 1.2676672441633587 0.24472351242846244
Ni 5.719795167425062 5.864075012895489 7.084572677018639 -0.9180614918075093 1.4911315901027287 -0.21568675887648014
Ni 0.4995984164335346 5.646495737123704 10.109827170935935 0.985838856462799 -0.2867746759622416 1.6493269396309596
Ni 2.8061938312790065 2.393446241973867 11.86139321444382 -0.9069049609700575 0.5540079394574459 -0.23663430766242471
Ni 7.3458329218222 1.458493549119598 7.391984105772889 -0.7469856867721846 -0.03675931900722056 0.2860398546787461
Ni 0.4002694326813241 0.9123710511021024 7.8484924382303545 -2.357992390666707 0.5361215460953282 0.21291613810987844
Ni 4.808626293767538 1.185693885017772 11.598078322233054 -0.408262899877426 1.022217395091833 0.5001322724849128
Ni 2.295286969454383 2.507903552843072 7.256437671290658 -0.29471604229650533 -0.7057346505421975 0.5673691912557003
Ni 5.635967408423117 2.5221979621184945 3.757418589513514 0.29677909547312115 3.2607159665655647 -1.4860382347402212
Ni 6.745449180133377 3.7820353989457773 6.527856917876853 -1.4679050154746203 -0.4841873191198823 -1.2667961544123152
Ni 4.610619505712263 8.957900929062436 6.969268461823123 0.3233591599544947 0.16220575623920452 0.6765724271559445
Ni 8.365012244281168 3.7261285821365795 8.049302451777539 0.6834195319847649 -2.4072788956066606 1.675557334082398
Ni 0.2943331110141987 1.4154340761432753 2.6945044968717013 0.5567762462312025 -0.3694150737722929 0.18331451319336173
Ni 7.434855274720469 4.1112984434885504 10.431982897901271 1.1559664386522415 -1.893890015222158 0.7938818371030908
P 7.4385471468110715 6.75385329097279 4.943064239016535 0.5773455857421219 0.6098443297007755 0.2386798773375438
Ni 0.6972935288550297 4.08220871766913 3.1141933622708047 0.43663450904158346 0.006878472287388153 -0.509555879791658
P 3.117470594455754 8.043726611793465 5.588284746879065 0.5395768516337804 1.2505339269171818 -1.0246013219429773
Ni 4.184718462576787 4.470393298693075 12.630335962432072 0.0748638391884259 0.3090653690396419 1.4991632021579537
P 6.677307239486229 0.6943993979699343 3.7033985234159457 1.2673965070004753 -0.6759530484043907 1.038513046928063
P 4.75960231387097 2.135812936837205 7.612004840675947 0.7238532145197791 0.0359170256115833 -0.16472980821263886
P 2.146999865835362 4.685514418424635 12.67516623536341 -1.2661909167281484 -0.7668482300240664 0.5153431758973964
Ni 0.9928353105561769 4.942090252660974 8.14808414795853 1.753275612000484 0.05911866053902721 -2.1726911860606193
Ni 1.0408296477340084 0.9883828015021839 5.519710541811258 -1.3990094780544875 1.1685648441425425 0.06357823897227759
Ni 1.2673232176743081 6.5680630746344075 12.290654046702956 -0.14980738257485166 0.10755155922943414 0.027105855077856542
Ni 0.7157603101564651 7.362093855929803 8.489599940854259 -0.42430812626574665 0.2991846195908202 0.006835020643962421
Ni 0.3996089771716485 8.383091286252485 10.958708225746259 -0.08088073480646717 0.5019377011247679 -0.09525011615426177
Ni 3.9143212981520112 1.2731022033839698 0.26462838238169584 -0.3881093077476864 -0.49970984023551357 -2.1109338023471644
Ni 2.643398968992392 9.08120760167645 12.469306334464155 -0.4000022025305304 -0.16184888712041803 -0.9383240987112872
Ni 8.121803213267336 5.868035890741438 11.625434352339575 0.37238392659262964 -0.033202712004213784 -0.1899937249857502
Ni 7.796751500204799 0.17636759405286925 12.861787586725205 0.804871246235059 -1.0814548405969115 0.9504730753689952
Ni 6.01345669165695 4.282311895403993 8.69116966375878 -0.8397729432082505 -0.11618532364503217 -0.8318822276062641
Ni 1.8085071410660833 0.8791516231351039 9.738715179315895 0.10642773003763606 -0.39051277498285647 0.675251908572308
Ni 1.7344099695592186 8.610864952545807 3.9425205221606325 1.3282938567064801 4.380113347844521 1.3993871731088803
Ni 5.135199280756856 3.9168443866159404 10.72029213520784 -0.9256935544314704 -1.4688699504910507 0.99778574441203
Ni 3.536451696436483 3.058363536763999 9.140930589787342 0.49132958659161835 0.19077996833247143 1.3406235819164267
Ni 6.160825465283585 7.934213441186299 0.36613260232799244 0.13010424771896947 -0.4442125784991576 -0.14661972887548944
Ni 3.6514099145742613 6.018354451616342 4.961867741315178 0.2803949976881429 -0.7189508921221553 0.7408914009489885
Ni 3.6861116570138184 7.632899167017861 3.1338521173502363 0.4596476821073051 -1.3340402722719542 -0.9279581820959308
Ni 4.591575753445914 8.086285177501214 11.602368500227787 1.0423221362615083 1.534828516770047 -1.331462998463081
Ni 8.404064459108897 6.490116338007946 0.16243124071387158 0.42677921351405856 1.9294123764984836 1.4867756271268782
Ni 2.920428516695511 7.6952435698342905 9.731478924497104 -0.3459807540087525 0.858976769830211 -0.623011977430985
Ni 7.6277045731215365 2.401136096152534 4.889925398669236 2.4781811790441775 -0.8773164486796634 0.6540418501535962
Ni 4.102634602954322 0.7016384356068844 9.222741733230249 0.3396604682176796 -0.6124961655013258 0.05722375750915951
Ni 1.2577410471476942 7.564710846068066 1.0257922260102004 -1.0308439604185795 1.640549707658962 -0.29078893932795724
Ni 5.10814101219332 6.282907697907752 1.6866299093796104 -0.7759226815215089 -1.3029291526894462 0.11804140301716444
Ni 5.452542587519669 6.114918241724813 10.991916522440622 1.474352827982493 -0.04413272865315625 -0.3343405986666629
P 9.8459816880629 3.2693753616811443 6.408451756321399 -2.479640022977891 -0.9696879577345494 -0.2605450528417513
Ni 7.775249591898225 3.0095807344411893 2.5858252441061054 -0.29436097294993174 -0.5222650998282101 0.8974975516132285
P 2.2829776371321984 2.5293498047864706 3.02847235931486 0.4596826491102986 -0.23439461969862857 -0.28411564107283976
Ni 4.382066650334491 2.372482345177984 2.005078922557498 -1.1855048144309905 2.052998106372645 0.19065604116009746
P 4.184829775303137 5.996184666951669 8.86865409549936 0.3261611481796641 -0.08462657500214457 -0.3719841200510497
P 6.130863789774425 4.110537806525159 1.833378114556845 -1.7164077924398566 0.1910987851244709 -0.7782281897262339
P 8.363054995509517 8.48985874294302 9.200314074082865 -1.4072678614085377 1.37446521305622 -0.5638624636540225
Ni 3.2508603448649573 1.197604346737203 5.620637790792641 0.5177823814665083 -1.5663612972710057 -1.0272307891460244
Ni 8.212996164329429 -0.05924712620574554 5.468717254264351 -1.2353770166710853 0.05819640583507397 -0.5321641041094771
Ni 6.1208178162213525 2.031104765584139 9.820078289035244 0.21465600361912063 0.7117785427434323 -1.6510709189052597
Ni 5.807982674875708 5.053940990521487 4.536313622843492 -0.5632014330312558 -0.3275888817651261 0.08799703413627424
Ni 8.53701823467323 1.5974767640278795 9.80855185622172 -0.7544020338409136 -0.5394488106963483 -0.9565593907723913
Ni 6.569964667042884 0.8212671502210908 1.5144124248074837 -0.08486980136120223 0.03783352590800581 0.20435770701690614
Ni 9.248557009682878 3.7094780534867517 12.529504256874139 1.1526970238723504 1.3601056019004383 -3.406621442982849
Ni 6.692288077240809 0.09784945209781082 10.838950573890697 0.7427472232108047 -1.3823993803016321 -1.4139581289445198
Ni 8.126385587168738 5.686763115880752 7.0748522931901405 -0.08291396318641205 1.272092626924564 -0.8860188615496677
Ni 5.489006781459765 7.556659225528762 5.260304581507474 0.1025718466266556 0.41237537938390273 -0.21959483568163474
Ni 5.396283280410364 7.9291487121373825 9.016189838215519 -0.0805115243925065 -0.8218253575908943 0.626662686809695
Ni 6.372811276556291 5.285935264355573 13.336420413850577 -0.2579536379654912 0.47336734568624284 0.14155722675091748
Ni 8.982009410377701 8.047501968428831 3.457664548726079 -1.8277514717218715 -1.0272708983553405 -0.6063903097139041
Ni 3.631271587165473 7.0050211819206325 13.230184475428361 0.31975498754300413 0.1483120289762478 0.20116311133900838
Ni 4.518109354055032 0.3918894395992883 3.418469482566201 0.1507067544606695 0.5109864415905974 0.20360180268748804
Ni 7.0572268505787 8.05954229499567 7.317870237357071 0.787231935886741 0.032410555120221604 0.07156279983965096
Ni 2.1864880555079615 9.13215172610255 7.387544583203637 1.6677290962872313 -0.8334171761935518 0.17687261422275988
Ni 1.700645109233106 6.586438950542657 3.7691759962342144 -0.8489731216502799 -4.72096397971556 -1.3935926779142902
Ni 3.375020415047654 4.542848607486279 2.983805345048835 0.23341965737986894 -0.2842729925863104 0.3619797005401702
Ni 7.237952337868164 5.723357174668256 2.762807840972058 1.5909659831935632 -0.2654766858154138 -1.0949235645073079
Ni 5.517419354860557 1.5400579493524298 5.616877275854122 0.5087197570436077 -1.3106308922090784 2.495431738594509
Ni 8.454145909905789 4.26036473619202 0.827847587560471 -0.6616111778604219 2.2140219264886065 2.135561371087858
Ni 7.665346826748834 6.268093829242696 9.293733279671953 -0.7481159437218858 0.6148728932636185 -0.486890062763026
Ni 0.2901570285639746 1.6022817633819801 11.78755113460151 0.4860932778933435 -0.11724076149274003 -1.2451042712611782
Ni 6.457065734342578 7.860988219369175 2.963278350703875 -0.06430946071134731 1.4308392209705745 0.27331675068512284
P 7.008917127342877 7.556835470678816 11.960433712713574 -1.190002445191028 -0.020574481717241987 0.11053866688221607
Ni 1.1814083450533042 3.093260076474668 9.590242554486291 -0.772751997103011 0.6158324289634104 0.7931817257122726
P 0.23924908077393647 5.976760596203626 2.0543208898765 -0.10742197563010532 -0.6361420870550398 0.40728845177929857
Ni 1.6453505124188321 4.884866235256637 5.741115264945264 0.10214170106777248 0.290500461553261 -1.143796893169243
P 8.598212405984045 8.807795717579701 1.4687417407922048 -0.21154342613206795 1.1091229959361415 -1.187752987035219
P 4.297450426187568 8.68292139073626 1.1862523038616273 0.09871981987041709 -0.8000023481785319 0.4469616019992044
P 7.152538372515734 2.1639472284221224 12.061754266661396 0.8840635375955098 -0.15569880835862218 -1.876275130353872
Ni 2.3341536630715294 0.2197285389963894 1.8139085911122084 1.183290323278175 0.8547583608734892 0.8720158624023562
