# total energy = -340857.83362736687 ev
CRYSTAL
PRIMVEC
9.33342203429768 0.00000000000000 0.00000000000000
0.00000000000000 9.33342203429768 0.00000000000000
0.00000000000000 0.00000000000000 13.66040658395196
PRIMCOORD
 96 1
Ni 3.3058233168322153 2.0607168549828003 9.962178907368312 1.9414286842330692 1.7368717167211636 -0.6410860613238766
Ni 7.775766994980369 5.291910131493974 6.2382294961971425 -1.6351928142224226 -1.6345515810939977 2.1993920923905734
Ni 3.728627322152774 7.308563902390276 7.802810584503908 0.20450785944152522 -0.7181088558368341 0.06714024529192308
Ni 7.715118420442334 8.574950565831983 13.572419241346982 -0.5145217084373656 -0.4186498995387048 0.08138595657765983
Ni 5.628323985087224 2.0774050130735984 2.240224688835543 -0.1697717415119205 0.8196962270630335 -1.0712768716226455
Ni 0.5434356814257822 1.1571762955331901 1.4286874009542965 1.3571490903752756 -1.188574968715882 1.1321055728742437
Ni 1.7181242761903845 4.987127244214882 5.49256283232362 0.5596299136299137 -0.7740807432167637 -1.7084846809380383
Ni 1.2659386591976598 7.3154799679077716 8.806863696132273 0.9530380078826941 -0.7979709195707999 0.1862499416726018
Ni 8.665074086259695 8.76283234567973 5.723560353950136 -1.35902162480764 -0.6924207070421108 -2.653081500031915
Ni 8.537710213045472 1.7687207555025866 10.293061775231918 0.8559508385196936 0.4256281306287509 0.3664716748732527
Ni 2.038895314928949 2.8327121682737357 3.9214520821598517 0.1775477859129136 0.6034420257188575 -1.5423705907833631
Ni 8.037756143531098 7.629101605585065 10.253282731729131 3.3810114557242286 -0.37406748494263964 0.14105663296541512
Ni 4.688765751100482 5.016331520873779 1.620369750139051 0.5218390680343852 0.38200885127690337 -0.7899958717851233
Ni 3.3370902796980846 0.14791326788341322 8.746676192628739 -1.2226207454466815 -1.6037515649940057 1.1363877451893654
Ni 0.5129732595148498 0.1406565324720063 12.765089459991088 -1.146886330727844 -0.8252775778055529 0.014082446234995102
Ni 3.374050629832067 7.5925799262733795 10.278417636504589 -0.29038630457289993 0.39736013692199307 0.5212477143072893
Ni 0.5551117920362905 6.6522936853900605 3.2080099902238506 1.9697023343667819 -0.7970908309586917 1.00164497025712
Ni 8.597957450448213 4.801840155613917 4.026896414391838 0.5668174325172883 -2.7923525018518167 -1.6970111330807998
Ni 8.867189334277723 8.58930536848503 3.1703617669068187 0.0401086950954277 -0.1428242663887992 -2.8543749663012004
Ni 5.068561348992406 3.790321239926922 9.026004038766313 -0.14266048711742527 0.3451402603853282 -0.20948525805145854
Ni 5.783706790397967 8.741253474591403 5.458233573781246 0.24476902095441716 -1.0823621829025294 -0.1781615082375125
Ni 8.291055876431644 6.265451354076126 1.6050022712260201 0.08866912050263438 0.42460303179834613 0.43636839986439035
Ni 4.310603502014984 1.30074298890716 0.11199919432771835 1.4873803505904126 -0.7562416581528137 1.6845808777372473
Ni 7.612124111419986 1.0280484056080261 1.4066801258076003 -1.5321064898531935 -1.0452516512034773 -0.10285466797439706
P 8.40017291012265 3.0973706754452537 5.637308336864741 -0.3660127329589632 -0.5340721197654673 0.2671962396096818
P 6.754989324916377 2.891652726631337 0.3971874959827485 0.2882232354833101 -0.5532340374058988 -0.7993361753494427
P 3.189724883671455 5.567330073944401 9.683246798312982 2.3899596876019227 0.18735911557638055 -0.6934231801646961
P 6.55345274904691 8.754142930029543 11.335527517418722 0.17592541981814216 0.22395234131938205 1.0093996745018745
P 4.609842336773978 3.6554439622031385 3.3773303942353703 -1.0033380416888267 0.012464451015597889 1.5664260890706698
P 1.410298693420465 2.3575103332430305 9.03735627964206 -1.0394602413326808 0.1923138884784946 0.21100169469598498
P 6.674983233666755 4.931500050578888 2.493283619454911 1.5410801541067138 1.3678255962525154 0.48043633671788233
P 5.190474503904044 9.135095872218592 7.766378506041033 -1.9558921679565673 -2.9974005500675283 -0.03623661373453114
Ni 0.4974303122729 3.4429592826197424 11.587070700345727 -0.03424657988769586 1.5115219808336224 -0.04938549241166333
Ni 6.099932452743791 6.652424353294574 7.276570799312179 -1.3510339786164731 0.004434381622269783 -0.6453394372835919
Ni 2.0689489329671873 1.9748120411865435 13.30164267621768 -3.298347917985726 -0.5467093489135036 -0.7705696447397117
Ni 1.3431353905002281 4.968833737582911 9.969118306440185 -2.2137640448415294 -1.0989668813387459 -0.10290583292730664
Ni 2.647201077550746 5.27553930974271 12.019204394048591 -3.638527491931669 -0.8522381655547968 1.3796454717055786
Ni 4.579583383457218 0.248185951123168 2.9914512720461404 -0.75018773864925 -1.2551482857607414 -0.2589324569389928
Ni 2.9551479948034287 3.653931947879475 0.6864013024389874 0.8298029764797322 1.5747466931212235 0.8958541024725346
Ni 6.504508285384635 1.0550686615771878 7.0132665716367315 0.7610845880674117 2.137836797385596 -2.5000062453390686
Ni 8.247804800037484 3.079599840431339 2.179326911936756 0.3708206958705678 3.1839633949948585 -2.698949466208623
Ni 8.78326320589268 1.6088299074861077 3.622986054721841 0.5564324897385384 -0.6923057787308013 2.5192044155340745
Ni 6.800312420939259 3.1138908319445338 3.979290363408659 -0.7799719118902181 0.3499482232969328 1.127605371011045
Ni 1.2641186419562138 4.669557569136913 2.0076563523283326 -2.227139951927803 -0.6907242931762944 0.723575021157728
Ni 7.57030104855373 8.286118496325361 8.08369524538955 1.2889945448862252 0.6336301192664636 -1.6555734347613036
Ni 5.824895180585155 2.4055774552607105 11.046814915710511 -1.5834323938206794 0.5485890824347197 -0.9235343419966223
Ni 2.7911131075295033 9.298561420765706 12.31760228750782 -0.2824734774837264 -0.7101983427405059 -1.271798235612597
Ni 3.937266631974756 7.224264437135192 5.389672124282708 -0.8463691083685294 -1.367137054825923 0.07818519025217502
Ni 3.8570738722901146 3.679953527721279 5.6791771334975785 -0.9134134515125366 -0.47682393677627555 -2.2573704686775704
Ni 6.99361691882434 6.733335786454043 12.194999392728784 0.3850610078396659 0.18403467918883787 1.3213899304977952
Ni 2.9414558650947034 5.293590147409155 3.2071625155288594 0.851804677561804 0.678938870505592 1.6150988716860246
Ni 2.4865168886854314 8.892912244623496 1.0427728117624127 0.015368769146586435 -0.10342133911114447 0.7441369044694798
Ni 4.877188869409786 1.5987778122602745 5.121040379471787 1.4662823922695327 1.499505415988721 -1.8110056197221007
Ni 6.54677001907319 0.5678519127264132 9.257247029384878 -0.1675783334050275 0.22487382469238693 2.7675966350633754
Ni 1.0184909817349963 2.8506510048791682 7.034057701929272 -0.08833282020913819 0.9319827298742918 -1.1925871751990686
Ni 8.476996304555179 1.6921026963485808 7.8352404917199525 0.9100622756521166 -0.2144418307257855 0.10634288363331364
P 1.3034403477932008 8.301471975105766 10.869817772308789 1.1877861542659995 -0.5261744621849455 2.6542384964544934
P 4.646364016085664 4.991541952703108 7.088493950949838 2.7741760880531063 1.427053014455265 -0.27712378313603886
P 0.42131532455127335 8.800268700323013 7.298918744352787 1.490186195470324 0.14827860463515108 3.5154942921268684
P 3.6790761860766845 2.2949764075112924 12.079132428427448 0.3033336087621873 0.0997235785445831 -2.8801996406737884
P 7.004826358347297 2.6905734884276695 9.270361420287218 -1.4496499259191744 1.3659553758129959 -1.2893431864748954
P 2.036459291851936 1.609380579369417 5.573704801000338 0.7980477955553223 -0.5596101161355717 0.5025725064952893
P -0.036666347348825935 6.209525490944101 5.384235406112747 2.3311647289509017 2.3423359150763723 -0.10919835080423775
P 0.40545317428543914 8.07508049711337 0.9717258720515822 -0.13381717779418245 1.2782576180846952 2.134467623803046
Ni 8.914864452581861 2.3423995234281527 13.350123268818928 -0.4568197257402068 0.9446035039620957 0.9382801328472291
Ni 1.605983213852051 7.28716236631522 6.250564546383273 0.15702086960415537 1.4960843061223137 -0.38413412515002227
Ni 2.8647164714579345 4.3251916402118065 7.7385247755095055 2.93044593842385 -3.225895259341954 2.263750146951669
Ni 5.018104871006471 3.7264619683065408 12.827380716757299 0.8258478484867261 1.1626055412353138 1.2591728335391024
Ni 1.413668058672578 1.3944692101307596 10.978609069580688 0.2161765540287051 -0.5378997210416737 0.3263406111803218
Ni 5.205538646610167 5.960127128335476 4.062167415188889 0.7640426422544713 -1.4523197594418538 -0.6989227698266867
Ni 6.931082993092601 4.561439211573263 11.228485303382962 0.39931880331026065 -0.38285500132728256 -0.9120443390791518
Ni 1.4758286475342763 9.224332717579957 4.11604459224657 -1.588429847035271 0.9062056209101876 -0.44646100821370205
Ni 4.675400291153043 0.26238768565949827 10.942436460242488 -0.1688955095545543 0.029381795596226817 0.12938999526076425
Ni 8.450806723121858 4.296528702014468 9.097420581978483 0.7854733013244214 -0.1708310360143703 0.0755706354474634
Ni 5.966623189874177 6.990378221476741 10.237941386397003 -2.006653971890467 0.33883385855132614 -3.232463656588091
Ni 0.3090781279689043 9.208727236412276 9.422101391088542 -1.7200369045520119 3.52396839103615 -1.827228766449182
Ni 0.23626063815190798 6.950823180095979 12.94669078034258 -0.041647243227141174 -1.8470404018584707 -1.877396902663141
Ni 2.5169345101719593 6.50686030766589 0.7746226715138436 -0.5055809543043099 -0.593761822316616 0.5979190390180993
Ni 7.489464282768269 6.762250727038659 4.3119073810336 -0.9325257468619553 2.145894634693066 -0.4107175320655056
Ni 4.4721836993683945 8.181994843271141 13.297025432477454 0.30184853957622854 -0.05341903905108865 -0.5621105139599222
Ni 7.521291250939199 4.987099243949629 13.550494100311694 0.23180243349142016 -2.0459928786994057 0.3692417814192221
Ni 1.2427731064116636 5.395436445556129 7.644868554949039 -5.800757630559965 1.8100232012041728 -0.1990712618069862
Ni 6.130611410039347 3.3585944834124017 6.250072675056995 0.5179183928237403 0.20827349713154453 1.2968652058835535
Ni 6.064400116137712 6.9279189631190095 0.8811599474328734 0.4432931520086817 -1.7865500577828974 0.03536706664538425
Ni 7.3066132172443155 1.2792387851928428 12.138732859702845 0.11837256110433805 -1.2893131045679085 1.6861127410007413
Ni 4.627426503352873 5.628837323283529 11.309600205136602 2.890257539130422 -1.0945435554600698 -1.723976091705418
Ni 4.023022111022996 1.6220366992637807 7.243663020902483 -0.4555298032841896 1.924992650164233 -0.37932359113525643
Ni 3.3929881425648576 9.347981888937282 5.030102984667388 0.993676864449979 -0.6957811388739114 1.6327731490373363
P 5.7427237354893 8.944507400063056 1.189304733226677 0.4497111397198836 1.8333065972121456 0.6309718557080102
P 0.7179016008486316 4.271263129334495 0.1099906419669019 -0.08275815433483813 -0.32025943798324846 -2.0924126036145254
P 8.924571211202908 5.643724130976382 11.11760331963884 -0.639885356147556 -0.5371476733669975 0.5188067089659646
P 4.243318864611984 6.067144142132508 13.251782603881631 0.5132240726718645 -0.5625954240161407 2.2919068118915433
P 7.927267096842694 6.226922989087975 8.410630075852477 -0.03165747900428096 -0.28690965887820913 -0.3440657963742268
P 2.6935975170749953 1.6071778918361794 1.6810089912553352 0.26773977081797756 0.9725873907695315 1.8580488371538324
P 7.337170840057109 0.024902502573858343 4.146821550470511 -2.7361070490955264 1.1628135434810618 0.2582074058475102
P 2.581017783914364 7.526331298684742 3.2630202446821026 1.4321252867718497 0.0014501021829652445 0.004624129035572681
