# total energy = -340868.4146952061 ev
CRYSTAL
PRIMVEC
9.21659174964853 0.00000000000000 0.00000000000000

0.00000000000000 9.21659174964853 0.00000000000000

0.00000000000000 0.00000000000000 13.48941365298053

PRIMCOORD
 96 1
Ni 0.8486960120900268 7.312784784947081 11.465165289099925 -1.5872239996526276 -0.2408321477938562 0.49403207312444597
Ni 1.4290693930900433 4.714010102827173 4.648424837040874 0.46785490050844586 -0.025291684687253214 -0.6447701950436832
Ni 8.492370260166226 2.6627746941519566 0.07273549754529392 0.4130479799708951 0.6409017132272122 -1.5008501029420733
Ni 2.1496409571294475 0.6979927579512543 9.647264486503767 -0.09030228523068319 0.30773096649893456 -0.07595347270817887
Ni 7.643227243383866 0.4943770514685891 7.7538899369995935 0.24669657699443318 -1.1851083503235202 0.6409510784079091
Ni 5.797079430868953 6.907263971381687 6.713033520119677 -0.3376920316373991 0.22636557874656496 0.20045220131491281
Ni 6.644148714542556 1.7765994123429891 12.000114698426563 -0.8179296220809139 -0.5483342861114363 -0.9197877304699965
Ni 6.970056609914859 4.5008672056132975 0.055457153283127815 -1.5590650207199086 -0.16680777378759015 -0.03335055043598773
Ni 2.974857702132544 0.8260407082916427 4.955416599824672 0.011383045025961042 0.5143533011803013 0.7336419184754268
Ni 0.8900075405939512 1.2187652060872662 7.513845652239758 0.36252708840320785 0.19735145090240205 0.02993175456242587
Ni 2.541521215135017 7.1863239316792615 4.312875465201589 -0.25384887176849835 -0.11284546063852179 -0.87507059006828
Ni 6.25060947004998 6.023411270654527 11.406904448653759 -1.8640770456257834 0.1658623791551853 -0.6543336703624021
Ni 8.244305697400877 2.682654882221244 8.770263399967941 0.6720431718270232 0.3074643431011092 0.4012054788100123
Ni 2.7377148004066494 8.497033855513031 11.437713671035775 1.3063127244496986 0.6811255937442656 -0.5759530762699694
Ni 3.235908442454512 3.3149775817435305 12.805675218536116 0.4878094892535018 0.09557587492479669 2.6098337450868727
Ni 4.11977957636486 8.071439305454865 2.5992889679308804 -1.3690000761765908 0.9121906348490291 -1.0478798328549437
Ni 0.6467088773421057 8.670600708420224 5.689754065069587 -0.6632533414495351 -0.2143698398372695 -0.6296567364410124
Ni 7.2528953727661705 6.005641682060374 1.879371781894684 -1.36242859360666 0.23728942474792036 1.3213089407482148
Ni 4.740858034141885 1.2226269579653521 9.357444155519639 0.28978003844746864 -0.7142627426178667 -0.5906356179828086
Ni 7.953393200312803 4.948517059357047 4.014341768524043 0.6518307014348902 -1.2268597232286935 -0.47643595730923755
Ni 0.15705809404316437 5.365678428106267 8.416260568438194 -1.3029936873787946 0.8764911245648905 -0.09885917366175877
Ni 5.486305178894782 4.994129971158114 4.731223009289018 0.15633258528787916 -0.039433009184641765 0.5366355096172694
Ni 6.221033427623303 2.243346043870496 7.79025768577224 -1.2020449781778588 0.7608966404263218 -0.9090294635122279
Ni 8.003549891769946 7.998674314816468 0.8751660631493648 1.1069511850958034 -0.6220303302440061 -1.5662515111660187
P 4.229447799747542 6.632480509583948 12.709051237237098 -0.2406010056196566 -0.3769944287814475 -0.25777057542040765
P 7.888757243460735 3.6905444726268755 2.146758928937855 0.2805032411312331 0.398583724916449 -0.7112257555637558
P 3.7987288247628466 5.886885899365539 5.528393666070121 -1.236059901670723 0.26448475421578965 1.4355893340610502
P 0.468639719441012 3.053272463418355 10.353421301289409 -0.39190811266848635 -0.5264757954754481 0.31583431233235926
P 4.714719780379948 2.234175535233991 4.992337344092988 -0.46749931694124003 1.7687765358495602 1.4399442685956363
P 4.646120689142255 6.491015045200319 9.584470926311436 0.9949055946507577 -1.8873092766808464 2.017247688245913
P 3.929023780133969 3.1851618891353213 8.571524192097913 -0.905124214920551 -1.181306460078927 2.2385222256228157
P 8.013549893649953 6.274554175012431 12.517177468445798 1.231679770325156 -0.2836477002974857 1.7574166307520507
Ni 6.869402213111575 3.312655000661722 5.478914394095171 -0.5136776152695154 -0.8929099322425462 0.544000691733089
Ni 5.438166920996829 4.247770383837363 9.650110569988142 -0.19227095105570113 -0.24974256290960858 1.9003182873460043
Ni 2.2007838238872006 5.930351345325092 2.474403230166557 0.05435389216053219 -0.15450864470526293 -1.7630386049245184
Ni 8.294416305900048 1.3360555507185812 5.951637063612536 1.4966499488177967 1.155058067905359 -0.20887899192602735
Ni 3.3592264379886148 0.6744517397006411 7.463773753425283 0.4647806324584963 2.1221270999598225 0.9377461147206302
Ni 2.974719453258627 8.196600619307864 6.150188253014037 0.9040104130310819 -1.5148405036838943 1.1878535171688251
Ni 5.762904309236633 3.3415674484935964 3.0758153247992865 2.2122771758833575 0.758323737492823 0.24772938913432177
Ni 0.39292449783322364 7.37748525794031 3.2019010627892106 -1.339300492229629 0.8373244816677579 0.3364131649249754
Ni 6.464250063209958 1.090497900866929 4.61221930028029 -2.078723021942575 0.7071621270173435 -0.11328434794815329
Ni 2.2339359038525344 1.2480371009913254 1.0513098750663723 2.3372039931664457 -1.3517883402839945 0.6211286443653431
Ni 3.5850144988701134 3.8515122448244172 3.998437618068613 -0.6568505232469849 -0.041352337694541684 -0.1531323331830266
Ni 5.175613876244961 8.743135284268757 10.874598357796419 -0.7874952168504566 -1.4561959545678083 0.40890156190268934
Ni 3.1493462141991837 5.300812056464338 8.081143454744689 0.13462758951061976 0.41644723546043116 -0.19405015444331097
Ni 3.1165351481228454 4.958093098023709 11.09999287021683 1.0386711697724822 1.0801610614861525 -0.9307604274314164
Ni 1.9447192596178449 2.1324704469889366 3.4248946530992637 -1.1314885081155353 1.3722352952844368 0.07037932105451106
Ni 4.974258999680422 2.8941940924976812 0.985402028574267 -0.23114628796466 -0.30620270277986616 -1.2227475008325328
Ni 0.0854479423315561 0.5647263734500729 1.9990639702955193 0.31726101747655683 -0.17525487611367882 1.117237654623476
Ni 1.5161477504746625 6.418544985492947 6.509721039500469 0.7708295832693176 -0.7219580543795954 1.1439398465050106
Ni 1.0698435191037061 3.7065997751844546 12.363829974178568 -0.717974387141499 -0.6248397746683432 0.5394686081906902
Ni -0.033343785070499045 1.0742029669278939 11.22688782494875 0.16199106912523717 1.1037205939736474 -0.5100155930368958
Ni 1.525908120973214 3.635244923060013 8.588776729903616 1.209533316135104 -1.952418864695986 0.030526964944263553
Ni 3.558867028516582 2.5394290488430706 10.732932893375189 -0.1728902325362442 0.40144304874211506 -0.5578586806621039
Ni 9.026582342165305 4.293622927019886 6.261718227898803 0.5514396645096373 -0.2587527368280189 0.07724365227451213
Ni 3.148249439799441 2.9813922655730285 6.720574535362278 -0.726410176613678 -0.0475461252100794 -2.7340313975134207
P 7.992388599349035 9.092527055023789 4.275078223072639 2.923268189728488 -1.6124197821919648 -1.0553396315670986
P 1.0676315371210316 7.333144235779281 1.0623845315262959 -0.69398676597765 -0.9724058708863447 -0.17950876629402632
P 5.541586295278456 0.11796499913603056 7.038250171122394 -0.32760456549440997 -1.1914962561277351 -0.6401221547487105
P 7.317605062350993 4.272433982944183 7.39864655224123 -1.138970161204561 0.07389221930377597 1.597529238233378
P 9.031817366190968 6.357558798912292 5.286365970799155 -0.22576034106239828 -0.0881970659622223 -1.4147677693300085
P 5.253936471614828 0.705189072668222 1.3103062371219312 -0.6086631649084807 0.5314814762201556 -1.556538911863945
P 8.03663745559412 0.5919789131357821 13.07132227308625 -0.8975350897193832 0.27737240881173525 1.9723644545799772
P 2.700682535380041 3.973069871363975 1.9304704090127836 2.39982012533577 -0.043688956247518305 -0.11089167934626064
Ni 5.111070085308839 4.3876505944667406 7.2799939953722514 1.6378551915459343 0.861963877482993 -1.9425658831613057
Ni 6.859005897793004 5.9385541118441765 8.850552815984068 0.4112816320990917 -1.6533494305267913 -0.7652428332101594
Ni 0.7303125796956069 5.1403604133960865 10.649635181862624 -0.38819055460758306 0.9056726312248532 -0.22667565378781604
Ni 4.6383695356113 5.36438810528304 1.2112564489152458 -0.32217876649314836 0.3735733189150405 0.23156409222836893
Ni 7.6816880801076195 3.7792633833153118 11.399066659161814 0.8015169850508453 0.7834344165175218 -1.1495649060012718
Ni 2.242193969921186 5.7915586925038625 13.123634725317343 -0.22300180448065465 -0.07560405978856011 0.7824036612601621
Ni 4.981623056364409 8.373623694062983 4.793611039451194 -0.27609431343026003 0.5444529487791591 0.8134674725445022
Ni 7.238923019908943 1.6125532985528925 1.553751444180129 -1.2442012998309346 0.05649999196925753 1.0736060339764544
Ni 7.420526740686518 8.367043047664527 11.605521997514737 0.585589828028785 -0.40709639037315043 -0.03600598578096379
Ni 0.7247015187328892 9.082388804269863 13.148481734596894 1.1889601199694426 -0.6408060681896125 0.2281913191013941
Ni 4.459263511155828 1.44754865923697 3.0307342103332204 -1.9187176157887984 -1.0586800087942412 0.1890727558333776
Ni 6.572756996051736 8.755835747485946 2.511364527437888 -0.22249915381262325 -1.3612173469073783 1.6651705915314354
Ni 8.551688243668279 2.221816085905797 3.930437605284562 0.7611694344717342 1.2548724063915355 -2.0607569243824573
Ni -0.010092167795952362 5.221577018526618 0.7474757165628421 0.6306322129804043 0.45992279014556275 -0.1776722273059198
Ni 2.853097310577908 8.14166973340478 0.16312629794896807 1.1937716824254732 -0.06851989924826908 1.4197983897753805
Ni 6.747733987472883 8.145973881679401 9.0797242876399 -1.0242889329088811 -2.132051043941754 -0.3425748136509971
Ni 1.02633199018618 2.9917332813420314 1.4293919737958503 -2.262224197225446 1.2866715531800035 -0.030567331263895745
Ni 4.403328016768946 0.9253273629023062 12.600636470311265 -0.041421500369580276 0.5001996353877385 0.9749062687106952
Ni 4.049069885652032 7.766655838017104 8.188397852788778 0.8331901477844103 1.604226190637579 -0.6587965912297622
Ni 2.3682216433840653 6.921890702242122 9.593333600788684 -0.9250088696596199 -0.2804474481926331 1.285893023142766
Ni 8.43360527215984 7.180360796917635 7.1511156301292 -0.9205318077248728 0.9094171858689498 0.6917666183978796
Ni 6.767383760752309 6.837687921434979 4.532807303783957 3.35689630784358 2.7461166108127286 1.0640705836821933
Ni 9.173983291535775 8.817734376634455 9.325946453745512 0.4068158830182542 -0.8018124048040771 -0.1832908590442779
Ni 5.430277518591956 8.212001543862234 0.16610970864810032 0.7701158450317447 -1.5341276340482806 -0.8393705655635093
P 1.7352445658585707 8.1790153625456 8.02146602417045 -0.482551326178356 1.2984091533319058 -0.7631414705964406
P 6.862674101247607 0.7475780207295407 9.911966840415467 0.5968916261948495 2.807515068524868 1.1672209285201383
P 2.299438220314483 1.251742170812305 12.41168989101037 -0.5411722211453583 0.43841962596646433 -1.457064730326007
P 2.03028609598097 9.217052424056767 3.10850012357078 0.42308659515381974 -0.924271477272963 -0.07709041452609948
P 8.418545361494465 6.855153362506513 10.106808351700188 0.3274096758747845 -0.6521058094731479 -1.0618375805866165
P 1.1476684185274704 2.609834592033281 5.734511677170687 -0.1072563965865185 -0.665492515192699 -1.1480453840329519
P 5.332793629297173 3.6284338618716947 12.040420696787528 0.4507321247852302 0.015534605300489375 0.006951491617168673
P 5.396443410848631 6.495909055336987 3.148874324709546 -1.041152027212807 -0.775085016111562 -2.666366390066279
