# total energy = -381176.72970063094 ev
CRYSTAL
PRIMVEC
9.09244120276296 0.00000000000000 0.00000000000000
0.00000000000000 9.09244120276296 0.00000000000000
0.00000000000000 0.00000000000000 13.30770677829601
PRIMCOORD
 96 1
Ni 5.803268863515956 5.948829756761925 12.61265909462919 -0.05823960036818357 0.6198387219093261 1.2842076650205432
Ni 0.834084194443574 0.7762317179955676 9.111800046460125 -0.9693321170570275 -0.16448606763294898 0.2638085540843715
Ni 6.232150228593047 0.7000461520946377 6.596537088830842 -0.8253624242098754 0.6900956584533599 1.281590024892038
Ni 2.238431761175114 6.24422499067879 7.268723091447375 3.6805264620712737 0.53663679516885 -1.6881292572101378
Ni 8.2622286966998 1.7307189297701715 5.510069454180195 -0.903726820352392 0.10205325511902424 1.3384563990617788
Ni 0.14521083425477954 3.566510111545492 12.21542397159986 -0.11643369221041237 -0.11311568358077292 -0.34793042153595566
Ni 0.2849752961531136 8.476837589402944 11.28545452787059 -0.011825531880018343 0.3462054684250489 0.49341295148320824
Ni 3.824544504038926 1.650114437383044 3.3467949037916305 0.2087301250529889 0.6868594109042494 0.6847637047174852
Ni 2.1293497425436003 7.396891962918038 0.8080288945693999 -0.9858375709112184 1.0279550689065586 -0.4727852479305277
Ni 6.311727275109927 6.843125916178543 9.963586314928346 0.06681962872771073 -0.4778752608589254 -0.28884364267612833
Ni 6.21340161457136 1.274023786665756 4.366298526537853 -0.015577542723282848 0.575228539399119 -1.3078882964669345
Ni 2.2619539068948544 6.8374249554648685 11.793795646971407 -0.19091803657223247 1.0696676181539964 -0.5131893627791873
Ni 1.848275103720896 6.620642969283944 3.041756226600566 -0.6173221261350593 1.28662064533741 -0.2706790559519596
Ni 6.868530197253516 2.6464005111940683 8.196908598187772 -1.4510540053555525 1.2585393137201617 -0.1413286556798792
Ni 0.49295670837109384 3.5498072968229706 5.216381780745035 0.7804424237687333 -0.20085329340807342 -0.33122107920107474
Ni 8.097791895253527 5.631930899100497 0.05921907037984905 1.9108238148630192 1.292286842484252 -0.9274223641971188
Ni 8.533583515741135 1.8213887547091943 3.355844610647006 0.33236727699037605 -0.15445953663488235 -1.4889854902940034
Ni 4.334194025447079 8.061385760169708 12.895926830300601 -0.3542036561391771 -0.609365333181828 0.6491030180910821
Ni 6.445686213219296 7.623757466533516 1.0774115630863392 -0.1863990656559564 -0.32290176070210197 -0.13411645420215612
Ni 5.335353647810782 0.4948324790173955 1.9839925199834136 0.34305201039773175 0.272305278701473 -0.5420140003203633
Ni 7.9269358302285395 4.8216034353629675 9.020203701749612 -1.0527605579860129 -0.45147568781947406 -0.3875421223903068
Ni 1.420994008317818 1.1714610484675836 4.535718895076892 1.0733401819095774 0.2820739280524626 0.8064200787794176
Ni 7.7047347490151585 1.184044987267785 12.161660366017784 0.22878704370386407 0.8341928780173117 -0.7168994089097653
Ni 2.7347244862700473 3.52773994171597 4.320147112836941 0.2372179480800366 -0.04879362446393532 1.1674700684164667
P 7.208160158239007 8.772041882051886 3.0137696921879793 0.010335577598053168 -0.1027849910787262 -0.26293797855396006
Ni 7.4582295721276886 4.914400891573123 2.052939593341829 -2.3029934087230077 2.500321205476326 0.7503823711585592
P 5.155750654226695 4.967318900111542 1.5295213880282248 0.8711406588862546 0.7997917748296226 -0.33856414982970723
Ni 5.195075462977324 7.716491275654364 6.24679724233094 0.6753274990052498 -1.4172550545282367 0.19329527855515743
P 6.35727131373002 8.468345249201073 8.436540798674178 -0.8924728447051276 -0.8226519672572478 -0.7890270801139508
P 2.1622461952741845 0.014016907553750237 12.112395700405608 0.9577135589814924 -0.2901351077940423 1.315831462573411
P 1.08979274044489 5.427087288385371 1.0604123347764718 -0.06806738509188277 0.37542785562527603 -0.08492430874822149
Ni 4.022923388968689 1.2172233056795871 12.002686303322351 0.4221540560372213 -0.3181159092776844 0.47761712210153223
Ni 6.208928133437184 6.65808564267934 3.6063350045692504 1.5521865484325204 0.7477544466174091 -0.8534972347728784
Ni 0.9015201040530053 0.14182117212709527 2.1617042857709388 0.26104256130346004 -0.11379136949155887 0.7337805009358201
Ni 1.7911563872881904 5.613054990900196 5.074734274247335 -0.12771569288213488 0.04775721277962098 0.14576920794973605
Ni 3.0197907068364573 0.8866585086997328 1.0192772209571144 -0.04369049890941507 -0.9209413844584655 -0.21327377855961335
Ni 6.870748752937945 3.6091354764987753 0.02124630765493525 -0.6868360138654815 -1.0227508989977998 2.2214747832222255
Ni 8.719378461870695 8.286050892983418 0.3942327989022891 0.08337984707923705 -0.37959664229098494 -2.519215214167352
Ni 2.678878711623489 8.021169892168775 5.506024227032645 -0.7716847321807613 0.16092997485057445 0.44059786456470573
Ni 3.981598243125543 8.10332009958194 10.48351847823617 -0.5709533090625327 -0.24873803290449423 -0.3874212805417263
Ni 5.90139449034527 2.274456013723089 10.770326810561336 0.6137770890962784 0.6767596034660861 0.08170374492839477
Ni 4.102582267457536 7.347056291990362 2.1379766508771487 0.970363129424703 0.23250588731634797 -1.9918220490839569
Ni 8.471736729817023 0.334578200582751 7.20532513503243 0.09076174136560498 -1.209971432113787 1.1180611789660357
Ni 4.035971042276701 3.1041140077274014 1.3355477909226652 1.5764703606805495 -1.6476472379356915 0.6964177440166458
Ni 8.747092223043394 3.0873020837089244 1.22981997389765 1.687547673675055 0.8309756566315947 -0.11908372823874976
Ni 7.460466312694778 3.961422115815104 6.523663899306294 0.4622910332674232 -1.1385955514739616 -0.8190537083830282
Ni 1.8055133521476685 2.445530297339988 2.4109835665080768 -0.9670471776775925 0.5883424510732578 -0.9160629733202418
Ni 6.571962038405131 2.983748269405823 2.4398747988329608 -1.6937828559514894 -2.396215695813963 0.279499482457067
Ni 4.886687130400425 4.314199746963233 3.6372756731698326 0.7984874541959022 -0.5124396290973562 0.06012858986078031
Ni 5.16776176922313 2.9780109389268294 5.850334067570493 0.6224627897957344 0.6762901200288353 -1.772625220171689
Ni -0.08044082844319432 5.640977878223475 10.979523882185088 0.7920622673958488 1.798902408700663 -0.011072198653761576
Ni 4.730497173240124 0.8777133649196476 9.266795256829711 0.7034574244722466 -0.18428433330579877 -0.4297478092240792
Ni 4.564078219583993 2.8719476108167514 7.905615873798834 0.5920777497459738 1.624188235581803 1.624146840820906
Ni 1.9866347834338027 7.906350543058268 9.17167195412744 -0.32228495305370947 -0.35404296219159676 1.1606975255793235
Ni 2.116238442146281 3.879972026384322 7.0701314433904985 2.6277188528974103 -1.2914964853724724 -0.35491482327358875
Ni 7.4494008115966235 0.9568521557644395 9.350966713950452 0.9097360026609493 -1.0692261597412038 2.1471447050500827
P 7.782038685199632 3.809469236314407 4.067008090755377 -1.6904329656426498 0.29005257538256496 1.060103628614645
Ni 7.368741764561517 6.762148633696901 7.322286663320197 -0.7805321552690622 -0.274350848376592 -0.18075292311377256
P 7.502882551497478 7.261241830721359 11.84705280357142 0.3964412246521495 0.010515554819343182 0.4298357409521952
Ni 2.3835471247959323 3.030065165538934 13.036482334594611 -0.07265629001414584 1.1034148898077707 -0.619592667336791
P 0.6665086822503151 6.292514946580429 8.694617016397727 -0.36171359136297704 -2.234579438924984 1.1775565061181914
P 8.68507268073402 2.5370002571160177 10.352039048877392 -0.13280056360421 0.19511279137987045 -0.285969663562443
P 1.536331626584114 0.8946198503279527 6.8396025951633135 0.3404593099698911 -0.3566917126683534 -0.5438749647885021
Ni 2.892878410757548 5.496098918077227 9.163859728537027 0.3982880480529012 -0.24676548255915567 1.1695863434285214
Ni 5.97976224216531 5.235091297269005 5.6797562312501935 -0.389536012891884 2.00485728500136 -0.9570157615835198
Ni 2.6919718271381496 1.9161865480118665 8.402726009369301 -1.035045657204753 -0.8357753920130832 0.01825303267291695
Ni 1.7358288817974208 1.8481569019836108 10.973295559874295 -0.9310707595829836 -0.4262847903761432 0.19362695086296333
Ni 4.0710042187197475 6.49020280596914 4.145909568881466 -1.563974542206384 -1.6186189690241415 2.539912080395071
Ni 0.5709207557960982 8.051293150293823 4.3889878046318 0.2390125780866142 -0.49084159121160625 -0.32595263171328376
Ni 0.5211505504459957 7.427569859964193 6.782072900382509 -1.4064433086247132 1.6290303941654525 -1.3420713701065468
Ni 3.6380767172509723 2.934740010639143 10.490119590641479 -0.008332945345727585 2.083453594649025 -1.7330626273877185
Ni 4.344259357998974 5.709398499228905 10.859953732479852 0.7940397028371938 -0.37803006913481346 0.3604884607066243
Ni 3.7849196447244196 1.1512030891851786 5.96325036871071 -1.093570392913523 0.05326425864077923 0.39033022665840517
Ni 8.526991495777155 7.117772198981203 2.227058026315886 0.35558768097089727 -0.8361119494168955 1.965464385026034
Ni 4.898316362861016 5.769254040501828 7.9269885663882516 0.16836637652396166 0.13063646607335566 -0.2503467721525108
Ni 8.537893332931377 7.8031331490843625 9.296272042376225 -1.3946226618407014 0.25137212809323156 -0.35156544718538163
Ni 7.03584021015995 4.374246229504078 11.39717244524356 -0.11843272491831217 0.509539938952058 -3.6992276380252034
Ni 0.7153714619557211 1.3789414671683013 13.349892422517861 0.8868763244539564 -1.0314581969638106 -0.35450293254715076
Ni 7.610200636511045 8.398406190493596 5.154234944257047 -1.178961356885518 -0.26525891337765284 0.07596967065809497
Ni 0.2482736567260814 4.985158270000267 7.016874286790484 -0.8963480113898176 1.3501616033138488 0.4830061543275875
Ni 0.343968873987988 4.578371537354164 2.9598206008027814 2.965659767320821 0.35614175370215434 1.0521969721730589
Ni 4.589218819860407 8.72243352215745 4.329622345946543 1.5925186723926636 0.29371536894613287 -0.6810710863572464
Ni 1.182781137922967 4.085597587053796 9.480383977615672 -0.7217217699990732 -1.4933774487141118 0.6354836275354345
Ni 5.976452593521326 8.89103466173269 11.304910533827721 0.7713597447411747 -0.25256306307753923 0.2143806384705469
Ni 0.07214124799751241 2.5117232702196595 7.703152664223803 0.7737565271081255 1.4457410777830715 -0.09779576539425093
Ni 2.9376586843059527 4.803327628290422 2.2743805464600535 -1.1723106843382196 -0.38611695990800593 1.7181841676139893
Ni 8.174113847774402 6.02003266481422 5.033187272835747 0.666300355805975 -0.4959742844524813 -0.4281064169659143
Ni 7.691914406740388 1.0847464355069478 1.218324400324605 -0.8509377015758184 -0.9725069152405832 0.7955664238943653
P 2.4787722628410975 4.800772652276797 11.366937350090158 -1.1812738070687785 -2.2371554271822762 0.3710063295188126
Ni 4.691799742941239 3.6362673214263768 12.439539011713125 0.484478625108056 0.282096810870598 -0.10418984184605282
P 3.926388939372058 5.0726093707086015 5.873529794646501 -1.7838933368863408 -0.8982724821060402 0.40691152805585407
Ni 3.6249472319709932 8.47013646014301 7.72590922638359 0.09442427781885673 0.22345894662273127 0.28586476255346255
P 2.8447157490345236 8.741700405334926 3.2169121071303333 -1.7838095189232828 0.4062592391838359 -0.7779080873826538
P 5.568583860356998 4.388175849621064 9.513426818651663 0.5938227574615386 -0.6705053950262582 0.06417704889854109
P 5.862542488543782 1.7182804700312442 0.15807936646859813 -1.2583485378655943 -0.6705413904705161 -0.6614209162264867
Ni 3.3767053987895657 5.442262572964515 13.522493327034006 0.32929737981580065 0.4964566234055386 -2.0070398944749757
