# total energy = -340890.52377887955 ev
CRYSTAL
PRIMVEC
9.04961157919037 0.00000000000000 0.00000000000000

0.00000000000000 9.04961157919037 0.00000000000000

0.00000000000000 0.00000000000000 13.24502129489902

PRIMCOORD
 96 1
Ni 6.296610956884695 1.9716840650187313 11.643406383900711 0.5032934438217138 0.8387298466557168 -0.9809133941367236
Ni 4.726792981482886 0.32908640054704147 6.064616931163491 -0.023075393762224776 -0.8100785014676113 -1.0559178726680718
Ni 2.665816401629778 1.186720779649943 4.901226954441947 -0.3471251520258409 1.2450093975545269 0.990107916151798
Ni 3.5175929673291835 4.444535604601948 5.411968917776552 0.005923307462970444 0.3900476624209799 -1.8513426287782504
Ni 4.819352406001585 4.53728507095824 2.535892036957064 0.9590299638000709 -0.323983680912371 -0.7152945263164907
Ni 7.143808419259261 5.865605118836974 2.309918717643007 0.04774332882255003 -1.1168015955273216 0.8040479790028152
Ni 4.902454986697244 4.651717406022666 11.209353541723598 -1.0521468356614139 -0.08536576716101428 0.1461780133523805
Ni 5.64263174567348 7.715083232672629 12.424637609563641 -1.117412232528127 0.8600913430506284 0.572135245185776
Ni 1.8489351371568192 6.459829746542425 0.2755878133425837 0.5509691526311221 0.47391961864528703 -0.2530801119232738
Ni 2.871179231176399 1.587500915909195 0.472867530063618 -1.030410986646219 0.8442091246027331 -0.11279326724434768
Ni 0.4904771687193607 8.971766557390431 4.900711126597055 0.5638449801525257 -0.6505981145793698 -0.7979722051223805
Ni 8.595854753021811 2.4447072483969485 1.571005284406195 0.4013741431773926 0.030987963741082116 -0.9369058782075219
Ni 7.251028214106499 0.39759286315449205 4.817373256007232 -1.2091224538499306 1.5642380802804159 -1.4039526809923755
Ni 1.0659084686092084 7.358999126692791 2.577467761255442 -0.2595598061103465 0.048306143304555516 -0.2507779461526584
Ni 7.748096214745782 3.658839300716733 3.542540030838247 0.6826613136625018 0.7476284625625059 1.6013776654451906
Ni 7.4851416587974215 3.9886161866070258 12.963445132466084 0.7344590150600835 -0.5959454602314962 -1.2206510233148204
Ni 7.901894359025729 8.776611689405902 6.877424060622927 0.437627211972156 0.7080460722841935 1.7452990215529103
Ni 6.762855981388792 0.827521797455857 0.6437784893381734 -0.0667995741230527 -0.8619253109355737 -1.5824810856510039
Ni 1.53452449127755 6.890880832646715 9.01450787162604 -0.08229946953086473 -0.39834332677086876 0.7160324329237797
Ni 0.28769257343607335 4.957947203274157 1.2203455154479168 -0.9636638630276566 -0.2852687808406764 0.3983548967350946
Ni 6.497584724944068 2.149590373838941 6.605662422943865 1.3633014831299166 -0.6814071295404265 1.4051176478347542
Ni 3.319008296656683 4.410119932775138 0.26153376697207725 -0.26092917565404733 -1.3444051604460459 0.25085970723318735
Ni 5.950291381512569 5.74671132539479 4.605492896392331 0.2667244421795858 -0.38721713495072024 0.3160901370969072
Ni 5.198341078216935 2.63799789645081 9.466733238282623 0.40168884620433404 0.7681543504299997 0.18692639891433613
P 0.03005104429010993 5.904808035048845 12.302571022394797 0.18221125282685394 -0.5944719610097634 0.4688799993388506
P 3.9898559833570317 6.143844468294535 12.565657702668345 -0.9639621109943656 1.4998669130931974 -1.2440981985941673
P 2.3712877518071744 8.480825143610666 1.1911813330665704 -0.11444982901116418 0.15568055352617705 0.7023544212160548
P 6.2836790623171135 7.7812901890452135 5.793809122516917 -0.0455280663387861 -0.6678016229418499 -0.7960988993590676
P 4.721209371302201 1.097355867925055 12.664107519191267 -0.2179513865409408 -0.6529108218729466 -0.12339701090212296
P 4.073773029070945 6.187137808820293 8.205554971625201 0.37604337772208785 0.10495423081590312 0.36343314515724506
P 4.744023441424575 1.0081719484264453 3.897055839177383 -0.1159148435924649 -0.8009667689743303 -0.6091280203600412
P 0.3074786436128121 5.288991034748398 3.5586058058038357 0.07169572587308942 0.046202723808307526 -0.4244518509324625
Ni 1.639418536017112 1.0516824796237374 2.5947525188650156 -0.0006589737402375748 0.17601720820100009 0.16098113980348405
Ni 1.8536318854287401 6.32953344284471 4.703585253268357 1.0363623191336475 0.4596847059928277 0.19104736306124517
Ni 6.083483560830737 5.670667441523981 9.143474787421743 -0.9917351673425758 1.3479998197758398 0.6743525366864902
Ni 8.474617110249323 2.5348142282495774 10.2901763759193 0.5463054286068656 0.561998156751774 0.7073989256184978
Ni 2.4063459460372725 5.249426134083973 7.309662455731602 -1.1022740913351081 0.41699590887504956 -0.6226095997862439
Ni 0.36246679683953986 9.496571616706857 9.410600309224685 0.6485815983699734 -1.9661398138265045 1.2489053901748233
Ni 1.5062987535894565 1.2565385309367796 11.60217454483226 0.2677531405544163 -0.2728426392621817 -2.0511355992426092
Ni 3.981331249499326 7.0299824081528675 1.5325552958556428 0.16289326922453234 -1.6731767496653638 -0.03826701390099861
Ni 5.721444810606345 7.942445667323372 8.029661296361205 -0.6261746914296829 0.3108353164558711 -0.38826974458495067
Ni 5.293570138073238 2.894282888860818 4.753306532710387 0.6622323563841885 0.9543657255551822 -0.06810286631550852
Ni 0.6355976407103963 7.227263934796164 6.698668898261472 -0.3293233479577296 -0.6080548419005206 0.4196377173732708
Ni 5.395333017298187 4.738928510254843 7.0736621670817295 -1.4489418441085562 -0.5724167809819367 -0.24661353036232367
Ni 7.988363395130165 7.348872611632523 8.90085289817348 1.1317610450506317 -0.34694131814980894 0.15385352761976728
Ni 4.565682751261297 0.3679372868788001 9.999315533562227 -0.01901459342928983 -0.1251517888097006 0.7430040764166171
Ni 8.121048796214753 6.933685494161522 4.125611917560431 0.4075723015683046 1.1978193701322855 1.495574970586063
Ni 7.357234452486578 6.184142387475387 6.681159710291313 0.8987514786249876 -1.068515249717108 0.5571639685879243
Ni 2.334120998140935 5.04653384842605 2.530938279723829 0.38432155857048006 0.8629293267200557 0.330101877994967
Ni 2.3551070467778987 5.476227492833252 11.028148649579464 0.04017580088793726 -0.6918887457980407 0.746031036168399
Ni 1.5153031168467996 3.252339810107088 3.9834669577694095 -1.2753268175911456 0.06555181775888066 -0.009018915669158661
Ni 3.624713216451968 2.7026845181226578 3.1664608086603194 -0.7891548639410667 -0.5430797225807164 -1.3340765248265283
Ni 1.0132125819282947 3.3337501134870466 8.15983362038392 -0.8023263683260182 0.24400694597741202 0.031787833934558155
Ni 4.05246119442668 2.6400069101624983 6.874497416324008 -1.1619239417872569 0.6620384952058276 0.20101090203186026
Ni 4.12374498274637 6.889677234341964 5.9101934587417535 -0.06103747482829487 -0.005067130110262242 0.48893511821751284
Ni 1.038886329225865 7.686142575690736 11.548346551775978 0.08425376504375812 0.38751178337300357 -0.3292148474043234
P 0.1703308791893336 5.434834570683416 8.035992404436419 -0.3587671071401434 0.8863970708246928 -0.28245856508539097
P 8.450436548818548 1.7352901182767035 8.047688122098519 -1.1126937440065354 0.2909509188271183 -1.2631734700580632
P 1.5065611923175597 3.4655305534402436 10.495699383586178 2.296671580270038 -1.2213639902214448 -0.6711895655774763
P 4.035828008831708 6.040389311753885 3.6410432400679236 -1.616106744125249 1.8425306869135751 1.6405142264353358
P 6.74585176172995 3.9446350756214104 10.426652659183285 0.6317383015603893 0.04018531396963402 0.2510916207383353
P 6.3264746742206075 7.759562072280509 10.194573567115732 0.17630285776221896 0.36620762257858863 1.10646858903243
P 2.3076418354364265 8.321932068160987 5.9647626149646475 0.8529619310946988 -0.12128999186144919 -0.8075019989896867
P 6.676233101892019 3.758882753792038 1.6460383266932395 0.7281431001443847 0.5651708980528007 0.23779953161511952
Ni 5.006507417584613 2.700720752467539 0.90920811398089 -0.4342271851516715 0.12940053678372554 -0.8279834067724902
Ni 1.3414057858386528 0.8783579890117617 7.273079401995109 0.06939253166120952 0.30923660451018353 -1.4857785533209316
Ni 7.020887548782385 0.8437658497643302 9.50458685744759 -1.2219136920773277 -1.2922847856017228 -0.6129985590590411
Ni 2.497321688576037 1.7060327248988236 9.154190432178545 0.9295761773153282 -0.4208998719151461 1.166596921782894
Ni 6.408608946505679 1.848862740266308 2.7163286171006438 0.0040230051164640394 -0.9882017002680207 1.1377455447688407
Ni 4.0450586123719 7.087203100490737 10.374599294905659 0.7249546751140741 -0.7474471997896354 -0.6770277695258082
Ni 8.241689164640523 7.051991062868304 0.5782719728812848 -0.2179596140710569 1.128932317352585 0.6547895269528982
Ni 7.398319687851742 3.995475791982972 8.298786782264523 1.6396991867332082 -1.1018426602246443 -0.6217853041127356
Ni 3.3188454036530324 8.48562143760704 12.348279704180241 -0.6893808917745224 -0.21900271062359059 0.21379468406008983
Ni 9.066534087069725 5.042751110896834 10.408003220187574 -1.0638952344465937 -0.3035002162470386 -1.3836376235841072
Ni 8.903550587306157 2.310003783989358 5.704604388912285 -0.527743349333962 -0.3102398489637173 0.4255332569220994
Ni 3.5779448251816675 2.794022245113979 11.559671235374207 -0.7579061903394302 -0.652039989232219 -0.46343491706387924
Ni 0.8453350523661627 3.281895840658327 12.647591073582248 -0.06857620640750124 0.5749755428480485 -0.4249532160489133
Ni 3.1871645094242886 8.354085337159319 7.968429816289009 0.709952545278287 0.05484548708497006 0.2849381369741351
Ni 5.829714360365997 8.036896460606679 3.451387820878861 -0.2464096418816337 -0.04197942975557931 0.3442642855382781
Ni 3.3475507707407637 8.26577922995816 3.8590556163091323 -0.14715220434019172 -0.9837020126254543 -0.9476677447097164
Ni 3.37550502008944 3.9927066109209144 9.03273378881226 -0.17178003019120094 1.0685417320796695 0.7678676724275163
Ni 6.8885641321503535 5.898210868401002 11.509247706094218 1.679845677045107 0.6396197611909953 -0.41452379318547317
Ni 0.6762367302377841 9.53964776656108 0.33792787080073416 -1.2423549906508153 -1.4544388626673854 0.6511560439653689
Ni 4.508353463587661 0.24022012240555005 1.6018526944919291 0.4671110803638859 0.5817542563327787 0.6639611661498372
Ni 5.75677449317586 5.4769243129044245 0.35517190515939484 -0.36754793865656704 0.13802967321363324 0.42846714273944275
Ni 7.843108083930551 8.296466461923638 11.911830524927202 0.17623266664591586 1.7004726092668394 -1.3506200310075063
Ni 0.47251640514463816 4.653916461571947 5.7978352945904765 -1.1662264258173527 0.49293575473647366 0.4628283938281319
Ni 8.147021180685682 8.883297557185621 2.3605015200821224 -0.07763574550660823 -0.36664445300569115 0.4905937368668583
P 8.78886486312494 1.56086790981235 3.5967119091244597 -0.47636345220008924 0.10877129056914815 0.2699702028103931
P 1.712331254373307 3.2994158881620623 1.4337335403077158 0.9617342501051115 -1.4708602414482022 0.5079219437326608
P 4.949313874080685 1.1545132129837277 7.968986367384814 0.5228687948504801 -1.3117634631516248 1.9948677778888162
P 8.29203215237982 1.6445315664094728 12.437180370844725 0.30982281603095674 -0.22534279390900547 0.08906687016168532
P 6.200060653776561 7.562733026202909 1.3754685228242203 0.5291564276314048 0.9858923354085537 -0.6306764359547784
P 2.008353090062706 3.0033397548047795 6.17702758306039 -0.034834848290998074 -0.16705177147759617 -0.1327180311927327
P 6.974806927971942 4.108098204784615 5.758577175749592 1.0715787191337802 -0.18141806750159725 -0.4101598597898226
P 2.3883010210773303 8.585610593014462 10.111765098787775 0.17639901702045105 1.8334037849116427 0.2476355438689348
