# total energy = -381165.9268274956 ev
CRYSTAL
PRIMVEC
9.32111194684591 0.00000000000000 0.00000000000000

0.00000000000000 9.32111194684591 0.00000000000000

0.00000000000000 0.00000000000000 13.64238952664137

PRIMCOORD
 96 1
Ni 5.440434816784214 4.026086561681023 4.667170276489541 -0.842843097493142 -1.6262754571281348 -0.2915731257921495
Ni 3.3510982339717277 4.499962576214101 3.2146520676202845 0.8305120867316149 -1.2044972963730933 -0.9272732402137642
Ni 7.6523999494737085 3.5964858292941733 12.626891018063043 0.5564142349060933 0.6948740536786098 0.455580454016467
Ni 3.509631707391319 2.7422711594569447 0.44144040888835256 0.9953051440820215 -0.8094007586742963 -0.740386436288112
Ni 7.844256398403356 4.980568433633406 4.121816246459591 -1.2476386076472576 -1.3317172805657322 -0.2167612228875815
Ni 8.864377541276527 7.798666839460787 7.444078688252883 -0.3234951713117267 -1.3600441525348834 0.039597045566331805
Ni 8.95084949758612 1.2707285609328565 8.76837288369305 0.9170698173182013 0.3443874413797037 1.81425986499334
Ni 5.718455625326438 4.4252538632873595 8.837158029924229 0.8047761154180914 -0.6511161918663689 0.31921711276166315
Ni 6.503535607231336 6.606263582922616 8.362498109869362 -0.8349755218196071 1.993873789406663 0.6726481524008738
Ni 1.954189779478135 3.6666551606619233 10.569304939161018 2.713576986313811 -0.20097387814633774 0.9831620809615843
Ni 2.00210029531637 6.01746757816199 10.113526795746912 -1.12629539395037 0.2347466037214086 0.819065278347254
Ni 1.8916544388635987 8.441888817369167 1.921107288658473 -0.6427462226351188 0.28801729012009103 1.271486875019765
Ni 3.3020039369055834 8.364486303065528 10.612347038185575 -0.1871230883061745 -1.4421443615707485 1.0729293196244039
Ni 7.7970636081914915 6.812138984346564 5.436642056298888 -1.1968639481975516 1.1498801232488454 -0.13240204261421068
Ni 7.464449046484961 3.1500884530278492 2.186043120131881 -0.5960894420085282 -0.023466715663372488 0.17988954667221277
Ni 7.848833064410472 5.56779849157286 0.7887431789329952 -0.6806401694674149 0.6899316220716699 -1.1713593761685441
Ni 4.349184268004123 3.708162072535009 6.961165855605959 -0.48205304638569885 -0.035381721933403575 0.047680336795098525
Ni 6.561550208510941 1.3766070724905433 10.998889825657416 0.9130928349483243 2.068214151991451 -1.604798003980649
Ni 9.261177280427043 2.8633617258488724 10.984115863088622 -1.482698628844027 -1.9605414938031203 1.281524204651109
Ni 1.2734130411977223 7.901739696297207 4.588345360490004 -0.5502219900524523 1.2247395915618973 -0.7848356677404225
Ni 2.904234802103865 1.6858163218877735 2.9221313372029716 1.0557528078451173 0.021286934403234307 -0.3654198365699707
Ni 4.473285553581994 7.721208398484963 2.177693267974704 -1.1176613724244557 3.0291403043729703 0.8579678689497223
Ni 5.43941881557286 0.20320583493833128 8.33937429514339 0.6270972032439524 0.018753883568735443 0.20875146520922758
Ni 1.5015192948150928 1.029787136049095 4.65605205405922 0.7716870461736065 0.18500012842590075 0.19016393201502735
P 2.6939039091292014 3.3825849504117196 8.515524670301165 -0.30143304930536474 -0.5473994330019927 -0.9367189590076964
Ni 1.4892899958307029 0.9910019888889987 0.7530190849638086 -0.6930477991031484 0.5971700766672167 -0.9660382767971041
P 3.351349903996559 2.3079725866065792 11.93137480532835 1.1523800068525636 -0.16663782386862913 -1.2307929968448288
Ni 4.1702189170130515 7.382460545062176 6.502208280878152 0.051651148517388466 1.372549998311378 0.03661662278176919
P 9.050911635236597 3.2475033948615835 0.7315143473975846 0.47292948681787583 0.7105199877459828 -1.2042535557934035
P 6.861494272549571 2.1548080737167203 8.85200096872205 -0.7739778990903121 -0.30183979782548015 0.32864997603978885
P 5.324564073129526 5.862187172841143 10.589209241791558 -0.0012942933313913193 0.028756503307402086 -1.4679849767829363
Ni 3.3559358911157053 1.3750504467814022 7.331419999804003 1.6180412421438006 -0.4283365306988494 -0.3026059865675434
Ni 0.501528025483605 5.156756093239304 12.112954728244057 -0.5047348042539307 -0.8474960228841211 -0.006789512118007662
Ni 5.614003243909462 1.5169084507779187 6.14607375718434 0.355657100756252 0.7818475316463761 1.583363488255957
Ni 5.249202882360629 7.534571772292556 13.430618816696729 -1.815419689629396 0.32681677948579196 -0.601481559558377
Ni 7.82280851962052 4.586220146946985 10.353154875945538 -0.6382131106514557 0.22060167967959426 -0.41583634134930963
Ni 5.972838093758591 1.7342954255598864 3.9882847918401745 0.03922706382142276 -0.40413730774482653 -1.5232868346790347
Ni 5.592788392927395 5.711623250207873 6.219906285580188 0.7482236729443437 0.12944373131683515 0.8389725587941422
Ni 5.540935046700139 3.8343699294318374 11.523631148542488 -1.2766208538122208 -1.1716612236796788 -0.6558254244165802
Ni 8.986549356664026 0.168067106804678 5.6280585487406825 -0.26184217438662005 -0.5203660830332845 -1.0556538203734078
Ni 2.8483920199274317 5.817361945085098 5.098406864037793 0.6033607788589608 -0.08400951024343596 0.5278827031253037
Ni 0.9459996600043687 8.309845944341067 9.557844973586853 -0.2984274297098215 -0.569562085141961 -0.03598207452156384
Ni 1.9835606034871385 4.149246414943785 1.2345719673654414 -0.7192522254126581 0.8407882718466424 0.34716166169073115
Ni 4.50814651257713 2.421708795606218 9.39305796610581 -0.11958406491393599 -0.6216685760292131 0.5382139098479828
Ni 2.6645424062322283 3.161926265306947 4.930400344461315 0.13441933015455562 -0.48433464333102394 0.19506882551581245
Ni 0.6148718156667473 2.2046014541851737 2.3918933545533463 -0.7966647991648667 0.45652302043539444 1.6889769499224139
Ni 1.246288605188138 1.974994501530847 6.9762269084253 -0.010650023514678432 0.27604032026387293 0.07400277673971126
Ni 8.545399766471034 6.948124687763687 3.0213256793233825 0.4585148540544426 1.9242627139767439 0.10840439414803267
Ni 1.9209506939763556 6.826493496873974 7.277218665456192 0.17972499606989048 -1.190444417824453 -0.04994239335639786
Ni 4.624949367434898 0.4577859109455371 11.900502350171188 -1.352980817930199 0.8998315990630439 0.5490621654163963
Ni 5.875823959742181 2.091377906347229 13.431846407151182 0.07582208933663716 -0.6443428776982774 -0.3550858016338143
Ni 8.447938219077146 6.883184500245208 10.63556592825426 0.5449293741949454 -1.0580480316371972 0.6028876958772843
Ni 1.4691563938442074 9.011977350284008 7.196742980516002 0.34158828136801167 1.3596605439432197 -0.48680495924838746
Ni 3.367055977768432 8.512673342130947 8.515524670301165 -0.20579341102216817 -0.287003504143596 -1.483520096304058
Ni 4.893471962817752 2.855634523975352 2.134952240868742 0.7331994316213696 -0.940335215604045 1.4928583429858484
Ni 2.0157277611053774 1.039723441473912 9.399469959071785 0.40409154210855563 1.1056941727602505 0.360293828197315
P 9.213891279094872 0.13281279688184303 3.2985392795637405 0.3248231460945309 -0.3924120488880984 -0.03905428568898435
Ni 7.73874141021487 8.50701542712826 9.362049422712996 -0.7252362109102349 1.7626652807454999 -0.5652989389902329
P 8.35858603915004 7.345847217005252 12.76079158871888 0.35333925125635274 -0.7574714167948567 0.9278471104393634
Ni 7.944029581580878 5.050560663872571 7.622603150644898 1.3049886063216363 0.2628006816451474 0.23882488755584033
P 6.481957232880068 8.059611370762612 6.502413345342829 -0.775985159328328 0.6208329675017953 0.7584474075548808
P 0.5134665057726344 4.102118872516137 4.4243636970884195 0.837274345156113 -1.0763334602099464 -0.25155390508673453
P 5.786592954271478 0.14664625924673103 0.5648715065112105 0.09038044676678629 -0.7565625318273421 0.512957192163723
Ni 1.5809072059812885 4.363734523884179 6.6021529725170405 -0.3632002032108325 -0.006308972937163328 1.7445441456647568
Ni 5.691722676022147 8.075168306741991 10.447137784329536 -1.5076753533940228 -1.5087706433407304 -1.7386138962232507
Ni 7.318797349891914 0.5828994692899518 2.071705699406257 -0.018962142924799603 0.8699900902215792 0.821810702302875
Ni 6.721397958726873 8.822898592739534 12.1483022492872 1.9761092663343902 -0.8583345082605218 2.898104031758035
Ni 2.023380394082652 0.07028864160174347 12.168942919768169 0.3973207990436254 2.983405007119385 0.5979254667760026
Ni 6.064529872805423 8.537225151220035 4.181542203908049 -0.046615385865693915 -0.19329270745199614 0.49115089492190894
Ni 8.31154238673067 1.4264563796311813 13.066026315946182 0.1097483097704368 0.6437160427475559 1.638432918426275
Ni 7.585977705142335 0.5604374535181661 7.235049954628919 -2.0967238293953696 -0.45508191711349366 -0.10036301190079489
Ni 3.783961355569352 6.116411182368773 8.840363560351616 1.9554635650595804 -0.01980263654822396 -0.5286602047212767
Ni 4.276964291989601 5.928907692757502 1.1034807798756843 -1.5815650015946374 -2.308750365811443 -0.22833658643000676
Ni 1.237312374302492 7.419045909783006 11.929096725548025 -1.2114788698972492 -0.7112031298559365 -0.943512327780446
Ni 0.5386549468134246 6.040425477093813 5.349985541971086 -0.4710392117736985 -1.167094430244603 0.4409945857824921
Ni 6.457079184869904 5.720385095516811 12.443483225078099 1.1044682707729494 1.7498804702760056 -0.6482458122971094
Ni 8.991797142737358 8.771595192122094 0.7851163342418167 -0.3356127805108672 -0.6537934815882159 -0.0909291201814047
Ni 8.51875070717502 2.7608760990703916 6.706748899059291 -0.7264986225624263 0.06819079804362449 0.9279088169152343
Ni 1.5610439162436858 2.751275353678683 12.934199692717197 -2.301688573868655 0.6072351742127026 -0.8014138838140779
Ni 8.372316037171387 2.356647433631339 4.452411855300255 0.0548665701308926 -0.21310537130254914 -0.7640917503248518
Ni 3.4854061372233085 8.07549454566307 4.2712140979778095 0.33278688102629783 1.3793284546857922 0.18433318426586318
Ni 2.3091936522826124 6.41928207558507 2.6805253170314156 -0.5031546042510043 -0.6255339725218905 0.3826302869109862
Ni 3.0491035252863252 4.925760294892391 12.827461774630272 0.059658077982264995 -0.2469410889050715 -0.8258313934264938
Ni 4.904759829487031 6.246766934119301 3.8960486598507447 0.8981673239867436 0.10072913699096202 0.1673891002123569
Ni 5.670824742849127 4.2509397471996495 0.45970512791267576 0.5999769499883925 0.8445701074865777 -0.08718379420635952
Ni 3.5928599167141986 0.2951455555651822 0.9911427376806636 1.860718927786828 0.02738919064623025 -0.9172986454995558
Ni 0.37624761923383926 3.6266116633776706 8.935396958061483 -0.21316322112367805 0.8370434600922294 -2.188426337407689
Ni 8.763057053501894 0.12929500920142478 11.377343752108942 1.9918837555598274 -0.8593868607844362 -1.6427027494462227
P 6.785676347291166 3.8906321616496555 6.2942980806978825 -0.8684937081817108 -0.5767256927699358 -0.5077370814153642
Ni 0.07221904390331904 5.009091036447608 2.250571314498599 1.7842005837141144 -1.5237172373482337 1.3476732896743564
P 0.4771850093040069 5.9027433312870885 8.614009675796034 -0.6999936342933621 0.28007026735887247 -0.07537985959289599
Ni 6.631393300957613 7.574205140647454 1.7723097167550368 1.2358873806486006 -0.06505996572412667 -0.17633062567636085
P 2.9548670826550887 7.098930959309757 13.129244894072574 0.5857206971796945 0.1071736070647251 0.613360313273834
P 3.905135811969557 0.7261938566504126 5.219373459639711 -1.076532720704946 0.039493687219248105 -1.1684028646433813
P 5.832862954392294 4.70347041518223 2.7157218360596596 0.5177319878445471 0.59116217991024 -1.5323417457924513
Ni 0.9202612733537623 6.719804048569609 0.5149028891365783 0.13034027498917553 -0.860164362380409 0.6544480844530793
