# total energy = -340889.7607899076 ev
CRYSTAL
PRIMVEC
9.09602394790611 0.00000000000000 0.00000000000000
0.00000000000000 9.09602394790611 0.00000000000000
0.00000000000000 0.00000000000000 13.31295048795177
PRIMCOORD
 96 1
Ni 6.588131832999486 1.7654563668803986 11.10823261345003 0.1600689124018598 0.6901149417270696 1.0381620913465475
Ni 4.674373893116639 0.5702570238127106 5.7575447871281 -0.4556529591256153 -0.8343240042785373 1.279756314117409
Ni 2.60497388897687 1.8307112420472016 4.640362040701849 0.768397062568425 0.022870219729954164 0.9623122340957685
Ni 3.509609845882256 4.698369204057541 4.655458711501172 0.2858287671092045 -0.4991843067493468 0.348433072203987
Ni 3.7141430383830554 2.99432919027531 2.708932345665105 0.7771881784974938 -1.0972763810102006 -0.15633618483230494
Ni 5.029855601562951 4.95012895243596 2.1301387034604167 1.1418814213140849 -1.2609157843721381 1.2798861548270537
Ni 5.4227856402381045 4.22807748245882 11.554402589376204 -0.6672897163024379 0.9835505746492545 0.8283323054714767
Ni 5.584713056981822 8.087338485493559 12.597752000533923 0.5603757906570027 -0.38936632008323907 -0.46961507773266215
Ni 2.0524995918091418 6.327121428356132 0.2453033906430693 -0.2349494637608341 0.7509559842738421 0.05640871780703189
Ni 2.828399523033489 1.5197272823207126 0.35086456673531674 0.5035125018110554 0.5784987255099585 -0.669671586271053
Ni 8.046770219080965 9.056783612396641 6.882649260733436 -0.36962333312835693 0.2357573043741101 -0.9235867925011125
Ni 8.908209158678414 2.612023307467848 1.4039703730845472 -1.2483790853577081 -0.8277738618648454 -0.6295981152889351
Ni 6.974167085589271 1.0239757899397395 4.732248254523986 -0.40380486410607225 -0.7277960012176111 0.41376686041479066
Ni 0.8192897842381035 7.4074743741759725 2.253309781744319 -0.39496566854788756 -0.7301272204539491 0.3986009513076297
Ni 7.860711051038457 3.8468358344428997 3.4844384190563438 -0.5376325834232161 0.9413569720003401 0.7841548396233141
Ni 7.711863716604451 3.690902697422478 12.67652447675807 0.18577763002187359 -0.1902608626042078 -0.15301791909234935
Ni 8.29428212431708 7.386853688086881 8.887406552112136 0.30271243023842065 -0.25682929455306086 -0.39054979886837904
Ni 7.006830907268109 0.9963602615028264 0.31357814573116854 0.5061792500099412 -0.7137135549826159 -0.5208841603202835
Ni 1.7140911201467859 6.966462753380422 8.82168050290942 1.0861579024995358 -0.6459140788401392 -0.11630822237614162
Ni 0.509178133199724 4.835728260357219 1.2855956281816672 -1.6020410100608022 1.4339548837814207 0.2669694683108564
Ni 6.621323224062166 2.18945842305901 7.016151602916762 0.9660395623486847 0.1886708924092686 -0.41923713950074254
Ni 3.6768493405598193 4.259831701751727 0.25498337923416375 -0.41819609983073786 -1.1773968406118756 -0.39954274639560866
Ni 6.0505386308656135 5.652478434733799 4.2794882093117295 -0.18515336617431336 0.12215105431016382 1.2633117954081403
Ni 5.273146951728337 2.8836851560504715 9.231918455784099 0.04314311104637731 0.1312378471027804 -0.43108272598541886
P 0.3406651951818548 5.669833648257392 12.164734875108332 -0.14517913977422092 0.087682588219649 1.6379662632025018
P 4.181614992585384 6.063273064268669 12.646730450606848 0.40461656137409024 1.6817169259258908 -0.823908208261852
P 2.2340653240651434 8.56032263015464 1.2650067781760834 2.0649236541656375 0.3340557204363924 0.38707032496021077
P 6.2649592013015 8.054765624053314 5.432549312248705 2.3430943905089516 0.1711197708993827 0.38827591523253774
P 4.746905587370904 1.047752796308017 12.378261306398848 0.11236492145767744 1.1131292888820572 1.4120179744990133
P 4.13298764903343 6.545216792431186 8.056944121767621 -1.1843714721574958 0.11474576298502819 1.2523244431587015
P 4.707583476227038 1.2442541997410317 3.7879208879060466 -0.39239610804849845 -0.41872806107480787 -2.3953101532805583
P 9.426300485657892 5.728239217458124 3.5478213325128976 -0.6508873636850144 -0.9379991112717007 -0.4381614872090712
Ni 0.6225891778825696 0.41427112985390485 4.867893619928567 -0.09437928351353424 -1.0353392771857717 -0.8942484485483115
Ni 1.8473296776381896 6.894522300677014 4.6961961639575485 0.9859213888742762 -1.091102390989005 -1.454991649847062
Ni 5.901673104383889 5.752370968756915 9.204866880826463 1.6436735979999242 0.6075177384501279 0.2887019748919415
Ni 8.810017581116991 2.2691123039951258 10.075160799650964 0.3788487083813669 0.8133209196643089 0.1532801716148005
Ni 2.409345703834351 5.625517820014758 6.8207435415516375 0.42649022151873006 -0.27627197665870484 0.6578519679283058
Ni 0.9467232593024858 0.1284831562177484 9.250170537260223 -1.3277122731713973 0.47815011178686684 -0.6682577366426621
Ni 1.672549579181245 1.2182850516226567 11.457138806248434 -0.29422984668870616 0.6246088896044597 -0.2014089088012273
Ni 4.3478175405429855 6.949425900691905 1.415273092332145 -0.7953800189151721 1.3660451073133248 -0.4774253178057004
Ni 5.93953985171026 7.869315889609379 7.686111963456314 -1.5127795073898076 1.328179442615803 1.0326496461687507
Ni 5.4690753056582135 3.060912084925575 4.5202790625181875 0.21648714329058846 1.287914424448169 0.876392137093181
Ni 0.6559679470367514 7.576433017362949 6.5541518166682025 -0.18678190291667188 -0.4067112391195899 1.3955765411135386
Ni 4.867873608676077 4.811250860151773 7.271507009526772 1.4858001505874863 -0.6136729594182463 -1.865897900884606
Ni 1.0880572780286895 7.443549204802059 11.016612913126972 -0.33094134317712687 0.13782887005673683 1.1882463817318698
Ni 4.796751798120009 0.31623691350524946 10.29036453774114 0.3060690054154794 0.2013798553355048 -0.5600664869467
Ni 8.307316726507493 7.504483468635683 4.434996562017921 -0.5730551858968841 -0.509070198404491 0.8267459348209633
Ni 7.14849238285325 6.390920939705443 6.590935227552929 1.5098337944979225 -1.8258503980444167 -0.4832136423527033
Ni 2.656739360760293 5.140481443740071 2.3629823606209817 -0.5300969371678032 1.844421990399017 0.7764109340118371
Ni 2.552380679022249 5.313933522713553 11.425933077194244 0.06645710318196942 0.15876150644434592 -0.8756028084226661
Ni 1.174178431928786 3.546494222631822 3.5648882020801507 0.11072738585425446 0.34501196233757997 0.6674473249262247
Ni 1.5366367906751994 1.3158035234184884 2.4424206657916314 -0.18376728446006416 -0.6984131771801197 0.31856893765470295
Ni 1.057749326529416 3.4095535834296724 7.9364090711981525 0.2311737987684857 1.7879073431417403 0.36663725391683955
Ni 4.270373993404685 2.6821718434709685 6.9159443464681125 -1.2715462675027907 -0.32003858022169396 -0.9481518834349864
Ni 4.352292784281773 7.133356599151332 5.790295021033602 -0.6597409574209024 -0.41056532275835744 0.1506761583330502
Ni 0.49199665373184354 0.19035340090649636 0.2558911624153245 0.07054130055367207 -1.0288390141734087 0.90414668149863
P 0.1787887161717496 5.7120664870362425 7.814648786214832 0.3642332724610372 0.05312336218754077 -0.23419767319647408
P 8.74664558288907 1.7883328668866028 7.897056033573166 -1.5015407012511945 -0.8537615441778587 0.6284899698264208
P 1.9574552385030468 3.4840954989568473 10.083694689235784 -0.10781612574473044 -0.27090582725078505 0.47242426504668317
P 4.002678011224728 6.539959290640496 3.6806050888113355 -0.3218591783702005 -0.29071232045375095 -1.57749108863558
P 6.89565930365943 3.8734598962791464 10.174449357689822 1.990566322299985 -0.2896856789614495 1.0728925528491975
P 6.712001485915784 7.658260848001444 10.277318110719708 -1.5556703932160627 1.3494530072825988 0.09940116220815784
P 2.5255928887565346 8.56032263015464 5.826292535456884 -0.37794188029638137 1.630435244932779 -0.21054275278169543
P 6.989784958555734 4.217471518638846 1.5038046925549629 0.6929984339224516 -0.708257159853735 -0.2580068598009298
Ni 5.502703305866141 2.763654025202809 0.5625117594964948 -0.9917606212638727 0.6041938162832176 -1.3078245331085347
Ni 1.5128597843069218 1.1488641975282823 7.028652268506632 0.8740151522205721 -1.0408031285138204 -0.843488958607257
Ni 7.041213877456361 0.501799438645039 8.972476205654093 0.042342469521952884 0.396282330476782 1.0801050114372366
Ni 2.8258435403290187 1.8702061776443941 8.799833672804091 0.8735976050671793 -0.3128960556396418 1.4171763787715013
Ni 6.439029809897418 1.9619486742895538 2.4759022200154237 0.4220306430854796 -0.09194830547453842 0.8780448422052556
Ni 4.440187662834439 7.034782988587819 10.482683589403637 -1.0040386673002772 0.07285272229566808 0.5625224046863603
Ni 8.302095608812241 7.014844504288176 0.31851273867485275 0.5883918162539544 0.4371209617596988 -0.8843232190147996
Ni 7.526368502041221 4.334601017875385 8.224807603681935 1.018996317051374 -0.3458306015841334 -1.4279860677924954
Ni 3.0331237320353344 8.333113050172543 12.572763403787581 0.9340902631355977 0.17253901984441253 -0.8011400613274009
Ni 0.35525794625937107 5.06331077731755 10.098791360035108 -0.2526587081151391 -0.6445243975814642 -1.0836425922768498
Ni 9.094877760319497 2.5722009150117198 5.813206085930472 -0.8045179766606984 0.5942678154187572 -0.8046668435337369
Ni 3.7590319161288277 2.782992171927735 11.112120254047506 -1.064665794064031 -1.2062980970272579 0.9457070214389196
Ni 1.229991634329609 3.600524604356217 12.480318694100484 -0.30264506733559493 -0.7871046662802572 -0.0797839021978626
Ni 3.389969844060544 8.529314284818199 7.863599948216179 0.09260805054572438 1.0271287163505214 0.6150032481938956
Ni 5.705744750454011 8.01015872304718 3.275611903293943 -0.44652348602052133 0.5484391871204168 1.5366879385762888
Ni 3.014340442765827 8.68051748943177 3.479286431142422 0.9758002412798742 0.08856936169997649 -0.33445424142639174
Ni 3.797626345363947 4.744940846217289 9.456388313379769 -1.3181588251550072 -0.17588042551281968 -0.2020516845915488
Ni 7.286670081300267 5.927851461051027 11.378258996942748 1.2486480227483785 -0.21763308396957357 -0.803103612811675
Ni 8.169739365635191 8.981450342793703 2.6097638551411917 -0.12233565951714416 0.6319984972003116 -0.671212962616244
Ni 4.76704418419545 0.2943118575947306 1.4190270213788891 -0.76252054918299 0.8953568511211419 0.15137138462786187
Ni 6.261402655972503 5.682186048658358 0.06521485266182206 -0.8301683302389509 0.07626843284543638 1.1492656295932981
Ni 8.043131809537236 8.725242638748076 11.728935275984176 -0.17764651627430694 -0.39336155728556127 -0.8210046614618118
Ni 0.38500558268891005 5.039933995999084 5.702908610214672 -0.8415459759482732 -0.2131015146478072 -0.22781645226047859
Ni 7.357928332214225 6.318971390978176 2.385094794623003 0.49726317846723395 -0.7896896533986142 0.09778985185697997
P 8.57855106196873 1.7960553911431703 3.526080925886723 1.048799773566052 0.5204948953016648 0.1169805658528179
P 2.0122314941839066 3.2923331239545415 1.4360547780435466 -0.5712168471365646 -0.9109871014592311 -0.8793550763762469
P 4.988323156621268 1.0507817722531725 8.147698790221659 0.48999158450648517 -0.7551538244052737 -0.6176939076521814
P 8.753604041141452 1.6550943093951989 12.383786231291001 -0.7819676021640081 1.8485956621607325 -1.014139246069389
P 6.586822005563742 8.170330607186047 1.3533946612219239 0.4170059361773786 -0.764090207662955 -1.5855173013741664
P 2.4213615513525206 3.4955746810673163 6.099634419646324 -1.3560352884858067 -0.26658303150571505 0.09030819876795414
P 6.76467656008514 4.241294005126421 5.9441660894451145 0.24057092371266958 -0.26640613960821863 -0.1731074907533728
P 2.7387491118759746 8.847820656276351 10.287435618058437 -0.31206841753202386 -0.9906434769402939 -0.3066251350292655
