# total energy = -340890.33580236766 ev
CRYSTAL
PRIMVEC
9.08886252588504 0.00000000000000 0.00000000000000

0.00000000000000 9.08886252588504 0.00000000000000

0.00000000000000 0.00000000000000 13.30246902293401

PRIMCOORD
 96 1
Ni 6.139126711613357 2.106380240790284 11.366015200318667 0.675281733368979 -0.3230989643145726 0.3228246276072634
Ni 4.98535014988462 0.16000306218207408 5.978381998250944 -2.8319590604998455 -0.06303007977829145 0.4550729182524292
Ni 2.86826322906443 1.363411175387306 4.930214383275604 0.31694091513297673 0.963960825442785 -0.20999382225676091
Ni 3.4343357635488414 4.114782543785668 4.631933366955161 0.5014617899296138 0.5428087283075168 -0.3716617037146244
Ni 5.310586005733665 4.242826438744346 3.0097768182542803 -0.5842585108118713 1.2095916801768651 -1.3697230703855443
Ni 7.407377496582054 6.207065958831991 2.7774891236903305 -0.9018851391579629 0.22185457825008886 -0.4388639125927345
Ni 5.134562005615499 4.730898355218013 11.58083682780836 -0.8732602763324188 -1.5701395333665151 -0.8756313476677565
Ni 5.639766427909517 7.7245969757024255 12.693761679239628 -0.24504644298551995 1.1861972125123248 -0.6634646861293928
Ni 1.6110463231757888 6.653674484561657 0.48412371460185777 0.12645353834025963 -1.0630277442399756 -0.7307807948775479
Ni 2.6530934981408243 1.791605665683533 0.34998937287913845 0.6100330486728138 -1.1859804685158286 0.09521052116557796
Ni 0.7871209416757112 0.127083202191988 4.802829430848476 0.5819391186500752 0.2619506749400263 0.3477265330552657
Ni 8.690315883357483 2.4401868939807567 1.6105964244818325 -0.5533584787989051 0.43452954688343876 -1.1211863548585788
Ni 6.72348603745615 0.6158349655809666 4.735146489552459 2.6382850584490303 0.29231128950975466 -0.9842218896846661
Ni 0.7633826505873328 7.819457433658397 2.768376630143655 0.4886011319168617 -0.4705841265141508 -0.7128123833245853
Ni 7.515789448531735 3.9882474000026806 3.9331543510474334 1.4539004736654122 -0.43538803822899214 0.1598645097005376
Ni 7.624374088868996 3.828637885567037 12.459465346062258 -0.3766018213287191 -0.36999537175579505 1.0861656158090198
Ni 8.00596998110637 8.818441578078698 7.114931529989286 0.4753661212838265 0.06513992703244266 -0.8887252047372372
Ni 6.838432881546326 1.0235422509065553 0.27499171503976955 -0.4030173352077704 -0.27559963318202857 0.4152434449603171
Ni 1.7328007252815847 6.384316955388219 9.45796211934552 1.0503709747079137 1.0656839509159002 -0.0027279404541243344
Ni 8.930370919817491 4.922664265193393 1.3473802397024595 0.5463856470254976 0.009471944046177235 -0.31655447832783545
Ni 6.348370504184247 1.8735235834335735 6.997351642431653 1.4979247017651622 0.03739746681185173 0.42948144293657003
Ni 3.375276334996777 4.328107235620927 0.4894034348305273 -1.488501351568733 1.1525957224077958 -0.01969156489165641
Ni 5.848192222855031 5.512758663276314 4.938780636185778 1.2320577224898652 0.01577783165954702 -0.4735902603303263
Ni 5.262742233511739 2.8714079754908703 9.297813635363378 -0.7755840672351675 0.2204515272549752 -0.6119251234892042
P -0.01739244728797038 5.59792130494034 12.47642516349503 1.0805230728112618 0.49845462767217386 0.2660258734506644
P 3.9138368826810805 6.193578086875811 12.677146329695764 -0.877957938918404 -0.5509436987098254 -0.5260901300012553
P 2.5379557879380603 8.391265040382937 1.2837627466045558 -0.14556120570398803 1.6726046792119775 1.5857399589079335
P 6.479913611207029 7.68279729704577 5.736171083604946 0.7221945958704336 -0.8306452698753695 0.44704850528605594
P 4.858615051126542 0.9339078888904788 12.652603674275767 -1.0692968650781391 0.27547622023028684 -0.8697669184671795
P 4.179795177277961 6.289592830369811 8.260739885960621 -0.5420337978147052 -0.31384093605141433 -0.3247601540670794
P 4.672838701541407 0.9582660404016414 3.589418115571161 0.9299389599713855 0.5277284369356267 1.7251850244118545
P 0.19215127774555654 5.860044099560463 3.6833069741254367 0.30456979516213356 -1.4880028146657598 -0.12573388656541573
Ni 1.3376260724629894 1.2778031794605746 2.6634066304243005 1.7492703474958327 -1.114398642512784 -0.11323806809125014
Ni 1.980444961932572 6.443594516640385 4.820841738559231 0.6193054751136754 0.772387671785057 0.05098317591608639
Ni 6.007756292978154 5.606401213656727 9.345969155569195 0.30342102626967093 1.7605875722808646 -0.022489696462083847
Ni 8.377022792838911 2.417837381083014 10.14210806662154 1.0292779014830402 -0.6134212484187564 0.7874463658903923
Ni 2.710935019117331 5.155602722312641 6.760833991258266 -0.9535293456968159 -0.1268785416928202 1.278454821697166
Ni 0.4138513563784043 0.2553724964382787 9.553474248743038 0.24537760107269357 -0.8741578484460235 -0.8517830802952492
Ni 1.4904189400205092 1.360384584173419 11.219900828929207 -0.3743837306314778 -0.8926343099836561 2.07912051449131
Ni 4.110828888596356 6.843404489336104 1.4490509823328017 -0.13651786455479714 0.658744140725272 1.1645760346981235
Ni 5.852627587757064 8.034763497519565 8.054312731879772 -1.216185274233983 -1.4843150814015276 -0.2999253544115867
Ni 5.477557498797681 2.768603851706259 5.0094174577956485 -0.7712324751346911 0.29191585384354884 -0.5656049002664258
Ni 0.8709066206703575 7.190271837945062 7.163512408960298 0.9555420052514704 0.8770413406414056 -0.9600830876549336
Ni 5.333580827869202 4.751639139452518 7.231062652863755 -0.10321333686539644 -0.6770905044429436 -0.6388512584560868
Ni 8.560290616372896 7.160869367744088 9.275159645571746 -1.3669984723655297 0.6861505577626829 1.1217957063078035
Ni 4.744568004424278 0.40759731008928823 10.02152158334753 -0.3949037049617005 -1.2078847247880875 1.069414621602926
Ni 8.578386541618688 7.412158238259246 4.958601627534861 -1.526606643080887 -0.6539708877063447 0.7014331949533662
Ni 7.611122527337924 6.384416932875765 7.278725556721848 -0.9535023491136224 -1.0396846986386612 -1.006953269843911
Ni 2.0333694082943254 5.344269330174101 2.5471300857497647 1.097026984003556 0.513471155685664 -0.49808233193441953
Ni 2.07337858103766 5.213017066751452 11.603464459898731 0.16722789204414426 0.6656012728564215 -0.046705117366022786
Ni 1.0402657579142192 3.6203847790091017 3.7638006671210746 -0.8523685204850739 -0.8453679207975248 0.5349434666268271
Ni 3.7061200190108914 2.5997418752413752 2.5720190268311707 -0.5406700846979592 0.07043948486848514 -0.14179273980049129
Ni 1.2126269464432067 3.222601622651811 7.925025480530525 -0.22837078210205186 0.4752043988949816 0.318629101468677
Ni 3.8179766498496512 2.904564145906065 6.9704540627368266 -0.6090956244602092 -0.33395596163373453 -0.022277323340961632
Ni 4.350874836193861 6.776465016992928 6.007261858857928 -1.2485963435748368 1.3942956175185859 0.48643600594474296
Ni 0.8814787855352023 7.792699822446134 11.57064730405494 0.10143824724284467 -1.253967378078763 -1.0009145198489988
P 0.35967991808107935 5.414189949418643 8.172491575476432 -0.2573139474989633 -0.9640269027940302 -0.8995657469961669
P 8.654151299453408 1.6634527043748049 8.051917816609926 -0.5820075099941654 -0.4604316114611813 0.24134354021263596
P 1.7052887384814772 3.343801604144853 10.518262456877668 0.36240958898873715 0.08251492797578047 -1.2307564871799384
P 3.945493390783088 6.111314792350612 3.6221289317236507 0.3026700070362594 -0.5134454446540512 0.4356762588933722
P 6.885531367042909 3.98466638817604 10.365695901996503 -1.4750272283416983 -0.5275741707459495 1.1016716818644188
P 6.5643945881832435 7.895722078930846 10.34795080684337 -0.9081344625017844 -0.6689917865952092 -0.9065113250760646
P 2.686267846281027 8.416441189519475 5.836392152665874 -1.0953884199588686 -0.17101384144913775 -0.4792186622606973
P 7.01137575727558 3.925261582848816 1.6384519702845979 -1.3554346787873301 0.27634165355437573 -0.5538171636028785
Ni 5.0364568237455405 2.9005377798167196 0.45140199181436247 2.047421640726132 -0.8511266776581728 0.06285935852838208
Ni 1.3721819277038252 0.5987633551393933 7.255765272263826 -0.20647989556623148 1.0535501437668435 -0.6062869513668204
Ni 6.90905334320369 0.6438841041550706 9.064807920661599 1.135066969495413 1.2490210898170813 1.4736362615314427
Ni 2.816384001890655 1.647329062292416 9.256430226609414 -0.10294002859935174 0.08961888601041339 -0.8334577996235001
Ni 6.347670661771426 2.025407564740677 2.755952155100461 0.8223791732118354 0.19709408347595733 -1.156353389678015
Ni 4.005143595397923 6.7067625304484855 10.466342329822627 0.36486139296333936 0.6549255383101301 0.04554812094344414
Ni 8.241435142001775 7.428999900479464 0.268841281783201 -0.21745953450618677 -0.5211695527711863 0.18250358725629215
Ni 7.434298707319392 3.78081229107012 8.240998876601575 1.5839306736133367 0.13565474522355347 0.13792940019034308
Ni 3.099247580745282 8.253550595719828 12.304623848896298 1.2235712822854088 0.667587707158831 0.9444865187682572
Ni 8.806853278385887 4.839019463567562 10.209112978774748 1.8877630763888134 0.2107263295474113 0.3734817876424987
Ni 8.708148231590654 2.094655608159911 5.814442549718316 0.44179162776249076 0.8188050827073318 0.20160019887642702
Ni 3.6437795110948223 2.521468591355505 11.540716770942476 0.3919212252946089 0.5506061128647485 -0.3035881479751546
Ni 0.9060068987751928 3.3399388375805827 12.674512377342058 0.2469305473821102 0.15119115029625574 0.6103420952728005
Ni 3.2187297672250366 8.349065451776099 7.925717142967091 0.8983082204399819 -0.7375479383980524 1.207251719189779
Ni 5.617026093924096 7.807451046290395 3.6038521381140254 0.0028456969789112285 -0.42081039752513333 -0.37949456949548194
Ni 3.296148698035515 8.442689824431504 3.4930152776482326 -1.5817771176054436 -0.8834516150431235 -0.10962566814964346
Ni 3.22881840460466 4.4988142511741565 9.248315690165695 0.5012794987154787 -0.8961901456557146 0.10615159355811396
Ni 7.1618873203445546 6.08412091573815 11.565592078730125 0.020987915105576755 1.0257138382808657 -0.27329875296299383
Ni 0.878080459844895 0.04695942590026994 0.22013043207837843 -0.8145635338221584 0.5390605741189942 0.37753384622468533
Ni 4.727053766378751 0.38702648758361136 1.4613291266896784 -0.6225846600855793 -1.1142775435538874 -0.017919303482582045
Ni 5.714894965368946 5.4671598400929176 0.4163462491357976 1.9389845935679508 -0.6596548254649994 1.2247280215976712
Ni 7.9484283925925 8.936669501532878 11.585040426716537 -0.36581964311155063 0.513029183052239 -0.1508031708292177
Ni 9.117583309678285 4.720646118313314 5.922166474776431 0.41425871244954465 0.271235699786378 0.10362419915056993
Ni 7.912754607263651 9.169480714577066 2.2078773861467966 0.4439472406529128 -0.5791718403175832 0.3672401776081611
P 8.564580559474862 1.6039842770100525 3.666307165697646 -1.02942136903944 0.003851769645922399 0.5868972339862989
P 1.7544049514539855 3.238052688908892 1.6662139008035703 -0.1278928418899475 0.8932881415175712 -0.475411115589149
P 4.605535674698064 1.1586936363434905 7.935534932244091 -0.29699738213151433 -0.7147854478905561 1.1257109822018097
P 8.646771143100027 1.5878151906151428 12.658084258365777 0.44783063486771907 1.0470331685839322 -0.6660550725643883
P 6.423835329556329 7.717334974561598 1.4167391672442444 -0.3886577240519887 -0.11316761986463089 0.6436972736944786
P 1.8573544970386637 3.2364712268331672 5.786028947757794 -0.03962352792889305 -0.3917330205432028 0.7939795390232197
P 7.098628837315565 3.7907555066496768 6.166386028035849 -0.905298535714886 0.894855228894375 -1.8731383844971032
P 2.6330162008691236 8.471001631131978 10.199455153477821 -1.661956455469512 1.1010435613621168 -0.5548072954302896
