# total energy = -340876.0859440523 ev
CRYSTAL
PRIMVEC
9.24692818116367 0.00000000000000 0.00000000000000

0.00000000000000 9.24692818116367 0.00000000000000

0.00000000000000 0.00000000000000 13.53381408696071

PRIMCOORD
 96 1
Ni 3.2053829547299286 8.243285165399133 0.5327765671007129 0.19107667363728384 0.2066914973564053 0.5983478990254018
Ni 5.462761576754835 2.0905270484026297 1.827335427953649 0.03680174220938178 0.49283676726476405 -0.38625425681681863
Ni 4.168367311225024 6.03010686048321 -0.06733890570768705 0.9600820592136692 0.14808860011153205 0.07751464654771166
Ni 4.607809083185313 7.92438635030761 11.536195844318765 -0.3827554996349408 0.44457227583142145 0.18214697524782178
Ni 4.350541044983197 2.959091020378935 13.229411975324275 -1.2557458101354244 -1.0726408418497073 -0.7241972281227593
Ni 6.022903503364402 4.591331057016232 12.658798827146882 0.007678856701496454 -1.3361611752696987 -3.6732340421749194
Ni 6.041443594536685 6.4253020806931875 6.5612337755813614 0.5111299091469972 0.783984632594037 0.22369600233420187
Ni 7.61457726570105 1.8311229697711886 10.22740873494374 -0.9900156135483079 0.3629942578476136 -0.3538809826924357
Ni 5.6059595078740205 8.103157214464087 4.3404156585325 1.516491923244388 -0.09269521094289197 0.057097773454256505
Ni 3.027139165484584 4.148560390880371 5.36146147760653 -0.3827788966737085 -0.9439059636744389 -0.024679762134867174
Ni 2.383081364865808 5.89601715370552 6.990674994622537 -0.7845513037307844 0.7901768774476778 -0.010865996180226448
Ni 2.452387092215562 2.1170287448114884 9.890944454919115 1.9708549599139862 -0.16257933752853937 0.0892347631981173
Ni 6.6238798651943185 4.222175186801838 8.682943315480834 1.1947723557758454 0.07366390534305378 0.5907268921450342
Ni 0.8374267904279622 1.8856705996092404 8.280529018373997 -1.6072703767805414 -0.43024531768578805 0.21709315230570353
Ni 6.959164237172269 5.158112278120412 2.560962674523146 -0.1819351163473318 -0.08441188788817722 0.345505871254863
Ni 0.014894952050031211 4.079744750728688 3.7088338135295063 -0.6109195650428252 0.44189498610957445 -0.06720092332652942
Ni 2.302623842027888 4.466331080723507 8.961144549890339 -1.0527060505989936 -1.8278941679473228 -0.16422792887555587
Ni 5.462872539894021 9.021330956584679 6.897698055605986 -1.083378539982186 -1.6479141184438328 1.3526938828173993
Ni 0.5253374133111361 1.2891789979880814 3.2469654664469547 0.65462137680615 0.36563040991888 0.3473395820294921
Ni 3.4069012624194803 4.1127100499951155 10.970699021550661 0.5924045369577733 -1.1239328072554644 0.460533170036052
Ni 3.7946989400170774 6.72218395958461 5.150915393851392 1.1974794702943634 -0.08237788817728393 -0.026670567312650842
Ni 0.7499425268011058 3.9618279214873184 1.1848477557543515 -1.7175645317521195 0.5678085927859641 1.0537864281473657
Ni 3.425903700005037 9.243608618230228 9.694704293883497 0.09244684237751175 -1.5972106785516944 -0.24766511155528956
Ni 4.5920338235644085 5.228056043520485 8.239670541140159 -0.7084165682497348 -1.0488550522840194 -0.23433085634022868
P 0.8315781083000477 5.6690882871424355 4.996954962924017 -0.04973747643444337 -0.06169182058284215 0.8271871361234399
P 5.247280407384412 0.9800634330014328 3.8438066019565493 -0.6767284931178346 1.4120927936010068 -0.0730193297805194
P 5.893428013791186 3.3786703904249777 10.596421277770018 0.38406856201940953 0.35520947169587214 0.46304333805241543
P 1.9369170760565173 3.1737954477750576 3.3670913868509467 0.9972003042222052 0.4777593041063513 1.3251221438467178
P 6.102981902143437 0.41130244455561416 9.315324095085966 -1.220924331580865 -0.3594893300181486 -1.2143633905338957
P 5.514978980669987 5.33999011017409 4.690996299247202 0.051612839080285314 -0.16447578322030385 -1.3607956859889274
P 8.13750030604207 2.513500041122103 2.659773500582386 -1.4914786890295022 0.5181140537743142 -0.16461796522512295
P 7.719104542814009 6.412448850404174 8.802636479642002 0.028975818407059775 -0.7462261828983406 -0.5292222478723336
Ni 3.1448248215193164 3.879215864363542 1.6085475570354912 0.3442234049980136 -0.1638936854645887 0.626208887101728
Ni 2.6628749203226274 5.507193067070455 3.4507844098889575 -0.47743097423265524 -0.5662864997144827 -0.09932917131964183
Ni 6.937119560187369 6.207157795982307 10.828918644534573 -0.8681023862805629 -0.19912576919400543 0.2101331760481026
Ni 4.590258413337437 3.595076252621949 3.421497538686537 -0.6557827441041029 0.8255681124627782 1.0261193012494005
Ni 1.044588498437935 3.837428995531849 6.978372881258144 -0.22976817667021074 0.7434686747578615 -1.6884143925507245
Ni 6.568296579390533 2.0196493432477447 12.7643626849184 0.009280911081293693 -1.0745879382737493 -0.7141583558295185
Ni 2.8347568229213236 0.8482179557137745 11.921043751799676 -0.2188607857290876 -0.2795568180575637 1.328583620032757
Ni 4.857097022294322 1.5080537900319346 10.970293081399806 0.7446616666246981 0.10545559593235386 -0.5117423459200154
Ni 1.0504048163169204 5.005251306963803 11.021707851941516 0.5704030929860177 0.43707751011627305 0.28349163433559565
Ni 3.4121257768894755 8.831565494720548 3.5360336909540475 -0.3071365274480452 -0.9942576766541135 1.0015259281807525
Ni 5.50593548482635 7.282899195746637 9.082082350596039 0.6454420242997271 1.271850686117087 0.30768674352456044
Ni 0.4468661306646407 6.301337760366196 2.4864731191877656 0.291854147367678 -0.47836145646672457 -0.08129519663606645
Ni 7.66307740445348 4.6627728247953115 6.508993254345546 1.0155428112851348 -1.0931705863719432 0.006733976289723887
Ni 8.052918653197747 4.084275745578772 11.130059658585074 -0.7153780871692325 -0.18261928689855 0.8126208082734909
Ni 1.7225085503648896 7.574815474159497 4.449931653444683 -1.0742027870201887 0.07455042171306515 0.3065120064901689
Ni 0.3016495951051019 9.1733042226278 5.578867857441824 -1.214533854673489 0.27431690981486306 0.9163015716936089
Ni 9.261815819984951 2.4697343296415983 12.808253229930488 -0.11136964742394367 -0.5811166227487798 -1.0186196504382456
Ni 8.04220146333806 0.268781388585462 8.129585860139647 -0.030852466604482348 -0.012824919678810172 -0.024112062556855246
Ni 9.127837076346449 4.288531144034905 8.921883017167946 -1.0511644171434866 -0.4081865381135357 0.1425537863362319
Ni 2.906355788480916 1.013546560250727 7.653345012454065 1.5506536567277618 1.6363598379473303 0.21262483212170483
Ni 7.569008403208777 0.7172084007413154 1.4269378859015125 0.45174051144508653 -0.008812456085307403 0.003573319173555136
Ni 8.76157549467915 2.4143637231879187 5.422241537095513 -0.2125808662576468 0.8942006260295117 0.7397624295508679
Ni 7.406086774099328 0.9748389185314381 4.205591745650531 -0.5429195428537682 -0.8044904658568724 -0.8849528821789986
Ni 3.070516505977939 6.43026768117175 9.508180805069244 0.6359461689941499 2.541529818504152 1.592821291234747
P 7.331464062996924 8.444433595958065 5.720256164699455 1.0286189277428026 -0.3598652253003286 0.5904322437227509
P 1.7235349594023575 7.946847139064454 10.449782564643249 -0.6520109357664965 0.32487662504028564 0.1516763174627904
P 8.772006029762608 5.470057403156297 0.004432052717643382 0.8498696653226202 -0.12879761309240398 -0.43760612892623346
P 6.946634649372546 7.7270846419071155 2.071824211292875 0.22089735654314216 -0.4698302790672618 0.08647108441005107
P 2.5626474648531166 9.290943644021208 5.765148152042696 -0.011107165656755064 -1.458764743736249 -1.0079750262402059
P 8.11813723825416 2.700084559662909 7.6066803889623325 0.05422945076752596 0.31081886139563886 -0.2145181924896757
P 0.6650686710235938 2.8932159034156726 10.497110192891617 -1.5088513759799949 0.044140699072956244 0.7381971419462771
P 2.5399462559613686 6.189089298151565 1.4488216663345916 -0.26505373934538223 0.10933410505115362 -1.0003159670330515
Ni 0.2504937385548271 0.568670368548817 10.625722019364837 1.5854100863723404 -0.8604988629016922 0.5921723663423093
Ni 6.231874835235929 8.471101737075703 13.270581149347834 0.2062523529364577 0.8691925340209483 0.05765416017835877
Ni 1.2155642020666146 0.2910045312858842 0.13051022084612338 -0.8463171720846715 0.9036262902187856 0.03772373980301891
Ni 5.30116225838735 3.9442310169981147 6.35125637791455 -0.29531536644340106 -0.6781477420628643 0.839208071843716
Ni 1.5776276783013876 8.413299188488203 7.586826309283525 -0.4277657457970439 -0.8251595641704498 0.3320749425609378
Ni 1.6939078012397675 1.9452670522802433 5.616289251439385 0.8814680089541916 0.9868436435782294 -0.7819933131956209
Ni 2.857226858606434 1.5070458748509976 2.5129988576101145 0.5189324359105515 0.24212412713240236 -1.7439677043359965
Ni 2.2830388479616066 4.548878409349425 13.132901785017488 -0.23624452842317378 1.1294210840635452 -1.8710853586228162
Ni 9.057116568972077 6.975263139282465 11.849463280096614 -0.27393098723035403 0.2588265274887478 0.1539957096245864
Ni 6.635641957948006 3.3924390666122735 4.5369813114430615 1.5219398337328371 -0.6676249881546696 -0.7994804142367908
Ni 0.7467088759866682 6.469641101726153 8.895383170144742 -0.42780765477857285 0.9379787995567265 0.9774902273877876
Ni 7.1586667144999465 8.611627305926165 10.830596962014758 0.19460756960867776 -0.25001304296217586 0.07801626877447854
Ni 5.128725540092725 9.01110385392306 2.0539998323683406 0.830306398478712 -0.4399252639777133 -1.6559860968186901
Ni 8.77416981097673 8.370236243555874 3.428899704763052 -1.1017976659193218 -0.890098688045996 -0.8633293903719518
Ni 4.23120943571721 1.6242044559745978 5.653290834893693 0.39723132465361266 0.47433459469551853 -0.2756718811808607
Ni 8.825508756706661 7.836392580933325 0.7659526583999536 -0.5291397154608565 -0.1483840198647638 -0.2649303263936405
Ni 2.1641141035393 6.871697542709117 12.35638636045988 0.17345587523172706 0.5694823809439611 -0.6690637774837251
Ni 6.763379025007312 1.485075173292223 6.420536213865161 -0.07502221914316112 1.7789822727379685 -0.0647573468820433
Ni 4.821265175265597 6.582546095847634 2.3517980818508706 -0.1564505989229822 -0.5167822223367681 0.31366558681581463
Ni 9.038530243158466 6.646803000364437 6.759084751520825 -0.20303050356505034 0.8488191125709187 -0.3866880019201276
Ni 7.625377677915128 6.256203503502401 4.6167092516408355 0.48645400366687197 0.5700853046352827 -0.23359680638768157
Ni 7.470463888683582 3.4370277547084065 0.823365911307477 0.68644494907465 0.809837846211715 0.4659381431017072
Ni 6.829697994527317 6.223968711568946 0.3054861456424486 0.24477339182979133 1.432057923869024 1.27979873731957
Ni 5.0719863882557545 2.3449562796272443 8.482371893245666 -0.2725978702412273 -0.7601793026443231 0.09117646030552039
P 8.056256794301584 0.3898301524303488 12.51604474858444 1.4141823291401838 0.01446888304013637 0.8422951954094721
P 2.1004952370728147 2.4941369733341934 13.649392662057041 -0.09623279178250524 -1.6087796143362167 -0.2886523526009287
P 4.58033645930858 0.7365372548946431 13.529374930713754 0.4055249321209726 -0.22530808401632807 -0.5383884877526341
P 1.416157816929619 8.704429477998497 2.2016677286110578 0.14116024842281497 0.19586458194423043 0.06612131710910547
P 4.48235600740758 5.83539429199705 11.293792243303404 1.0255333468389436 1.042737626532372 -0.2481474505083468
P 4.130343942197381 7.15982258053313 7.306636060604117 -0.46154155669590835 0.624167431191667 0.7400457651192416
P 5.351345338084096 4.391921048971209 1.0752753545797489 0.14086611422116382 -0.0056690253603192695 2.447339253962656
P 3.342487160122164 3.4045063079987217 7.459770740837385 0.09160223498902934 -0.8000907941272801 -0.9858100601073925
