# total energy = -340887.0105670416 ev
CRYSTAL
PRIMVEC
9.10596199538506 0.00000000000000 0.00000000000000
0.00000000000000 9.10596199538506 0.00000000000000
0.00000000000000 0.00000000000000 13.32749582499581
PRIMCOORD
 96 1
Ni 6.2852808659462065 2.488040156531825 11.522019335743781 2.1670607272477196 -0.28247990524162964 -0.8882073845605543
Ni 4.856154796061528 0.13568338390965357 5.930575425070322 -0.24709715486696154 3.3118094428072706 -2.0392306202749073
Ni 3.032840745500696 1.5343363526062084 4.5388384343664105 0.2058880276185035 1.4720401206889164 1.0093521090933906
Ni 3.8732299606962886 4.796210249484081 4.9265220265236085 -0.3870674967467334 0.3479265648812137 -0.5549301941613991
Ni 4.062488270899184 2.506324927840881 2.5112467001977254 -1.3160654329610884 0.9314119449724861 -0.09349173870225834
Ni 5.264857679858513 4.742157260195955 2.6316074821742377 -1.2727783401376789 -0.17227136800532267 0.41885584490192385
Ni 5.379784023828429 2.93486970241597 0.45988294213490744 0.13778413286173047 1.177197837227192 -0.27251996581544036
Ni 6.040330493329873 8.284230707846215 12.534736146353959 -1.1528057815360726 0.28285014409685477 -0.8712771844641188
Ni 2.1000442298846367 6.660910896459083 0.593409123692412 0.2985852954439245 0.9876656252588927 -0.9403411291413161
Ni 0.9999620899066941 0.1224305670953111 0.1643216337936078 -0.8121065876412337 -0.15997018204046642 -0.2273965911142406
Ni 8.373004729505569 9.070621569524526 6.822917794761276 -0.9060030179810783 -0.9542564536708276 -0.771742067781258
Ni 8.7009195201482 2.8628233325966232 1.4821236781993383 0.6579740953284668 -0.37713018302836343 -1.1903564860963372
Ni 7.1644250545936625 0.9571913872978124 4.564507230105004 -0.574002894522134 0.10931353622586336 0.8980235993200276
Ni 1.0433611038802795 7.958820056700589 2.488003732684596 -0.5296235970758104 -0.632231439146724 0.22952597875241762
Ni 7.6910592497569725 3.901977482121931 3.542821047114638 1.269829027701368 0.5407814134648429 1.2637589102478881
Ni 8.048978184554654 3.797231603452574 12.638783597752695 -1.1680632219157754 0.9267682755528878 -0.5540174525391426
Ni 8.385425261410724 7.740786907186631 8.875366072875343 -0.3557776854945163 -0.12147819661285529 1.3888556774499372
Ni 7.184831515003818 1.1662642703933894 0.3042556806749084 0.7409960448476529 -0.17193018261582002 -0.8235914483523816
Ni 2.135848871710935 6.5750963123871005 9.06340327359988 -0.08846986000763474 0.38463446182520855 0.4384576782932513
Ni 0.09538039695054973 5.2145199229877655 1.1710175824567992 -0.01597863481644345 0.3905060901146371 -0.2988930564923304
Ni 6.695540869212239 2.1932801728295677 6.603560638400536 -0.33797331032324374 -0.542541076468427 1.1085169869210263
Ni 3.4861992660006744 4.490514005651257 0.38223003163080677 0.8162936291393877 0.48860190324781017 -0.36014778953775395
Ni 6.156240281174977 5.747337066218232 5.0139638459705544 0.4486068509121112 1.6192974831484048 -1.6325052400879305
Ni 5.504827091366254 2.9823663992028395 9.32632790422764 0.7619582489216168 -0.2772901335105741 -0.6845916979159953
P 0.6784524327993162 6.071354505207339 12.444695485407209 -0.4821245230535826 -0.06510393158818466 -0.7649271017419536
P 4.785419684742432 6.435556553652056 12.438951444699166 -1.1751800354662147 -0.6687830130185127 -0.08675184887526351
P 2.6778175065577363 8.839548682702516 1.4187917138295765 1.5691540295247943 -1.2687080267230475 -1.6926618549731685
P 6.645995331018728 7.827548511286572 5.777509670666715 0.43753156693455614 0.603069215760471 -0.5224738734049066
P 4.943025671703157 1.2478627941485925 12.402594070991162 -0.9483359744213344 -1.7805316195029595 0.6943593188257203
P 4.057671217103123 6.301270934879823 7.984889514758705 0.16228417488562372 0.4200166979792444 0.3063207164149692
P 5.021965254610628 0.9878693726266016 3.776612063536127 0.5534610658150404 1.3007347161412888 0.06857337819402383
P 0.5631308900869633 5.919822194772083 3.163441181529516 -0.9368061194048641 -0.5500119309241753 -0.20253916575092862
Ni 0.4324612487484083 0.3526420299303512 4.819422256727065 1.3649886410243526 0.39229043570856953 -0.8008407849194272
Ni 1.8268926935510992 6.687964708988567 4.627866512360188 2.426644958838098 0.7732788161407586 -0.26077233836120894
Ni 5.918110273952311 5.847757613029121 9.178579120923315 1.2147639684064242 -0.6035800939586187 -0.6993855683957181
Ni 9.028524708089384 2.5636378514560185 10.459311705407716 -0.2091409873381624 0.8951781594514325 -0.8502442750532195
Ni 2.4035823607691302 5.272424734120378 6.936721373640352 -0.7414182199867361 0.017980752848136775 -0.07154300234530905
Ni 0.9935605987561632 0.28345128973377315 8.771237578416523 0.13328033145410595 0.38428736289843496 -0.03643895955332434
Ni 1.7489638724042373 1.0638495179467016 11.306540408516769 -0.008358399267024315 1.3987860491897717 0.7720405728582833
Ni 4.58455127323523 7.286372095117006 1.3240177739353929 -0.19262627751259084 -0.4326989214326032 -0.19833669763380682
Ni 5.512731066214989 8.144181015249961 7.706304451014752 2.470125398619236 -1.5874296879055307 2.3864840703484966
Ni 5.6162931698493965 3.198551038469917 4.655280920977241 -0.5665184132196308 -0.67312457781666 0.07090793986447143
Ni 1.031486929683562 7.354311676161261 6.758412982510734 -0.5105794359601658 1.2578852250759305 0.32600276822492885
Ni 5.40401498819765 4.746874148412136 7.106686882562124 -0.07782137915485306 -0.561248165959627 -0.049517904224469556
Ni 0.6637280925569142 8.037240599785045 10.889243317966056 -0.7251253963639834 -2.0892776575299696 1.040028969351957
Ni 4.819412240169077 0.35577174900351977 10.18459212245096 -0.6626604450605427 2.292670943751077 0.8291391176434881
Ni 8.388330063227253 7.438022783055757 4.220137966476584 -0.03471092111862409 1.0998811656228995 1.5212268668262123
Ni 7.552029424883137 6.378571444661981 7.204511319661752 -1.8403938430762306 -0.8922221621469021 -1.7094491017338365
Ni 2.9270203633380785 5.61591071945349 2.4622010793074343 -0.9663972027984195 -0.2948775075750341 0.3143369018512264
Ni 2.747141193796701 5.300134175899988 11.474440685300646 -0.3574332188200683 0.6550831469339169 -0.24138184964973913
Ni 1.803007755730555 3.8986902299094957 3.610178757199407 -1.4639450023856078 -0.2868101571858673 -1.2211840130001548
Ni 1.6728016078479915 1.219606994660545 2.6192789204833367 -0.9386166902510414 1.7347238171402255 -0.13049145585505914
Ni 1.3347245638284146 3.242095747832419 8.298937746761181 -0.1286366620345075 0.34370429926975 -0.4055982085610692
Ni 3.760598319101812 3.0446420720029552 6.873109856243106 0.7019373882832942 -0.31139067473870885 0.30243680797953076
Ni 4.260124065964794 7.078992920917587 5.857927151175512 -0.9392311839065889 -0.9909687214901967 -0.2840917298134398
Ni 8.332519623310318 7.788802643796516 13.039368516598474 0.8666952215203912 -0.2060376658224903 0.03170170197865508
P 0.24001220952823568 5.885292387598806 8.03771957337611 1.5327472087609861 -1.7475628778864223 1.3916972606637903
P 8.758605788197437 1.7394845661628395 7.787962163521702 1.008252962491941 1.2484266507661919 0.29649293169127
P 2.1442536744590717 3.4008399800190565 10.35940928782366 -1.4171642945866432 0.5480208686360755 0.47707924732019125
P 4.388527233409512 6.630014368046918 3.5063571336534913 0.6420563956569459 -0.8214795442157014 1.277127361134994
P 7.374463169640813 4.420534689162167 10.365392815327237 -0.8531051415407824 -1.1194210354280398 -0.3329146648534137
P 6.348521770697896 8.184156187584001 9.888254986163679 2.6041269245100827 -2.2906109758982547 0.24457670243795296
P 2.4578903169878594 8.567671981021999 5.676433494605701 0.6855607466974838 0.8869375167091951 -0.21653265181654321
P 6.933479651236954 4.404025580405535 1.4643315394240575 1.4291919151751387 -1.9140775459136259 -1.0220001368747043
Ni 2.8749706856475594 1.6528686574518148 0.4200161307463732 0.8497529372390978 0.23543925891305903 -1.1414980698327373
Ni 1.9783066264828613 1.3737253982490745 6.61302355391068 -1.104700955609046 0.03151992498515217 1.339308462649429
Ni 7.052230499165936 0.8081741435137314 8.8047702827719 -0.6883156837348017 1.1489383281608663 0.01990085268898508
Ni 3.140300200788628 1.7587254634616616 9.39295258438692 -0.14392367010056506 0.050032639077359 -1.494968961570948
Ni 6.406982045500753 2.240940776928969 2.515111270388743 0.7600093527253621 -0.48013243232421826 -0.23732104931680417
Ni 4.409935349618472 7.1668563463962105 10.239221519121488 -1.67926769305445 -0.5810538878316445 1.0305495691066124
Ni 7.355522769081632 6.520169150765476 11.012296732848986 0.13222540782703035 0.610998755020193 0.7587248295859836
Ni 7.959375520370834 3.7283905321893966 8.089523390097831 -0.3400530756704079 1.5463444878294463 0.9033619808138054
Ni 3.3521048724263944 8.415757220190835 12.406605247167278 0.6651793548276544 -0.007461855594683923 0.017629283045988993
Ni 0.3149815930877255 5.335492625597728 10.304605967282615 0.4906186765675227 -0.5732935271599352 0.16965295654586912
Ni 9.124446909767467 2.940023676798901 5.841681204715111 -0.10877206190009656 -0.5451957404824546 -0.5258571880548427
Ni 3.7756322620456615 2.9149640699052153 11.658253630342777 -0.6194635979580945 -0.6524246262651473 0.349532733026069
Ni 1.3245987342986985 3.550223283467791 12.730677321927232 0.5044311569705829 -0.025601502618188166 -0.36814109215587565
Ni 3.360263814205734 8.67924733104683 8.059882573818893 -1.3744263893984845 0.22683866172824158 -0.11738859992451396
Ni 6.023684795146131 8.132607337792884 3.453460601514893 -0.6946912482438422 -0.26157735076100763 0.23613525653881914
Ni 3.2807687676280164 8.63316205834009 3.4743050586879805 1.3333388753295552 -1.8067429877910046 0.26894741797283356
Ni 3.630838363347806 4.317755698243187 9.037401199659138 -0.21316476378557478 0.9359309158887623 0.18058708695986964
Ni 5.267607680324317 4.576938689164329 11.26867781932202 0.7076400950950265 2.2831812590930873 0.2976023627053649
Ni 8.108995578826558 0.23176129753464236 2.5087944646830205 0.6469090957635568 -0.8431200053036124 -0.6770367683868727
Ni 5.028403169608389 0.6106266762776523 1.1670492043011786 -0.6385308990021906 -0.9963731803352196 0.9459610464312548
Ni 6.78760214308403 6.0067659181081705 13.424252936096108 -0.8486697314772481 0.2647914868229311 0.02664382783977347
Ni 7.921931805419223 0.3277208336561363 11.085784576422428 -0.4603853316042781 0.12438997094301157 0.27680959432972974
Ni 9.188461821272778 5.477572947677009 5.428635687732225 -0.9878440598182857 -1.7015645567794373 0.317565178980537
Ni 7.3093828606040505 6.153554022441825 2.737281258351758 -0.14738103252154616 0.19554396538001806 -1.5285833071912835
P 8.838547026903711 2.004149346091975 3.3642859175360176 -0.020183159816094275 0.05720730244892728 2.6921674102897826
P 2.074028497001185 3.324104039868951 1.5013691284790642 -0.17578118093079403 0.15553220087377084 0.2819957665163595
P 4.876788905516866 1.4473015696520477 7.852080882991616 0.26464750504589907 -0.9219515708905348 0.5021094508159417
P 8.993266423971523 1.7808802685388192 12.49861825944149 -0.30051130882204374 -0.26332210136625617 0.3621506789003956
P 6.815593869679666 8.10137388879385 1.3360549448484607 -0.3279208111832481 -0.42295418334101353 -0.6966923378342711
P 2.1775906006355923 3.563973285796812 5.594136543579878 -0.84969303053544 -1.3120545120294824 1.3451597792238834
P 7.1942743973979875 4.2320685976365064 5.944595874465019 1.3104653131654915 -0.8607305192965241 0.028815638680111662
P 2.532213177259031 8.540408731370947 10.202384261226241 2.090826490074328 0.012639286030565328 -0.6663857164309297
