# total energy = -381168.4300748076 ev
CRYSTAL
PRIMVEC
9.24116876372253 0.00000000000000 0.00000000000000
0.00000000000000 9.24116876372253 0.00000000000000
0.00000000000000 0.00000000000000 13.52538459735997
PRIMCOORD
 96 1
Ni 4.472910474533053 1.2395734048427038 1.2100404779088731 2.320478452881649 -1.519970882931924 -1.22108605396971
Ni 8.038005500580033 7.0440253951282426 6.304898240105511 -1.5123876712680278 -0.35700281615086904 1.1774325789458175
Ni 7.1016255996399655 7.246933736290431 4.156878214954474 -0.5057113092345871 0.8633229626140485 -0.3965579527356719
Ni 3.235795220564746 7.516230633398748 6.793111030799441 -0.8273848539565427 -1.025772202322627 -0.11024144735677144
Ni 3.0732985101309014 5.144068833761828 7.631657451055363 0.08790781685657764 -0.39450184153759155 -1.04691644050041
Ni 7.8916161471915816 3.575981122776453 1.8606058168049158 -0.1852271568350423 -1.5741268001490374 0.5357448794821998
Ni 5.071525659461004 2.9864869713561335 10.552153236719498 1.2250825767236126 0.21152028620361635 0.5507259262720645
Ni 5.448445207258161 6.923927166693402 6.146502760341056 -0.3331653474116391 -0.49639080316460965 -1.0181355117129756
Ni 6.35534578004286 8.715780536598539 0.5141388894838613 0.1549920120995847 0.13479882498116139 -0.8045999948515434
Ni 8.64104720531564 7.560930166404236 13.29184186028614 -0.8939769400544798 0.2766177900338978 1.4468278830893468
Ni 2.903556723435676 8.022369443138377 10.590322035804174 1.639072866003119 0.0716954687627733 0.3562741655149606
Ni 2.9308274122715656 3.4620097891902044 5.797926801065945 0.2556149625299856 0.03896429707833935 0.19744118240273095
Ni 7.5932280510133285 1.9086432599451117 0.1201416619277341 -0.8859985498346935 0.9892260277674769 -1.730975920062019
Ni 4.820785029103777 2.8985387688311737 13.072743915677124 -0.09178761152695805 1.0349384422029273 -1.1354881161932315
Ni 5.565068756261523 0.8721482337686897 12.047262514358245 0.5274975518717431 0.7152186787732329 0.08732880442465604
Ni 0.6361454192554051 8.994910037204445 3.9520088977939882 0.5930830510820366 3.094873642015038 -1.0704777727601176
Ni 0.2359233404624582 2.570042945025904 10.242679434567837 1.5737853576492187 -0.730151388823665 1.9684625484224099
Ni 1.0533268908479534 2.025183638430167 5.9882154022503995 -0.5037670410240227 -0.6158134028000168 0.1448783207043505
Ni 2.777340841320944 3.775904566448302 3.2335810365440483 0.5131315129580583 -1.002894269283189 1.1034480570385512
Ni 8.457536077256309 5.220724328134482 3.4510017090338807 0.4928586216416351 -0.483573082574651 0.44097016030245995
Ni 2.3065032960181493 9.02450025938422 8.526794940200888 -0.8400940739930952 -1.5856139748530305 -0.30041514956381166
Ni 8.599748422392024 0.35427498801285856 12.060220481110425 -1.5596473755859397 1.2064258808543737 0.5737061892173216
Ni 6.7486129552716285 2.807143610380837 4.695756637167091 -0.8430878665140964 1.0163948748727851 -1.5661119002643609
Ni 5.343862901071866 2.722919598842276 8.054163684053279 -1.4478753505172548 0.25603816611033325 0.6674072157169086
P 4.292772373049492 4.865216568216944 11.680170025357459 -0.0363127183881052 -0.9286469806328392 -0.36796137204490176
Ni 5.086274564707389 4.448643165524905 6.432118637258013 0.19316003852887378 -0.19416765385778173 0.39555547961308646
P 4.095149980384129 7.780398681878153 4.0502037081743305 0.1744460070591383 -0.4125597274805669 0.7130808064946235
Ni 2.0973941306577633 5.9556929572418795 11.79194380902667 -1.0988720076320946 -1.1282581741036954 -0.24295022257812351
P 7.1867737280486015 7.721199755181201 9.393325467516398 -1.4534896113802387 0.3159045034486624 -0.11957275206002634
P 6.638855594612919 6.651137107816204 1.0034412139676088 0.6286714897096076 0.22799540104050411 -0.8612046307194653
P 1.1044120714256542 8.944785938171622 1.614024636479892 2.1558090655933 -2.118597232429693 0.03763349408205777
Ni 8.317301342222551 3.357575341703121 6.308185323812364 1.2513926753730513 1.1921292617260437 -0.02534902028774989
Ni 3.887038861243423 0.8232883266141274 9.830222048415107 0.8276139392482134 1.0336809156467426 -0.31589936124233986
Ni 0.4282292887742851 1.3750674203329805 8.220336531396278 0.03502151038050743 0.13451831762626512 -1.953568662029713
Ni 2.9169656592204527 3.465660050826998 9.974971094359177 -0.9861003376543017 0.5731297478885614 -0.09435588647476653
Ni 5.477656541521205 8.890170631150237 2.754958730727748 0.5425418477993752 -0.5880190062955679 0.3829537316886759
Ni 9.055245627651589 5.38428377296891 1.0125807298126426 -2.2227600776925525 1.089449428766614 -2.365404366860062
Ni 8.536474140298045 0.4350973253526764 1.583416961626165 -1.312051940926321 0.5243093839517486 -0.3197827554571461
Ni 4.922678155198156 4.375379180065424 4.222692894324287 -1.4082937315698907 -1.074341369480582 -0.4147716475302211
Ni 2.1008965335953445 6.2820448299085765 9.437499178022813 -1.1317391906737606 -0.22479103517059348 -1.27980670773937
Ni 8.516993756676882 7.391197620877711 2.280501419644872 0.31009689562794984 -0.025317652829182205 -0.24664464071057518
Ni 1.146939929786468 3.836822350523592 8.20728430472335 -0.0874676439953655 -0.43471543764199977 -1.3002117537582834
Ni 1.8397318649436802 7.052896917080955 0.6831210521118859 -0.8083496917019627 0.2847046808070903 -0.47751042132033894
Ni 1.2144189436392847 1.1428830567268422 13.443474652795393 -0.6444529209135804 -0.3618478029479962 1.5063525208175412
Ni 0.0007152664574374163 4.895998901159115 9.888517188813127 0.026579036040109066 0.971882908503339 0.9214592046351485
Ni 5.4399433320534785 8.051626983244926 11.00175087988051 0.173279754665179 0.030899003571701625 -0.7235356832793604
Ni 1.1407021409134672 8.257825180464577 11.981705663595182 2.0696943360814033 0.5659895372993543 0.8680594488577696
Ni 3.010199810242237 2.7810557911386424 0.969758078170275 -4.193800157034151 -0.8328155380538109 -0.11419426135693238
Ni 5.6460860822609265 9.020757586060421 5.108930213894127 -0.5001710961426483 0.7245294146511974 0.6049571768118033
Ni 6.584212564085432 8.682096476684334 7.4083131894283545 0.8066563631599398 -0.2131904748171877 0.40917795549252756
Ni 2.924330870674944 5.755436831496804 4.990434404111995 1.1766784743886123 0.24457695954826913 0.8567679351043503
Ni 6.870938305363349 4.757945081938733 10.23326545601239 -1.321007607457712 0.7207398657017781 -1.7276825940227278
Ni 4.806793899690854 1.987747664023462 5.700422305987548 -0.7971962461883044 0.4924940392133647 1.1310059120521618
Ni 6.3239442887977395 0.9262330977066512 9.478602972286843 -1.376258557511217 -0.7012413906575343 -0.041140993014683984
Ni 7.680991430164274 2.7409029131339193 8.970291563785668 -0.8569337712582532 1.2282442622810459 -1.3344750458165275
Ni 9.2459741084662 7.66587287816986 8.326835455971107 -0.40534752600284385 -0.33963270030353765 1.089766960007033
P 1.4770621992830677 0.6197063042536555 10.350801108366516 -0.2553267418656054 0.3063631396171304 0.36042289757601154
Ni 3.16334445795093 4.884687710669407 0.28828102997025107 0.5350740786674205 0.9947994080901965 -0.7173534657280484
P 8.303282489303527 0.31223413924257387 6.101760717959544 0.5893665214623978 -0.46578027736760425 -0.7919758783296296
Ni 1.4225393039486909 3.134678352641229 12.314970854566905 -0.6762327844283386 2.3193363688574054 0.21106365828217202
P 9.155780301946958 5.7817187152817135 12.227394147023714 0.404654099480245 -1.1406632326362678 0.0781399388365364
P 3.757108029310993 9.084299862046722 12.599950939077251 1.1039995586666471 -2.806933227879469 1.4656933525352822
P 6.755395973097973 5.266033778274219 4.85320582125659 0.024003047782816728 -0.5556853271598687 1.225792972527076
Ni 0.23048676091581177 7.053747104601423 4.586200733986057 0.5118014812927251 -2.2165135825622087 -0.3948648813039651
Ni 6.305739186457278 4.519208729723769 0.19761130326292278 -0.6648929339354871 1.4701105077663714 1.5444866086851015
Ni 2.9727361123294296 0.21166527262301094 5.11707260763635 0.21218131682638294 -0.5053688382935039 0.21613875881223418
Ni 8.530541309992168 0.3187121985017939 9.755738228687129 -0.17496562700803417 -1.0886634425302089 0.6071166463569673
Ni 6.885105016981586 1.740916048026648 6.704627764606709 -0.42944724726452493 -1.4574316267471221 1.101680166504851
Ni 7.69315280817445 4.102783185730941 12.16654289936307 2.205373249674673 -1.3688681785844168 -0.38481289638460175
Ni 2.9240998414574255 0.17271744301686448 2.5500755518142113 -0.5328709003685146 0.5552047879790244 1.5994855906288004
Ni 6.761282597560346 6.439856267811144 12.032533939683002 -0.17198700399568445 -0.2066161640337796 0.8726331842713811
Ni 4.046319644969409 6.811813308016002 12.627150470914145 0.9615164776673505 0.48504915289954526 -0.26858566375804066
Ni 1.602427893877331 5.2140984101760495 2.199308511440154 -0.033377032798548964 -0.2821217505712625 0.06774728274830268
Ni 3.985059937652191 7.868836666344252 1.1712072387946157 0.6761893327849129 0.46668941944543496 -0.7934380646974529
Ni 7.581981548704525 0.5825392478561419 3.8410871498789843 -0.5804921017909034 -0.9014773621965828 0.6519965375887932
Ni 2.892753797224509 1.5006918676508645 11.888745051166941 0.20935387467991684 1.1728223338673158 -1.1395769415506245
Ni 6.165144045844193 5.44918450075422 2.685261836386753 1.717882062992538 0.3974493542016897 -0.9927368691342129
Ni 0.910983321116687 6.265447690922044 6.588025470291358 1.7164036786747985 -0.9753451560203267 2.223402853482874
Ni 2.2324445700504043 7.036761836529459 3.2768352507647402 -2.0510060156432806 3.077706643317448 0.08427561942062906
Ni 6.146957425841133 5.745641192674017 8.005850854085802 2.0300281278400325 0.40934173476390145 0.6544743097053245
Ni 4.76973681320088 3.782299455189215 1.8412917742203654 1.1112791230471957 -0.40638882278316457 0.33820445249744335
Ni 8.77546924523663 7.2758401119863505 10.75460136768039 -0.47597315874020607 -0.23546496994467192 -0.8552404427162302
Ni 4.466580273973045 1.957926412626168 3.462688090972839 0.061742985535751735 -0.1352955621119218 -0.24356111668924507
Ni 3.9614579927904963 5.9242452601532545 2.5297745524124218 0.5050245675802076 -0.5382529906160343 -0.2884260955227355
Ni 2.634038038278541 1.9153985542653542 7.778434933529245 1.365525487364429 1.3747693745602 0.06596370848531864
Ni 4.38144138673311 5.650919213491414 9.410407767859718 0.13137488690127697 -0.6748148210348894 2.1550477619472432
Ni 0.9087719094465995 4.626378563146272 5.108443204303598 -0.6375394816231987 -1.4237221503098192 -0.9923239499665104
Ni 4.2344975632226145 0.2583904698077017 7.212843989070264 1.19335747770619 1.4731816904925275 -0.1697185196764819
P 0.7939457677555322 3.511856653162006 0.9322758979200663 0.44029318884009333 -1.4862930310635047 -0.34601340701890093
Ni 4.76701066843416 7.937184350054939 8.753141657538768 -0.12215362541332511 -1.0091420499651136 0.20958964483980677
P 2.174751953851673 1.9670566873025008 4.177449980599195 -0.17500625043798249 -0.24525547367253242 -0.6863385054037728
Ni 8.906934111173383 2.372975022482585 4.063390855910289 1.9089119425522865 1.019573786821399 -0.614178181189439
P 7.307731385172612 2.0596624388526346 11.183532061159061 0.3522902411665481 0.35940216962098104 0.04175600089086357
P 8.368940992922296 4.830146332997628 7.807704487155106 -0.21907547284305495 1.1587396305220043 0.9923499181084394
P 6.6584006664149875 1.4006100106218307 1.9798455406674575 -1.4738231807312683 1.1334055226325899 0.45051255257525635
Ni 0.9802846934372901 8.618055177588193 6.4987853523820345 0.022113544069587723 1.0508947084218676 -0.9792192942637522
