# total energy = -340892.3331772642 ev
CRYSTAL
PRIMVEC
9.07386620504089 0.00000000000000 0.00000000000000

0.00000000000000 9.07386620504089 0.00000000000000

0.00000000000000 0.00000000000000 13.28052039153355

PRIMCOORD
 96 1
Ni 6.629067172525805 1.671533179187766 11.425589947942854 -1.5270020787470928 2.7377664390758203 0.7733626341038166
Ni 4.593662886806459 0.2636684026232431 6.111137244318328 -0.2285798127890644 0.18534517047014532 -0.41479247346582754
Ni 2.5468073820042245 1.605094331228258 4.799579760923407 1.6637310308714315 -0.14411933105113892 0.348713065338251
Ni 3.4427064825824916 4.484948896448241 4.965958170672867 -0.3392102680541384 0.25865606334915453 -0.053796476995165425
Ni 5.080375993293765 4.427257255458545 2.652743861933542 0.7586111868262547 1.6442711223746067 -0.1752574472168401
Ni 7.494450861237392 6.480446318834358 2.547031506498161 0.1400407901063911 -1.3474197789026536 0.110944386961067
Ni 5.01482638421708 4.513522500958551 11.201149683464728 0.32227852529580625 0.2955825040618587 0.43253385660964866
Ni 5.808136354089228 7.83866797368535 12.592296769032174 -1.1741181698606038 1.019180150927406 -0.7817886533839826
Ni 1.9632851975491514 6.573344560490932 0.15216510581012932 0.2987876412627176 0.524432282682858 1.35271110920858
Ni 2.783308629370602 1.8853316134436973 0.3162342166240935 0.7351113039321017 -1.505744197809581 2.0069208523986077
Ni 0.5538851228318357 9.31686428678827 4.57058441563735 0.13962915649026922 -1.5892788252991272 0.3950073204191003
Ni 8.516594661578107 2.5105391389976477 1.5240855763896757 1.5541881522435814 0.04483746802966472 0.21014963110833484
Ni 6.8370220369803265 0.8154828691993617 4.785236700698115 -1.5080713032808608 0.10518717276231562 -0.055158390339698556
Ni 0.8429494620392185 7.366826933819954 2.4815445070979196 -0.004749084649211176 1.7701088815077386 -0.8812006142254178
Ni 7.470414189802712 4.065119257361855 3.785214078647552 0.9484097650820634 -0.29158932374206553 -0.09847042286377235
Ni 7.758400553711325 3.8168673533295987 12.516093533707297 0.15193522755113187 -0.08208966751290378 -0.14169220966688498
Ni 8.051350322404677 8.968754485761425 6.586620534056837 0.11861218791896992 -0.5155900018008798 1.357875684128655
Ni 7.137820699894515 0.6661234028032013 0.5015670253769147 -1.3195575052747468 -0.08073958124291257 -0.19947543922394032
Ni 1.8359334861162513 6.254770193786429 9.412609000256495 -0.7755742970431546 0.8814111875743273 -1.2017526437484207
Ni 0.12305523581027984 5.001705573762361 1.246907094453825 -0.07401897468962737 0.06536901232411323 0.2886325551065868
Ni 6.390796521259933 1.8928992178138462 7.103457968779703 -0.11509569012527922 0.35454921240405385 -0.5261970878927648
Ni 3.2986770051635803 4.4020772768888055 0.6681985959919939 -0.46701774931913115 0.01433981366143982 0.159913360660602
Ni 5.9173131116211595 5.746207217606895 4.830457220049522 0.27687438612939413 0.16464393336705194 -0.1950613693166447
Ni 5.057818362041738 2.6715276722532604 9.492849198632065 1.1125559328770904 0.20115025582320198 0.013280262048673903
P 0.27310885296701154 5.5578246824406365 12.265915247891128 -1.2019439338236204 -0.3478160074452784 0.574518657816288
P 4.121976102665635 5.969424324927831 12.640306594838478 0.26684708380037914 0.14473588158921527 0.1003936080284142
P 2.369948656850063 8.592270705279596 1.291793695530866 1.1628945332306426 -0.5487886000400355 0.9467444615644985
P 6.2233836907692295 7.874464375652061 6.025743997355458 0.08233135121006466 -0.3588509251032013 -0.6934537762923154
P 4.978313146824419 1.3873124697319246 12.688182127425742 -1.1362481342877075 -0.9800651872038154 0.6203961370746928
P 3.985840888798317 6.07121495541264 8.374483399463571 0.12951700775693178 -0.2485842809354493 -0.27002085354267047
P 4.775122062099308 1.1184447418040107 3.9260268705158428 0.2587403955328447 -0.051236686687789176 -0.4552102151612418
P 0.22176528873673554 5.789398820486881 3.7387586061129583 -0.8142719707236686 -1.327807918208997 -0.5323816194369219
Ni 1.5234386097330908 1.1477805510710266 2.5522634977209755 -0.09097848536210137 -0.0002604527502382611 -0.488171757688927
Ni 1.9198032309523252 6.550505639388217 4.799195028998594 0.7104526248431572 0.9407525056471218 0.5169398309605548
Ni 6.071614205523295 5.563396036257508 9.239018681690016 -0.6583656743399307 0.5956515831401612 -0.6435545774690272
Ni 8.535150717857428 2.213406318008567 10.176888950150925 1.254679316544123 -0.008595712088811002 -0.08384213142763625
Ni 2.247397020611178 5.221982748450291 7.1094077028150835 -0.1441573833779259 0.15186272244198362 -0.016023114901133693
Ni 0.4442465055128053 8.911661719937712 9.121963993565563 -0.059583258880271585 0.5294104526237399 0.106601536611339
Ni 1.4489966118281736 1.0280055178744265 11.421818849170391 -0.061238020874875176 1.2899371113051525 -0.9190973892711913
Ni 4.152137633752416 6.693473474467432 1.472716605334176 0.0744851156927685 1.0544945099579839 0.4459344462862707
Ni 5.542716695298793 7.876714694457573 8.370871093348756 0.10568725232718572 -0.5312194808080206 -0.7310816139474183
Ni 5.266172476606915 3.1525423907975765 4.783696865612246 0.9911337863131511 -1.2052192621407822 0.5616819110629359
Ni 0.8449602307783373 7.447811189219929 6.734538163121563 -0.23985769969572887 -0.3538799542511712 1.0753636400975093
Ni 5.173573672533331 4.296638952211192 7.418791150494977 -0.38682092795356604 0.2541926282611622 -0.7439358442022671
Ni 8.150890634083973 7.053715034538509 9.168499316122286 -0.39060096382128856 0.2174029702366385 0.5358492662705481
Ni 4.744534059303418 0.30314697947413466 10.409577358960545 -1.040254712209518 -0.9153368937874945 0.9774202933818004
Ni 8.138414068125993 7.318263602178424 4.836287179051705 -0.23053076586784815 0.2553236565418119 -0.6933601881372446
Ni 7.353715197231388 6.2883072030814775 6.924543105555666 -0.24201819768215738 -0.6515357959022907 0.9017383291674533
Ni 2.201074933909008 5.380294491191282 2.7529592692544913 0.7119464357798642 -0.9456370874329328 -0.896258794110121
Ni 2.2268084183139742 5.171287058263214 11.503879265095906 0.39432726363294024 -1.5395112669576971 -0.19374779271154374
Ni 1.1804192476171003 3.3798790333511843 3.9467180075005555 -1.6961528988455628 0.4212747387560616 -0.7141511567406669
Ni 3.8339262216939627 2.5314453266101458 2.607350939125261 -0.8880358919796966 -0.3729526546119061 -0.10276827890817786
Ni 1.039756174540305 3.0412514224524023 8.239221091520005 0.10982569997559151 0.6794518055862685 -0.7910397396686053
Ni 3.576691190171961 2.476548436395037 7.16259598403391 -0.4675949619788398 0.5834025905694791 -0.7983676407885864
Ni 4.1263134106859365 6.724506096704732 6.112187090632028 -0.14399026167244233 0.8166610397811356 0.5714955547192481
Ni 0.8723152150645335 7.615904559671976 11.601118444319242 -0.08374622927972028 -0.8757689016868853 -1.7207519283411654
P 0.1769313160833718 5.618991614166264 7.984209157205061 0.6196134932723973 -0.4066670161452158 0.19971686581078507
P 8.499708196670616 1.4888581058306483 7.954952290573561 -0.31655165011435804 0.3128019532639387 1.0668363193527886
P 1.8377845548111076 3.1184790972657557 10.470960248700573 -2.538504658524583 -0.16064921038536203 0.17982449776223222
P 4.0409101824702995 6.317615790750039 3.7390643954022553 0.08346495059387561 -1.905456894124151 0.06681320096980752
P 6.94880299409767 3.8040641281901744 10.213808696747163 -0.4752162259695235 -0.10266903432615221 1.2011263230183313
P 6.394525880248099 7.685165380004525 10.476192239923387 -0.39760156350883785 0.8606994089482726 -1.0699812927396732
P 2.4870559733981934 8.630498903374844 5.735086287251914 -0.22028466265980767 -1.3184748137335291 -0.2327213457612637
P 7.093277090957993 4.136276515720017 1.472052398331904 -1.0738202068697893 0.6339103695110437 0.49942136246081736
Ni 5.352474017571526 3.416682634460685 0.25179706353755277 0.48041396812037906 -0.8067301538206686 -0.3616773388084029
Ni 1.451972839925786 0.8426563761625329 7.038794876425996 -0.07387833534670502 0.9170050255185368 0.29667856533951487
Ni 6.820797964301877 0.6766826608434198 9.333602847677495 1.0610683065207598 -0.6613890345472867 -1.4140715145939324
Ni 2.651311098468258 1.524110075828284 9.21567162408283 0.5664466794414308 -1.315635030291889 0.34484252663925125
Ni 6.340572672112721 2.0931685176382526 2.319416296253709 -0.6701876066755231 0.09293509486783995 1.2405292502959862
Ni 3.7704273063674623 6.769394512555004 10.629422617619674 1.5508616589735098 1.1825097363584087 -0.21734949129088377
Ni 8.415166985739349 7.247714292852396 0.16997982722489335 -0.8919154295397607 -0.6530046671383335 0.39029294566256656
Ni 7.678904412360157 3.6920472505528994 8.154678065815508 0.38167203676277495 0.515404625262951 -0.7156236275211353
Ni 3.245594888178723 8.810188674768199 12.528683522992168 0.36751220032262516 -0.7607737416952124 -0.691947366950118
Ni 0.035549592807396994 4.607201095104134 10.066501738874415 0.12601310836873136 0.47132100468017535 0.7124747974795085
Ni 8.771488635633084 2.1560776316649215 5.8015823005681755 0.17083437844847998 1.9764710205491833 0.5894264281660558
Ni 3.5315850015340597 2.7431386239189854 11.644320028451993 0.7411873349228526 -0.05764978930298459 -0.39457126132294623
Ni 1.138144105218391 3.2456947007063865 12.99178824452713 -0.8250394936528178 1.0387035656723143 -1.0780057057060466
Ni 3.132743214855532 8.24185614225033 8.084556135585204 -0.4181300224794928 -0.11799203783646776 -0.18454427183540476
Ni 5.726426189397154 7.901967263956522 3.555261440482536 0.23954325377910357 0.2872809261746988 0.46533547652070184
Ni 3.42566576195043 8.32858415492405 3.6325671505447903 -1.8095321205003674 1.5936841534556747 -0.07735163860728614
Ni 3.2237450184864946 4.090126832474721 9.25664194452899 0.705333815559353 1.2394149341858849 -0.6707208534711739
Ni 7.1720382491509085 5.894419747321536 11.295388135151844 1.3137087598034534 -0.13724214431533138 1.155788004092848
Ni 0.725928347219525 0.013437488383397369 0.09185021011610497 -0.3492884782257469 0.7044784095375931 1.8007106655539957
Ni 4.474885978886497 0.3611779830578874 1.3859414085564696 0.6703416157548843 -0.3732946113323571 0.5170784134209482
Ni 6.261403189942999 5.850039467975736 0.36818482249988854 -0.09657680538548528 -1.144298258285694 0.478520350642092
Ni 7.9404858257686115 9.01064852578178 11.56174240215586 1.4596108937866283 -2.1167578652281094 -1.010106470760912
Ni 0.032609660174389536 4.923906245381478 5.771036944943196 -0.10093482524386486 -0.5242091109284585 0.3312226218629715
Ni 7.882839554109672 9.004033677357514 2.6909520975232573 0.7749333210250461 -0.17913724188722052 -0.03857503205972066
P 8.410176359356159 1.830434723228589 3.693153354836737 -0.014119727230833747 0.29396528017340984 -1.2622797545992002
P 1.8079496829057728 3.2640148364657757 1.8951431849130522 0.13272085940621012 0.1970956261378541 -1.2635051423658692
P 4.751049095200021 0.9464586827730743 8.25271483787354 -0.27303084401358785 -0.39134864062059055 0.12549425975078388
P 8.632912551771078 1.7017673012037562 12.672723889050461 0.3365599749154849 0.9813139720092519 -1.1374470396918153
P 6.311826664145538 7.94199208754972 1.4517469006586197 0.3295830293770195 -0.5380796982629636 -0.3891812006556265
P 1.7410662155048529 3.386566472704661 5.977681543125477 0.9441319636423159 -0.8148047032986871 1.5074066731136684
P 6.9295845455893055 4.235208878367178 6.106555849298558 -0.5745178864853396 -1.0031027857495691 -0.7077002589090005
P 2.2663432531350036 8.403425402939622 10.157154198658555 1.0993278642225905 0.8086242855195881 0.5745595383565525
