# total energy = -340892.39490615245 ev
CRYSTAL
PRIMVEC
9.08208606204495 0.00000000000000 0.00000000000000

0.00000000000000 9.08208606204495 0.00000000000000

0.00000000000000 0.00000000000000 13.29255098312735

PRIMCOORD
 96 1
Ni 6.402007733731859 1.861791273127721 11.406909117405617 -0.1727832746447347 0.9933387643842699 0.3196220615095657
Ni 4.904916700431826 0.3458994138871737 5.992747147836569 -0.16964267213322398 -0.6589344023592072 -0.05707720462896622
Ni 2.8015782717493387 1.4630241292360409 4.797667256709812 0.2745699063659336 -0.08109002260379582 0.47579086752607086
Ni 3.2223785559394047 4.460857194352163 5.060952384772487 0.34109977176736733 0.598911999058988 -1.3333535306175746
Ni 5.175435709882656 4.564338480650516 2.391569321979117 0.7591328636576797 1.043125348889094 1.0179578484845306
Ni 7.484020196934153 6.285048632016026 2.5443935807593867 -0.8496860885569044 -0.5369838940956236 0.12263416459416944
Ni 5.12989813137643 4.651017908106325 11.527805303342122 0.1767592285733472 -0.8689673053840196 0.008513693897965982
Ni 5.501891286150368 7.846486243640075 12.737201286411311 -0.03016109696441257 0.2700964439756123 -0.6412223297914247
Ni 1.8112948757414786 6.659512114144111 0.3444853331186417 0.3947944330773459 -0.5647338105153822 1.3959097560832412
Ni 2.830586453988846 1.7993610149203414 0.4439341732947844 0.19115534939401918 -0.83987193067996 -0.4024380656655327
Ni 0.5215342395155165 0.13593702833063315 4.845281000043825 0.7128787177861464 -0.17815533758992544 -0.44126095207000127
Ni 8.853317200086376 2.190680848406137 1.321727762038929 -0.9640482429502689 0.08751186696973962 -0.3907053506096368
Ni 7.24948441166395 0.6220211621055526 4.766136979226752 -2.0139931858643574 -0.2566493173317709 0.19327985193618968
Ni 0.9596495203992639 7.469679583359894 2.667788248516207 -0.15028535065253473 -0.46064269903072275 -0.3644551586638562
Ni 7.656652484976902 3.887641345245564 3.7154540794099944 0.45561722079167344 0.09036090638276051 0.6453993439872497
Ni 7.411735875567767 3.854037627560475 12.750321267645875 0.6857744053701866 -0.26870650560662107 -0.5941068643608607
Ni 8.114217052731627 8.954873084182232 7.033753085168607 -0.3956732361378734 -0.7445138281929242 -0.3893616920975488
Ni 6.813308156111491 0.6604747136403277 0.5379046992796714 0.1414888354068273 0.4807811216518107 -0.5903070309987963
Ni 1.7379479503293755 6.600124354700112 9.320496972141967 1.2849417149730902 0.5377500828376868 0.35242368142061886
Ni 0.19421314046526666 4.849525058766594 1.3852832906844659 -0.5203640261507555 0.12678392509648487 -0.05476989665202825
Ni 6.484137036171389 2.0101743919220425 6.948721148087954 -1.0855161551504788 -0.7296448815008919 0.0032766138687427442
Ni 3.5815023950485396 4.2284920276027 0.5575655987512069 -0.6937877625929665 0.9581480754157498 -0.48796864053918537
Ni 6.191802856482834 5.678583266572912 4.604938129074205 -0.8231803289568921 0.3075401906443671 0.7053582410393853
Ni 5.4360370815734536 3.0947661675088125 9.234255301224652 -0.12647642115839505 0.18193743034017698 0.31164598528262455
P 0.2083203444329016 5.77917644956752 12.6087288244497 -1.0529009402186191 -1.0091446210682748 -1.0221916840602203
P 3.9475740298412143 6.181730823263168 12.602016254789957 0.25199690616142406 -0.7430328727720236 3.2349686823981316
P 2.37051523053653 8.703935051847363 1.3261689020248772 0.9694850976951239 -0.9885968788239102 1.176364028471987
P 6.621167547639667 7.716794057547351 5.843272362321776 -1.493351994792815 0.5167243725156392 -0.16011262115560165
P 4.741357416164049 0.8591616896006418 12.74319637128805 0.08139469832840822 0.2076898567139326 0.17523996371534334
P 3.8689958229732704 6.268301265688646 8.10210245840186 -0.10337685902645423 -0.06312186816114936 0.5603747622157381
P 4.985729100421535 1.1157070017459907 3.8950096415044597 -0.6557704028089286 0.13064700759631695 0.8645421797331304
P 0.134086099232195 5.62418157226651 3.5897462043844195 1.7748638796942209 -0.9931621295970895 0.21257135317595002
Ni 1.727576208276302 1.1149622707054023 2.655625519131377 -0.8975852262310283 0.844354649041662 0.17509212528356943
Ni 1.7301827669183618 6.558809946119174 5.0181239924785475 0.5386929063669302 -1.3181570253827943 -2.742085892386781
Ni 5.86914359210495 5.597126038487083 9.278386064631034 0.0757146172244954 -0.020205528413597462 -0.2137563746229867
Ni 8.677587920765081 2.1800820542065424 10.499001148364115 -0.38398268717382256 0.5117580296492993 -0.952403973843121
Ni 2.150492618471942 5.220146818575546 7.035866486548423 0.4160482002497996 -0.38937043384829717 0.9844134368701821
Ni 0.42414975745554157 0.17258233657051608 9.128792303791462 1.0972684105904007 -2.171138239751203 1.9965266536484774
Ni 1.552982189687611 1.1967646180539426 11.457753358680328 0.9740274656501677 0.22963705040898516 -1.0582030691578226
Ni 4.234577025129459 6.913610712358552 1.553407231305898 -0.5136637313124445 0.1786145366145311 -0.09831230001935327
Ni 5.724992725321778 7.705277972675813 7.975237525637615 -0.5266190059215318 0.2070401389450757 -1.0297741243931684
Ni 5.1880779734009375 3.147333280471325 4.6826335571964774 0.7507024735021395 -0.07648851927604247 0.07366261979147314
Ni 0.8860328570370941 7.236778573544642 6.903619509703048 -1.9432089160619437 1.047526563280583 2.3723517447121725
Ni 5.014037962049758 4.85090553581744 6.896600873749794 0.47730113352301023 -0.39734136786891566 -0.04880390887658047
Ni 7.926154300811319 7.3261008879859535 9.028712258647992 0.5255064895836434 -0.27937889771880275 0.3227292396799797
Ni 4.58559056156487 0.29362746871513823 10.604451430877099 -0.39460725676720426 -1.090260611814 -0.8156891627861693
Ni 8.397941415024112 7.021378743183219 4.934739545773049 0.049001369599367225 0.77410156915237 -0.14408770648225505
Ni 7.320270188863297 5.931310469822367 6.934365094967732 0.2520046194709079 0.17859062535513115 0.4497196243603158
Ni 2.4016032104381675 5.324954089409581 2.610018916772608 0.1621360793435337 0.007223514331632722 0.32807173493881564
Ni 2.245355005288363 5.090254826593885 11.693217333125506 0.6157666087224815 0.6981732932551719 -0.29992124064652864
Ni 1.025894254668194 3.45119262711728 3.6185645710294354 0.21963314511873788 0.25571600688422413 1.0737114492060669
Ni 3.776176905475537 2.860820717819565 2.7462810837770593 -1.5150068540584296 -1.0745280315700916 -0.206133053749774
Ni 1.114753382730603 3.260804861216597 8.310236620074615 -0.4990904614839598 0.5518410137131142 0.2987146219329372
Ni 3.8500869202110115 2.7435346610127427 6.706423812241082 -1.2270710679085512 0.18966205267794434 0.40982175972411355
Ni 3.937293108646749 7.010480240150217 5.9689666142185605 0.8615707558096324 -0.05999977759239989 -0.15114769865283
Ni 0.6278999962832711 7.62234944668053 11.372016651736875 -0.21583691130109922 -0.34485898169948354 -0.09868382442615908
P 0.18942597300802058 5.638276969522526 8.377682914302934 -1.5318190405197618 -1.6048813077230748 -1.3239898300144874
P 8.50028744058986 1.649388531100374 8.180860490569849 -0.9045549726806421 1.712752969296089 -0.378810913164896
P 1.9697318635837442 3.2695236636429987 10.55998735491962 -0.2021103057436261 -1.2621139184452974 -0.2731573422891231
P 4.094131649377508 6.278936388231685 3.8199870712510324 -0.36022620818417317 -1.491888008652779 -0.5141213876751533
P 7.152805607675361 3.9954820327571183 10.300264220931567 -1.5870990440389892 -0.17131697451185335 0.6360711246077884
P 5.999135487031081 7.686187428196337 10.15872536204197 0.693286911697148 -0.2736728484729609 0.8867464837443115
P 2.3299183067385973 8.481878052549948 5.898343406356121 0.6791419876553336 1.6362027435441755 9.564503759983528e-05
P 7.153050823993604 3.9885069908159974 1.610166635101772 -1.1343542596991045 0.47936315825836157 -1.0567969328389155
Ni 5.334281391588659 2.6707417428381506 0.4561468541518492 0.38061197092937676 0.5860847653873326 -0.12690708093791045
Ni 1.3603783948368844 1.0634940901320507 7.116951349113958 1.2760302714160734 0.04620529491146882 -1.1293580920360935
Ni 6.648105014302904 0.7045473516972015 9.080712649452789 -0.284046221287485 0.14911292761098835 0.20500793900639533
Ni 2.6834475809574587 1.5369068977139333 9.133257965409236 0.8403087611070624 0.4004542024662845 0.8360566706989279
Ni 6.450942012350037 2.058109641095529 2.5699814494637034 0.8185903955933644 -0.040313612017382185 0.30372184533954144
Ni 3.923043315931099 6.66188253855379 10.643145657687185 0.168828917982677 1.5290890431831083 -2.297134635949386
Ni 8.280183089752526 7.381474365479464 13.811890863784013 0.12510113807742326 -0.08796515245707431 -0.8874301400748974
Ni 7.7107998808792 3.75880287522376 7.925816447217295 0.8782309900741326 0.6812940010013299 1.648894222968915
Ni 2.8545177502321457 8.340133938519896 12.535021340228923 2.237395311107224 0.6202511268563963 -1.243326353425149
Ni 0.07727311112974199 4.592057006697783 10.623340353050462 0.4432643556532753 1.0058908900176675 -0.7097915942203905
Ni 8.642930681120134 2.2077006773093415 5.990926189621472 0.577352013500025 0.7518664119032535 -0.8320922867345412
Ni 3.9627592774005302 2.4384038223462707 11.466779135608826 -1.0341069474405673 1.242100451437848 -0.21642852213851113
Ni 0.9157376352621269 3.329247460263849 12.615268834478087 -0.3224441043393931 -0.3957629676382023 0.8133743986100638
Ni 3.2789417866806847 8.476801166553741 8.10303246399401 0.003012304463762554 -0.17669700787684406 -0.2318183743310201
Ni 5.518157301927123 7.944382047134015 3.549922166093245 0.7839758908432886 0.25133844664181876 1.609794685864292
Ni 2.9454385117849644 8.231957213831492 3.643953542053399 1.1522293402073125 0.4494643138164002 0.0329725982712787
Ni 3.2622489128684697 4.419542785771224 9.190376111596613 0.595285200939678 -0.1076286923242727 0.17121310194413739
Ni 7.2697828735629155 6.134967163165729 11.482809925361787 0.38243154063661877 0.26935879447863936 -0.2990923169873301
Ni 0.7377596314816888 9.177266120656498 -0.0016947172216318013 -0.18408070193542492 -1.0176071500133315 1.764835034703309
Ni 4.651780803318634 0.408262464659183 1.9073878851920427 -0.9215337666268257 -0.029095374704059568 -1.4003688202958593
Ni 6.08397125105714 5.686920621393158 0.4311574949057618 0.027536771967688063 -0.004703319012940287 -0.17927325324445254
Ni 7.603258902201054 8.879428196936278 11.14600349583848 0.5568315249491701 -0.984855152393291 0.21437292516106304
Ni 0.10194368916211403 4.594136804359915 5.824503323681775 -0.7747456304942721 0.9707981600795925 -0.45484177607822956
Ni 8.232138855548708 8.853180968798464 2.6985874180874703 -0.7453594640226712 0.6671526765039413 -0.7004960278510773
P 8.6405965850539 1.8117217337769378 3.51151947423929 -0.24556837692726094 -1.3420633996867468 0.7463606515936759
P 1.6743915134752525 3.242368226919102 1.5964753906665634 2.382601447464639 0.35527143528205907 -1.0096796676361386
P 4.6882817063933295 1.4250155999084464 8.110489764694341 -0.25912991766177956 -2.0371963634536985 0.4483967917838343
P 8.398749720665727 1.3253669538433657 12.50672156068656 -0.4642047053503683 2.125884767230042 -0.7019031926112492
P 6.454493107921624 7.960829704627987 1.5797262079220118 -0.8005278816646988 -1.304260212796044 -0.11052118338071933
P 1.6722208949545132 3.13259305511919 5.854557762212449 0.9259992585973472 -0.8160318908375687 0.9064740440802259
P 6.9080161474682775 3.8125234130905987 5.865843162103124 0.061927333632415926 1.6389844200543706 -0.02544209422218844
P 2.413146541567289 8.52607148234877 10.304318464059843 -0.32771949380571946 0.5812261517434507 -0.5939610828116157
