# total energy = -381171.1575095002 ev
CRYSTAL
PRIMVEC
9.25716896229826 0.00000000000000 0.00000000000000

0.00000000000000 9.25716896229826 0.00000000000000

0.00000000000000 0.00000000000000 13.54880250529855

PRIMCOORD
 96 1
Ni 0.468360906336512 4.470194291479656 9.60367584344859 0.5741874997291143 0.8188567618808736 0.24103937870865583
Ni 4.822735054805506 2.2675990657576066 0.8119305472786454 0.554755873367064 1.5474027538906316 -1.245731877542848
Ni 7.045362794033244 7.579640297259131 11.877056011186003 -0.4684359698228965 -0.5795942725669825 1.1855963457035323
Ni 1.6127654519103787 1.3720883176061278 4.44118880415647 -1.278108751211657 0.6547977544830142 0.47927162698581977
Ni 7.383517916884122 8.716902011307585 3.1259793094398995 0.42014011093098613 1.1906292801417493 -0.5280575381402712
Ni 8.83196862076956 6.70406023375541 10.652759320830185 1.293317083520979 -1.0068067169637176 -0.06708213836047802
Ni 9.114219700616346 0.8778554756200325 6.32822565631941 0.9310288506014547 0.5668302880330948 0.0942134473596313
Ni 4.929025868147612 3.4707255365495806 11.386900952101595 0.11145655071079513 -1.7215260875030287 0.9630545115784318
Ni 7.955583183571293 6.028073988965252 6.1316867033437745 -1.206780178869999 -0.2896270578093722 -1.4000309773404664
Ni 7.993389461370384 4.203550798403013 3.2569830608849566 1.5942870771469961 -0.10631717260170077 0.8930230607816426
Ni 1.8831025553792438 7.933393749711249 3.193669579891053 -0.3554634966882072 -0.25318424160130587 -0.19538275721180542
Ni 6.6198847969221255 4.330855385154505 7.471080551818945 0.3885589936905953 -0.5909773175929435 -0.060597816187714995
Ni 6.154286229786213 7.082863585258542 1.9117905218090632 0.5298840498260486 0.46866994021057345 -0.2974398689855716
Ni 8.475197331255123 7.64419053601845 1.1691258151288302 -0.8260219121707452 -0.21131305528881672 -0.34225702530026214
Ni 2.918433582638819 4.200255246273612 1.5281419681021982 0.1653540720601991 -0.3982407397547335 0.9027132914862132
Ni 4.948863981106341 8.392586355966413 6.316099690773615 0.31710392307340224 0.7917856166956944 0.9897099093824311
Ni 4.410198579820521 2.9570915199769683 3.1848225035706346 -0.9450238793289661 -0.6780749798433999 -2.610789681242239
Ni 4.540743175687998 8.644223978251597 11.087960122439927 -0.9804531666708534 1.5280955689215876 2.6152145497828125
Ni 4.612939835961042 4.924526884060844 13.440479827127493 1.2056782040550718 -1.243172344345788 1.200577392493397
Ni 5.465238119674186 5.936381730982884 6.073332287731108 -0.2892226232821019 1.2314139182582793 0.5365426927931469
Ni 2.1842475169566726 2.8620389096828784 6.734445964962005 -2.0729570659930747 0.3298085151242643 0.2959342309743226
Ni 2.942900280048955 7.812319237631351 7.472246029383809 1.0367978640091695 -0.9577966056136021 -1.4448669027082341
Ni 2.788722131972595 8.638419733349533 9.56656570475099 -0.49676978377058323 -2.98112803815975 1.7158658038934578
Ni 0.6996429399212972 7.355403894926277 6.139721000234527 1.1265687022164148 1.5490762849383128 -2.4838059814301223
P 1.1844455039460964 0.08639252878550786 7.811237074586611 0.34304378286761567 0.23603395507426447 1.3992141378661258
Ni 5.822999926261223 1.3470199042173088 4.419889909944876 -0.5325127456981473 -0.7070037470626082 -0.2801273458490531
P 1.604637657613708 3.19425093009815 3.042505566009449 -0.8054620857415224 1.1610083719515232 -0.4656247256263465
Ni 0.5791738466876423 6.92127970205993 12.676666192371894 0.2948296850562342 -0.1365191501063778 0.5810824270767347
P 7.606412029726068 3.6847142529070194 5.4742990365962605 0.7674496110534912 0.08110184967833775 -0.20079235826315095
P 1.9019501512653723 6.736071523821339 10.76227440610114 -1.4264768302368207 0.8670394922336874 0.8581776709676833
P 6.882482907188239 5.861805978301817 13.708407289530957 0.25071881077994884 0.3805659481827897 0.08374468661782351
Ni 5.546497548303084 3.9137088400559192 4.747446500118922 3.47757591981454 1.4205589220904888 0.30541594521251275
Ni 7.470905591326682 8.169155327328106 9.670986569974728 -0.6843217320840602 1.2169902866337816 0.08496621772975044
Ni 8.866692261324012 6.799066558204986 3.731800842531181 0.3746279854318 0.1343098011598848 -0.11227698972956147
Ni 8.915468284272938 2.4837261881315955 10.892098794227977 -0.7052628531121016 -0.1655852142343987 0.17180728388471056
Ni 0.5895289158223295 9.04777174223195 10.04949924637431 -1.5410881245265138 0.4514481770156484 0.1571147148695423
Ni 3.6567020598071056 9.07587650702089 0.31939639578621626 0.3292467290835233 1.4638740399383563 -0.9040443515928108
Ni 8.191159617810094 1.6573109486707174 4.346875841657715 -0.03256353575831811 0.45849917032515874 -0.3524576199823478
Ni -0.015454843483247292 2.9750319133106213 1.2896708171474882 0.19766769659124023 1.3534752410681141 1.541049043758462
Ni 2.7924342567026232 6.808518127654758 0.3020975242575285 2.0257441557526983 0.4039470461108914 1.3377781420478316
Ni 1.3925744323880545 8.341783013027774 0.8699452247925782 -0.7044383003282771 1.0988537527996496 0.7562239175410008
Ni 5.533481968825728 4.910715188057846 9.668601923265362 -0.5497314235692792 -1.3852774731803754 -1.1438876531108364
Ni 3.785154535502547 6.021603227902185 11.769614531749276 0.938573495717932 2.6739591148118724 -2.2358487925557107
Ni 3.4148214935454893 1.2712407195788766 9.010089510496156 -0.924155520520389 3.8290498357273797 0.18690248765493617
Ni 5.225042358152883 7.370928167176294 13.438542301676137 -0.6164505221633835 -0.29691587816130155 -1.435808906271024
Ni 5.1911240912929735 9.122180865872766 8.87208085934234 1.2228248910376878 -0.5033050137859397 -0.8671251099689582
Ni 8.879633783450146 3.372738403713299 7.248067021498153 -0.6757491599237008 -0.5711898505533711 -0.2278943566862656
Ni 2.577779024184182 1.6715669887810505 1.9814173919946854 -0.027647329403623352 -0.056676883866754006 -0.7990258431978755
Ni 3.047635889015388 7.1525052669144085 5.017297602220391 1.719856927330722 0.689599949763864 1.6069716145932
Ni 5.367315787020224 7.927820934031756 4.096534223018927 -0.8856133985811329 0.06077085143046953 -0.7676987509498198
Ni 4.274414426354051 4.008622592816467 7.4453919081136375 -0.44036363706671255 0.014552443892878164 0.5020490298916515
Ni 2.866926694863564 0.6425687907678902 6.564814824836177 0.23168210586347196 0.5709101145294232 0.18081385825869506
Ni 3.1146577918717586 6.0589836759317475 9.19175126732808 0.6985569018468356 -1.086078455411852 -0.4860505975808661
Ni 3.4155620670577145 0.24103723817457004 4.434170944411247 2.5865621761534423 -0.7691884481214688 -1.2077991070528167
Ni 4.610745886931075 0.6490219632100416 2.302903130802267 1.2628358842129865 -1.4551001504004684 2.3574591438710564
Ni 8.45482230250003 8.283620220811395 7.625252219877074 -2.1252090813192566 0.3098996920154792 -0.560558338981454
P 5.114909819716108 1.0810336701327659 12.352240376720777 -0.5888589856983601 1.1482873248404288 1.3260752517886065
Ni 1.7263972001924153 5.5917558470689395 4.13020347203535 -0.3383479200538431 -1.3288229897370727 -0.7096859218804618
P 8.270678698685263 1.010651414964674 0.9162755037173798 -1.1042666962851047 -0.48598297756772424 0.08604968060191633
Ni 0.6872910994542729 5.391162254113872 7.075754079541181 2.1672358193730035 -2.1232725264181758 0.2442180335469536
P 1.147370542490328 3.227215708561069 12.329925045363657 -2.315561475196006 -0.1962186228495395 -0.9685911251259448
P 7.597478861734852 4.212687624110091 9.898687004911013 0.15012388537400598 -0.8526569982597703 -1.3720643169242113
P 3.811954039476192 7.824779386974537 2.114141125421885 0.264635420861041 0.19363157884865362 0.21048644562246333
Ni 2.746092869175138 4.1858603486297365 11.006911757262015 -0.9077287424229334 -1.5927960944237665 -2.7966837822373187
Ni 6.940034726257031 2.4077433457773014 2.3556356677402537 -0.6097499702147564 -1.6857376170495098 -0.8752788494243442
Ni 2.1908478783843788 4.955945715316994 13.003544232065364 -2.327416831872695 -0.9069532977094896 0.9445243139847282
Ni 1.009753469581101 7.24354952307358 8.418656395030519 0.2309205451070991 -1.1659903985471467 2.8332255859170945
Ni 8.150529903495645 5.948490107907764 8.489313588115023 -1.43546052179267 0.24873803290449423 0.5495617307606342
Ni 6.8534894541846265 4.81827309939435 11.722613108079022 -0.8182643797125134 1.1098943268845272 0.9633936400854053
Ni 6.26449282557421 0.24400693795859263 0.6192777538084112 0.6535929355416357 -0.10315497282363525 -0.5864226083427255
Ni 7.422036996688728 2.741732742621913 12.990090788498904 -0.6192519961679206 -1.4283185114312498 0.35557096880034894
Ni 5.461164965356948 6.988514519801066 10.124708189408329 0.6945542084453458 -0.2916309756132784 -1.0534416432134373
Ni 0.7371502111648269 3.53336879851492 4.958496065349719 -1.2060499855721938 0.43925420605261767 0.3136889838545823
Ni 5.690168809674751 2.5049621335946495 9.173569261886064 0.6072709125466446 0.33964889825345373 -0.36165625576248034
Ni 0.9067369168799205 1.3090562545468702 13.583758584537682 1.1148719826047766 -0.48621746217603357 -0.9728113338548795
Ni 0.9136538734841029 2.2464927206591914 8.774041886360203 0.9094434111211951 -1.458784798340907 0.5289602524601986
Ni 8.532508463932441 0.05793228871069774 12.27670558134138 0.03951425604453839 0.22672424763756438 0.1276262184921221
Ni 0.4975709770924501 0.5562290278451284 2.50838450893802 -1.481007100074217 0.10938835532785678 -0.18908535423886788
Ni 6.492015522867562 0.9690682122532354 10.767680592740382 0.7995189807842101 -0.1946638767679099 0.6203454863424155
Ni 8.781841051160823 4.694708408879594 13.16136044752053 0.7234369529179671 0.7964575682500671 0.2352094022904401
Ni 2.0262091294478393 8.870682101121126 12.220260919673365 -0.05850648087632505 -2.3328824829729564 -0.7510367169131065
Ni 7.929376138407428 1.133457017629399 8.793389369367084 0.24698325499691656 0.5574694156434851 -0.04064785542834935
Ni 0.8267522004089403 5.703591704583831 1.7221611197024878 -0.08204878697263934 0.01328257604151906 -0.25367815051858894
Ni 7.261471402069427 8.55421652500954 5.450819153391164 0.4180598313631897 0.02651450135076079 0.6918321815284924
Ni 4.405495938017892 5.843106497118135 2.834518272251704 -1.6087665017100938 -0.5749647442147711 0.918858790897824
Ni 6.698339303373471 5.98091797057432 3.834663726228575 -0.25161792555545054 0.002186466128357525 1.1295200715352547
Ni 6.793614085721228 1.774432649629115 6.602128621249639 -0.27408011121370857 0.21830285634308855 0.24550975577518364
Ni 6.107481983813588 4.581863519954296 1.8076677374239964 0.23690607326657265 -0.5857008996853527 -0.17156637151849807
P 4.722109628831922 1.5998702156287592 7.443549731501977 0.7585921606628613 0.31634904718524876 -1.9130940989544345
Ni 2.914147513436816 2.522189724922786 13.011578528956116 2.2826510976212298 -0.4441704124073125 0.5097255726003028
P 2.2250808889869838 4.108748131669299 8.405623226932248 0.3715220928129666 0.505023282028627 0.5758893129115694
Ni 2.0812522557439688 1.4068860155118041 11.038074164939555 -0.2893298382839275 2.034451710829025 -0.8290416728336754
P 0.1346816246501447 8.779193500854618 4.52298329714795 -0.6064198774002588 0.8164674357130906 -0.7460636891785474
P 3.7530414165786867 5.058709547307127 4.97528301543808 -0.6056953405294084 -0.11908269979748522 0.14153511526373044
P 6.295976457012678 7.388581588273961 7.9405736099122715 0.014101215288072488 -0.4354854830388048 -0.8523798333389837
Ni 3.883289783041274 2.698492506676871 5.378156857522309 -0.5301373034874354 -1.7117996042438843 0.3909598898226041
