# total energy = -381169.3312663165 ev
CRYSTAL
PRIMVEC
9.23569009322639 0.00000000000000 0.00000000000000
0.00000000000000 9.23569009322639 0.00000000000000
0.00000000000000 0.00000000000000 13.51736600929444
PRIMCOORD
 96 1
Ni 5.308776278800244 0.8115927350780807 0.2771076466336283 -0.7107472732654405 2.310383273429176 1.1159191929223684
Ni 2.555395394751324 3.7723638116830642 0.6728698986319039 -0.025629527642646182 -0.4277724306652632 -0.11072352919951253
Ni 4.5766446508859335 9.104164665975164 7.464816738093071 0.26873941572708554 -0.9733515226290657 -0.9878376320603826
Ni 4.296507697889959 7.952732706199544 0.5605842251802866 0.8391872459081096 0.5152123067464869 0.5878236024553103
Ni 9.18849575254401 6.6603548793636715 0.8709699104871014 -0.17474091259173777 0.2534776044720086 -0.970017058939194
Ni 5.741459125658625 2.154464850556802 6.2279370968119965 0.33149310191553877 0.32378544885863597 0.48136244807657746
Ni 5.361844554282074 6.550339338545788 6.967756513189773 -0.7794664330087092 -0.38353171567933303 -1.1827457636286145
Ni 6.945312862607038 5.779556347441178 13.16733357632233 1.0419058746596959 0.8066522493948817 1.5028653335998892
Ni 1.8021971576525273 6.955435178988536 12.540655058302127 -0.6065538318749618 -1.3037058829544708 1.0817854844634531
Ni 2.2633813442493222 8.50994036306863 3.9717401959141037 -1.555490930215405 0.30055296069325654 0.765250032299011
Ni 0.9692672076691783 6.616217516236684 8.008769332488868 -0.5890556750901984 0.18527086558878417 0.283668269122776
Ni 2.2090108364592886 1.6416623918284463 4.751218589275265 0.3968747126451423 -0.612800584115622 0.04879362446393532
Ni 2.1568753656804978 8.285365321889344 1.5453322966438685 -1.4754938835654718 0.9485961700612566 0.47586825773122554
Ni 0.22791281959194437 0.022802918928757108 10.484488428496414 0.030069051471238534 -0.47870392740780776 1.3662443678083245
Ni 5.84837147459313 1.6142693349055246 8.602302805773745 -0.3161574999997329 -0.8308129058014853 1.0202037070959138
Ni 3.8809939989815825 7.443467516790635 5.26627086211907 0.14144975463877577 -0.44544465113404574 0.8257280350794102
Ni 2.304655643436287 3.731966903058365 5.723130898597419 0.2291775942740634 0.6942739582007655 -0.9752132584281527
Ni 0.23009983101451617 4.699682514785853 6.44793215925626 -1.0718713106735347 0.7015496659265724 0.17662887364307
Ni 9.07856333293729 4.405063999667444 1.7729246377883332 -0.05646991006227048 0.07351401002875081 0.2832700052430928
Ni 0.3031061143470553 8.981237630356793 13.248316725219375 0.9770001751252464 0.5428863756229876 0.8099070088867536
Ni 7.860837589414962 5.753585586798138 4.023146970741708 1.0796129022921666 -1.1334654293362478 0.43228883047837807
Ni 5.245539508486272 5.401604200287866 4.667952377778305 0.20414379123388712 -0.6566265801616369 0.2575726004769886
Ni 2.0532971008825993 3.244146986129235 9.100782556249886 0.015486782781689459 -3.6858108503986653 3.2509429463392014
Ni 6.694600818362388 4.663672558972478 6.636445524757448 0.37335143271222154 0.8018918518917609 -1.283729439832544
P 3.6668922304087 5.378773574288721 6.213690121218841 0.18320884085343284 0.1321935261478304 -0.4721555847663288
Ni 4.590729078332816 0.43743645656783037 4.965090389163933 -0.14507578142713723 0.7622737232795066 0.11731943724947537
P 6.685078821839282 7.829620956778591 0.37848504647376124 0.19229511942541722 1.0976561329471226 0.10039875023473675
Ni 4.406089161271775 3.085311587288909 10.087307574494307 0.31203756429408847 -0.5944840451946213 0.452915248479478
P 8.901191904007852 6.3962972628824675 10.036049494277783 0.897502436709235 0.09864062989304948 -0.20257876073961242
P 8.378008529574384 6.850850223966565 6.490661079638558 -0.8451509196907122 -1.4035032521597828 -0.7578380561056561
P 7.11873141616122 -0.11789912591208658 10.087496906141954 0.03153380894222311 0.8049437513442073 -0.15216148462932502
Ni 3.361098530234075 1.7192237175326595 7.557410996620427 0.35058251444682204 2.204361777691023 0.6712173334916183
Ni 8.245448669151358 7.843428313521601 8.65491299102517 -0.16477171719416786 -0.3471223238123634 0.32699264294202396
Ni 6.3725984820111865 6.823725002057388 11.005055331916306 1.1102087728011525 0.47741606183431967 -0.145147258095021
Ni 4.27074012242976 2.8591757144778036 4.402606382524089 0.11499721687420195 -0.567478463140055 2.0069699604689886
Ni 6.963553350612018 3.4426404383839317 4.470800871299366 -1.3709217186793357 1.2253227177588768 1.377360532326144
Ni 2.408529450318316 1.142593404322068 0.6896114341289302 -1.4955083790141857 0.8494248644757179 -0.6733099543545888
Ni 2.6554548616100337 9.01877147504147 12.181566808237507 -0.19532053651530235 -1.044481348696356 -0.598638176572311
Ni 1.2151766930466943 6.6950348957984565 5.530752396777201 0.13987598239375268 0.3507735474117055 -0.4462715179107153
Ni 7.055125218242081 3.361708085782596 0.7538124104923819 -0.33207108590619583 0.06714358772603274 -0.2338660008886682
Ni 0.18974633013342324 2.3100031080210375 0.3146128606789057 0.9348644222974609 0.8333420999812422 0.7960086536381065
Ni 4.700061178081146 6.4496056663076535 2.4977120449119807 0.24207064818664759 2.230242759222843 1.2015058178449372
Ni 8.193396319583728 2.2457688831731213 3.116888411840314 2.016459130906347 -0.19892008094110258 -3.4843592612849603
Ni 1.7344348991752931 9.214115556962144 8.698816691191892 0.08758591474078464 1.0640888385146385 -0.7653001688106562
Ni 1.4205784415179612 5.0367944401882685 10.496897501753876 0.1011302290841226 -0.043752205385285944 0.9048097690039256
Ni 3.4376808727846035 1.810629342740399 12.257236664603282 2.4083124790774977 1.4955076076832374 -0.6906818699741332
Ni 7.974159507299065 1.1918011613299326 11.947283209594508 1.9365325324830327 -2.2076877567404627 -1.3680220285340374
Ni 6.435502767480512 2.623351602721269 11.983523134092097 -1.479687352821529 -0.6344091635243332 0.08695342336310831
Ni 3.9701091730373044 0.6239235116546928 9.968165324690844 -0.12842300336180465 0.2347592021268989 -0.2375416499680425
Ni 0.11206401688851884 8.704748774961816 6.819349132074217 2.889295946548101 0.22988799007752667 -1.3982692574543532
Ni 9.102686955554507 2.8106144557789765 5.162674125940914 1.20981716592411 0.829986810355764 -0.636776121094613
Ni 8.632516442462094 7.312366895408007 11.982604182924252 -0.4742268654730607 -0.3808541688471699 -0.2840130540567044
Ni 8.945754108880777 2.626270080802066 10.459589007908349 0.27869447005726844 0.29194979240527785 -1.1202196200699353
Ni 8.166455811477134 7.911698534955936 3.1687819075377224 0.17937198360584594 0.9312044569473704 -0.7913228181266629
Ni 8.295035089454515 4.820864004969823 11.374079337421815 -1.062792488300718 -0.24940112040978982 -0.29566375092175534
Ni 5.8642753329954465 9.200936227147913 11.865841046898046 0.013098999275803248 -0.9741081982894322 -1.2499135197243636
P 0.2934446589029999 4.483899850609474 13.058776350975833 0.33424186830526953 0.4250424333286099 1.872535975026414
Ni 1.643703479346978 2.6727533092218447 2.535290220909278 -0.448138395916125 -0.2100267323772254 1.0322709226730933
P 1.9498481357465087 1.443686138220979 10.447207641721272 0.1524191091660859 -0.1109641844554089 0.3292387586637233
Ni 8.681068465470792 1.0214026784479688 8.498706069595588 -0.9522859602080179 0.28682532669451893 1.0983724422878567
P 4.169110588249103 8.56559463178661 3.1566425164320284 1.068624521601463 -2.2890150921660446 -0.4400571615698872
P 8.333372439180426 1.3303457489566177 6.383549239797265 -0.8713280923067123 1.0072376338535491 -0.23865288075435026
P 0.7086618921582325 4.659996754301095 3.837323038206115 0.43068343366447115 -0.5928729919537596 0.6367334407821357
Ni 2.9339386260728983 5.782502532592362 3.7680331965815275 -0.817140036300083 -1.263398955805308 0.9584936316806266
Ni 7.68969101563254 1.0153440657232768 0.5189294155600029 -1.858656388830844 -1.8652944629726518 3.047984433662667
Ni 3.9251128907283106 1.154886107883905 2.290138985691361 -0.14443891917408672 1.3601703937001026 0.845420371302015
Ni 7.000828595973081 0.8388721930124144 4.394941683285946 -1.0061330879354609 -0.48254875507519474 2.062434826305512
Ni 2.558960371141158 6.130761935980605 1.239208882331635 0.07792885126699482 -1.2048263975777378 -0.11532657518916267
Ni 0.9272448175817564 6.634014691115468 3.02971457984973 -0.6715338362907726 0.15763484903907046 -0.1117051763864915
Ni 6.243889904371997 4.791512981739532 2.555809153669107 1.9728239107148993 -0.3669624984667422 -0.2790953050401129
Ni 4.293949411724197 7.627183864838766 10.608888556690376 -0.8188660178522542 -0.30903271602949356 0.7754367430240259
Ni 7.00773689218965 9.014301401018985 6.819457189648729 -1.8335017439420875 -0.5424978819353173 -0.0998585614605506
Ni 1.8322408576425018 7.318988885230574 10.26876487273686 -0.7526734811855812 0.48570504131598924 0.043932439716892084
Ni 0.04176194362578125 0.46517123402552885 4.372962587916706 0.9479217697020513 -0.5298555105809585 0.5558979573913072
Ni 6.1982471237539665 5.401059294570248 8.946076434466281 0.3329133793018331 -0.9679828021179846 0.7412284725734332
Ni 3.7311633980171326 5.43680141536988 9.861527275753174 0.38161058739722015 0.17275910627501861 -0.3354613425346675
Ni 6.5956588700093 7.45011721368359 4.934784395574292 -0.34140624726419266 0.6279490097212863 0.5370250317462042
Ni 6.17966491521421 9.232928657755128 2.4574028753435075 -0.3620100395574733 -1.7052201512541536 -0.974543743164954
Ni 3.1348425934512916 7.4661596074378425 8.434579902322183 2.073570016986726 -1.0836937572297596 -1.0662400805296863
Ni 4.139223894991322 3.9491164493738515 2.5946720141633635 -1.48982649813806 0.27164579074060313 -1.3758914039797852
Ni 4.7845769784525745 5.156692169444293 0.6931302320681187 0.14528429789351752 0.03565991529545472 -2.096866782731137
Ni 5.684576510153475 4.643104677054964 11.676125194542049 -1.6687637081993325 1.3945573558204047 -0.9565964146579137
Ni 9.157085170414929 4.551107967678962 8.810821599663585 -0.6679564033521593 -0.2919932440487036 -0.17751770400592654
Ni 5.936729322058265 2.3112037477378213 2.7513785864289306 -0.3008092996784368 0.20385351368697796 -1.089823524276581
Ni 3.209245313131351 4.34585399024976 11.951324747595004 2.1644492577668015 1.6380631937916823 0.2746048733689271
Ni 5.943332840500575 7.67156135590911 8.690558137078447 -0.5362364744066378 1.661770821821267 2.22744102810799
Ni 7.495639930329942 3.0413958807250205 7.900184400071983 0.9926502229576776 0.0637975540719353 -0.006017152728357379
Ni 1.0346743651634909 2.3130508857636416 7.233386044130952 -0.36748366107753483 -0.06985764422308614 -0.24784868832100543
P 4.829416254029374 3.1433578997503258 13.51777167901203 0.018673408039787197 -1.1130405858229928 -0.43981933452746835
Ni 4.543793301096711 3.8732821977237806 7.87268975055764 1.085906962830994 0.0798065279056819 -0.9747982823779212
P 6.8616005672768425 3.590614665632432 9.994132391057832 -0.35679404257417263 -0.9136787893587812 -0.15758059876236732
Ni 1.5272414268189802 2.981151474012877 12.073062226324748 -1.9793485992072943 -0.5219743080606689 -0.8907638324338207
P 2.404872117027191 0.2441888763064639 6.448514007734393 -0.15459914753654022 -1.3070855980599811 -0.8540860173968129
P 3.912774008715828 6.49198824831011 12.664704230271182 -0.3183588785264259 -0.915299869901972 -1.9485598959612118
P 0.4036273657122203 0.574810882255158 2.2552779497300466 0.4719031024358905 0.12669856447153016 -1.420771038101295
Ni 2.4209237464715736 4.777604032405102 7.869310411539401 -0.43565723272997875 3.5670081437354435 -2.0354277015890494
