# total energy = -381169.42394965055 ev
CRYSTAL
PRIMVEC
9.25343389197044 0.00000000000000 0.00000000000000
0.00000000000000 9.25343389197044 0.00000000000000
0.00000000000000 0.00000000000000 13.54333585233015
PRIMCOORD
 96 1
Ni 2.8086485457676313 4.111004603018183 1.9310898817814062 0.15541110191487428 -1.8656693298135674 0.13716655388238957
Ni 0.8113373891227662 3.0799962435061703 0.18408503937052148 -0.004047173486180127 -0.07490446261837423 -0.9139698382366388
Ni 0.33971206790946806 5.652848784848299 8.98441906304235 -0.4902129564886719 0.42341312525530306 -0.8504867300813288
Ni 0.2947699898035979 8.53350755377107 5.1960363607343 0.4694577262191915 -0.8286534362563213 2.044681101866517
Ni 2.312701498707383 8.965716947645427 3.7761126488637284 0.9218057893412899 0.6253185140769746 -0.4855500037953638
Ni 2.495160709729362 8.711793466072544 11.044549932223275 1.7038821491690204 -0.8278880188452066 0.5508079444629095
Ni 4.518951493023 -0.08952327228690726 12.485899045108162 -0.06319000239492344 -0.4115336002088977 0.23192713199474252
Ni 7.711710082888529 0.6353592832534293 4.737472261569765 0.3552398107131753 1.133213718336758 0.08382619058803628
Ni 4.822306818864035 5.523670846626024 12.92932175026746 -1.3067945491821236 0.29553570998432327 2.281753011286993
Ni 2.2133103644347853 6.580635088424103 3.8549343247642414 0.06312315371273 0.49727937641715 1.3015793235297712
Ni 2.990598817921256 2.410945207167691 4.681917420043614 0.7033067578269953 1.2483191786540502 -1.1938963809287955
Ni 0.17250159072677904 0.050666252359759786 3.061782709422868 -1.576523068295356 1.2273721440887377 -0.41131145689576254
Ni 9.106100794405467 3.118758878406823 9.142835076579878 0.3607581694282432 0.2694742370105811 0.014575069600697479
Ni 5.504164607817101 6.5925627648115315 6.6304787105039225 -0.49674612962149933 -3.173253464776522 -1.283291838074493
Ni 7.1266802269983485 9.269164807826165 2.3001464394967823 -0.09970789481529924 -0.5868887493458667 0.377707138577756
Ni 2.661315370096065 6.605693387615072 9.197807877109312 0.17694074845653399 1.230181845623391 0.04285154794788749
Ni 4.091720446624543 1.5504313685543472 6.427884027163056 0.16988589849228158 -1.5687177133183239 -0.5216400646497016
Ni 5.907882678497592 8.704455492934272 6.959541001257229 0.5728695522486392 1.880452401660013 -0.8840555671757097
Ni 5.6920185708436355 7.324648193354177 0.9719103781187189 -0.2448384407397719 -0.030922400610469324 -0.16396979011816276
Ni 7.1909545793545036 8.868417089450068 13.456374215618125 0.670450887639239 -0.31043962367934924 -0.9635504773782437
Ni 1.181765305752508 7.536820180854073 7.494570852033495 0.43704074334106674 1.4966481490455839 0.40842153694247724
Ni 6.694646648369422 7.763816169574032 4.810010855804597 0.21285880250938183 -0.28751695344490485 0.0570401807434437
Ni 4.437086362689728 5.047313319280428 8.998923820790447 1.1638723237628792 0.3945401509746947 0.45562673387337016
Ni 6.822686414213378 5.317189721017725 4.097387249587817 -0.40520637243928925 -0.6977274639670048 1.8086538316604721
P 1.8230467867467866 0.18305513216965189 13.132715930303341 3.0538061825507663 0.12697804338516197 -0.7205909988287397
Ni 5.470056450203398 7.4166643407526225 8.734029467902639 -0.13328161700568658 -0.4212325726642165 1.8118551122065893
P 1.0326092035888363 7.370989390676323 10.467021835252638 -1.857028623419434 -0.4885851910772617 -0.29600570764220635
Ni 2.2727544242585602 3.4514568433669726 9.749210753952232 0.21108422710746225 -1.034082007739903 0.28041505229280095
P 6.890662140157564 6.9406862041998 2.8125849565785024 -0.5902198706016287 0.8747561441516548 -0.515090693566958
P 3.9718884767120453 4.515981140718605 11.069469429904693 -0.8628012857826236 0.07566705181601162 -0.0710876599754453
P 7.526410067637736 8.484593901805242 8.781716114524034 -1.272732574501408 1.7237194956099215 2.148211198641384
Ni 4.242986331733392 6.9802076206859995 10.92941778142418 1.0919050893959583 -0.24573318463989938 0.4865087681642073
Ni 4.795999306087106 8.041687538261476 3.227051816158635 0.2804137667412203 0.017623112398401905 -1.949216812818921
Ni 8.049673251777651 8.234195978574958 11.006872725127312 -0.8604217298068537 -0.35674801982758564 -0.6898092375611926
Ni 6.107155379043201 5.060712291669099 11.177572672260117 0.6567337951634625 0.4391701309792436 -1.0020491476740743
Ni 8.949366129820302 3.612355553238672 6.149135432935249 -1.2738885424827222 -0.3367489509978394 2.6100813423213047
Ni 6.015250272852396 2.673835266257579 10.351388148332363 -0.8004448350325891 0.6875068146802612 -0.4526586523839817
Ni 5.0941542020369575 3.3428492888601786 0.7236583262260954 0.15974083963847974 -0.44946328537513563 -0.5219866493558429
Ni 7.679304557125319 1.3332070061067889 9.708499345857481 -0.4257790543843183 -1.4712356225097503 -1.18895497776312
Ni 3.9158774408911685 1.2950643512821312 3.019798028813834 0.5084487627704082 0.04552343835309579 -2.5237696663072535
Ni 5.179248780825786 0.9365585589794366 0.9443295928275074 1.5954096207872135 0.39452729545888826 0.7317904670889849
Ni 5.501277536418438 5.044565049391315 2.146754115261609 0.6307579399249911 -0.08702952801668239 -0.2999852611152447
Ni 8.426935754737693 4.602796858225868 1.7998280702290692 -0.03260595896047933 -0.22536927627156667 0.645481619288411
Ni 3.0844563986797473 1.9061333703641083 0.2719797072786952 -0.29518372596154324 -0.29360301173798464 -0.2704129467747665
Ni 2.8446906710810818 6.977237268381605 13.044941557036777 -0.12983222500450545 0.1832309523406199 0.10393478841245325
Ni 6.361782121597811 2.2337326932067456 2.7834264607953925 0.01991036577068184 0.5407598161982881 -0.32330645233968835
Ni 5.288587356616216 1.1988749051631804 8.351173264107686 1.530292062352274 0.5591475746768564 0.6741478768748519
Ni 1.191749761006221 7.599354887623853 2.125938515545921 1.83117515269144 -0.5598456291851455 -1.7426191607279022
Ni 8.468761276282441 7.022477307061311 1.3924854294624993 -1.3507403586354545 0.6883470511933695 -0.5841471820449876
Ni 7.557418324871464 3.479559522334097 12.17991481867623 0.38197722670801953 -0.036454900392924316 -1.172533341871987
Ni 1.8659549600660337 4.471509137058415 4.561693104530785 0.45286871151225877 -0.6754359995586561 -0.5404433133991338
Ni 8.858349353290624 4.10702562641105 4.100570430873525 0.3088226569012165 -1.0415569759607093 -2.1550642170074754
Ni 8.56823569146077 5.910843777368017 11.027485674639056 -0.8924304215029663 -0.5722969675746208 1.3337139992807867
Ni 8.214810034407646 7.362966663424265 7.298233340743194 -0.8022530918859215 -2.1448669647594993 -2.1812737855233078
Ni 3.957906537983259 8.177472428338387 5.297597425272881 -0.4899543035106465 -0.6188894706221794 1.8828286152016733
Ni 1.6796000533426525 5.293926588016951 10.97940668241733 0.30931785137008017 0.10777215988067244 1.289517764379547
P 7.385572802613163 5.183579387923782 6.750350470182491 0.03514106667750722 0.041190101085064545 -0.1432983778117403
Ni 7.163416359859554 5.15331140540766 9.142997937017752 0.29293298225415354 0.10338122990182841 -1.3502312802095198
P 6.7775111495714615 1.4304976108681786 6.593477929431173 -0.7337792153842395 0.7704071510199183 -0.1682984994005037
Ni 3.4964747996313976 6.1652669443752846 1.826196655670201 -0.1476473988090554 2.3891562178640204 -0.8598308903003903
P 2.1038885077386245 0.5512964623522645 5.800813970060021 1.9828064758489077 -1.615086787501167 1.9881368869228855
P 1.0813007731393816 5.352741414330761 2.292738140260339 0.5444421501458816 0.45330477060841284 0.5642820676899443
P 3.0373564197720553 6.480818296188882 6.578932456573609 0.11037848715526795 -0.15377588030429645 -0.24332997451504543
Ni 4.36409527553376 2.616186372623999 12.08695297032604 0.7518669261238857 -0.14728307349110117 -0.8289264874120499
Ni 0.42073328506466856 5.623839269352107 13.336068469886357 0.5229796093967316 -1.5939260942631517 0.4967857246101832
Ni 2.0326555730369713 1.6404765345171666 11.42471153604614 -0.3607689680615206 1.992758187744981 1.525712670511708
Ni 3.2745219324251296 1.1184070433593905 9.476705451624037 0.7842944505249718 0.14882033607123402 1.2354351236025305
Ni 7.833096629707999 2.6055264166904704 0.6731604863645909 -1.2233640513706092 -1.4165595711231087 1.1257284657033064
Ni 8.914045772356518 6.469649401386998 4.291111591124969 0.30440653011139185 0.3928936165102072 -0.9770963343834785
Ni 0.30455642157035134 0.544275881999167 0.8229856118042992 -2.2951101493201893 0.33746243212509625 0.19850073401549687
Ni 4.416386430898666 5.860190479815815 4.109955263605976 -0.11824683415975121 0.24750081806328345 0.3699130964546339
Ni 4.62358932435663 4.2249791492276225 5.746599951116134 -0.8384611663753625 -0.6087004459043194 -0.00606446102652504
Ni 1.8391570152886905 1.9433414283577881 2.076315125194589 -1.5531383708228284 -0.5799621974293625 2.1975524680786735
Ni 0.5782443127599228 0.45471744666317343 10.103396117934297 0.5357155689061613 -1.01355740542399 -2.7060302843148043
Ni 8.854037253060568 1.437150829892664 7.141062839418039 -0.3396075034925571 -0.49912542848695324 -0.06387057340171581
Ni 5.29015118695716 -0.04242606940940619 10.309268367587366 0.6413015197687922 -0.04614281710464956 -0.04243760033892046
Ni 3.5956716117906233 8.610514631270052 1.1702595859541143 -1.883895365903291 -0.07110745746978722 0.399843308355163
Ni 5.394326346592287 0.6622941788535295 4.5054886719399345 0.9028061083103354 0.28050966888913625 1.4712330514065888
Ni 2.66311978972023 4.430877308495806 13.026671577006258 0.541281493029713 -0.21852140011179785 0.07242000563362366
Ni 8.68605966620176 1.062127657953382 11.880878070469029 -0.6175928632979428 1.7424330128590249 2.3695489851560545
Ni 1.8094812525466535 1.1644336239265538 7.879377679709339 -0.6067232675732905 -0.4809135334646169 -0.12286350699615614
Ni 6.019886243271405 3.5630532570461018 7.5441526019319625 1.5347719525004988 -0.3563266160194508 0.2695572836426906
Ni 7.077414944541658 5.384064288319471 0.15173318352433815 -0.29032511231766134 0.09087769811817896 -1.364609917528695
Ni 3.8863960002625038 3.0711314537628365 8.033311329831761 -1.486297401938879 -0.08663640634332175 0.48010260752754735
Ni 3.2926401561385408 8.451947786758812 7.727976694464528 1.4437240473530428 0.5200953458704011 -0.14361102395615266
Ni 6.807038857369978 3.0857981466054087 5.1061087133829 -0.6617284201645764 -0.4695166044815849 0.05831596213207377
Ni 0.8399730658865666 1.6153257009864972 4.70723018866876 -2.631812049130177 2.1616562684026968 -1.2635740479305917
Ni 0.5717308205883855 7.785728301215175 12.780900370761014 -1.1318973135181798 0.5644774715302021 -0.7017404417811398
P 6.325083002472486 7.135989181572246 12.1531122471819 -0.14631762425403833 0.02126456580573112 -0.0642824641281538
Ni 2.155976087556188 4.823139627921342 7.8330994057381895 2.085405576169073 -0.4507601498096882 0.2735908302821159
P 0.3200152083607621 3.406475900838428 11.320712191656444 0.7532357814469544 0.00752973271814187 0.06973243149913151
Ni 0.821745651652309 5.607682773640352 6.316788224261708 -1.3696814185143316 1.0127320813092173 -1.4466448205442635
P 6.389727492187443 1.492042200203161 12.750509317573089 -0.1129562751847732 1.020925929973919 -0.8548108113779795
P 8.5970786451455 2.2443926491402744 2.737812583383295 0.3944398779514046 -0.33847904631506864 0.14474513756059587
P 4.747788915103004 3.445025706757769 3.577390527639339 -0.2712932924971908 0.5945781475703243 0.5837059807425109
Ni 1.8237778080304226 3.0175263107741803 6.513491246193827 0.2560109124168236 -0.21075923966787574 0.5343320582950734
