# total energy = -340888.3849056032 ev
CRYSTAL
PRIMVEC
9.11239332842280 0.00000000000000 0.00000000000000

0.00000000000000 9.11239332842280 0.00000000000000

0.00000000000000 0.00000000000000 13.33690873098073

PRIMCOORD
 96 1
Ni 6.437486786140719 2.3067112721333043 11.304790634918795 0.3608507291420495 -1.743580496199907 0.056797982825650566
Ni 4.8291675710463675 0.460352648500479 5.9681730099440395 -0.5399149516994896 -0.12022067005667038 0.4676468982626979
Ni 3.0598597012756357 1.6615173679216964 4.790390692056733 -0.8906206219877371 0.12546289229221616 0.07746785247017626
Ni 3.608197975750715 4.659485693040543 4.544871830993304 -0.03187113767698382 -0.6326656984706652 0.3179289900778589
Ni 3.9016261564964076 2.9592497654471464 2.208392192012385 -0.34069559435041324 -0.40586868861363645 0.5596278567473846
Ni 5.207650832040508 4.964441051471503 2.6118069614230417 0.5200356962770593 -1.4008724994051551 -1.143050759031838
Ni 5.176222187110479 4.366367333671373 11.291933959032516 0.38495430705847256 2.0905063877307484 -0.43915341880869535
Ni 5.814499784710926 7.752341370915669 12.177104566625198 -0.24008909898024455 0.7367868918623117 0.5038444312291775
Ni 1.8681044393072306 6.763336862699993 0.08403722590264269 0.008282551723766381 -0.2967191887694632 0.1038568839866663
Ni 3.0548569972841637 1.827618075310674 -0.07567204873657503 0.16983061977431396 -0.6194972794095073 1.3135706915636927
Ni 7.951091783953906 0.00434114422866519 6.62911039627963 0.9847672206651749 0.8259589201432935 1.5398118289172513
Ni 8.840352033716666 2.246332553285413 1.5083908862942077 0.2188985809455585 1.1728364749347027 0.01907347169168328
Ni 6.970452452904299 0.8825954452101865 4.726440826224766 -0.12123497025379763 1.0504887312327005 -0.27245825933956946
Ni 0.7138293627437851 7.901666162005375 2.7706897419784218 0.052751580670418824 -0.9972764088757793 -1.319827985327314
Ni 7.57212556610813 4.0200052595077205 3.600539009075247 1.2051706682910341 0.1961854556187589 0.5629060132780241
Ni 7.7152994916345525 3.7388332479214625 12.719650092598677 1.6486114016211737 0.6358685216786791 0.05846997121143479
Ni 8.370024959370895 7.637999058192556 8.868430962822897 -0.010758524068084698 -0.5163839584570848 0.1808387979593595
Ni 6.997060641711399 1.1735942618682167 0.3743070510865059 -1.846829057178613 -1.115855943784601 -0.5528542854689769
Ni 2.108817424077213 6.464268110422934 9.063469898018282 -0.047059415381647984 0.9875051884216283 0.06114520405075276
Ni 0.29502284959543285 4.85855503984873 1.1542085560914277 -0.6683580096659522 -0.27309563581325225 0.32000489877028115
Ni 6.74153090522897 2.2657692884653935 6.966053900597043 -1.6431832886270665 -1.1444340125326098 -0.003081724249117273
Ni 3.539700114359287 4.415938753914737 0.18894547771069 -1.1774922285391594 1.245237968625565 -0.12095394867826911
Ni 5.866276404163646 5.888720229174566 4.731308666793516 2.2156823449101646 -0.2114722065745003 0.3719396399663594
Ni 5.691045078560724 3.349196417372565 9.161949356263518 -0.49579996365814605 -1.8324442492118505 -0.6435800313903238
P 0.2529272369196526 5.614756120789136 12.385267170834275 0.8404231751977398 -0.746594879091669 0.08057091687553221
P 4.25093153373701 6.115983321246165 12.14708287524031 -0.4230215462438392 0.33957073671735066 1.676300897116642
P 2.251572179505989 8.599046743373922 1.1960034597841143 0.6246292013194339 0.5935252808257778 0.3640111291479021
P 6.290285182719523 8.06467776802257 5.832269863133092 -0.3480466353988457 -1.4955310047220052 -0.6534810925541198
P 4.906221969865832 0.8828597046195721 12.55690001227284 1.8257393263878492 2.2290821632558386 -0.6335277893606445
P 4.214090127111288 6.19851426851531 7.97253780188456 -0.6671511338420446 0.2437763180238447 0.3247267297259827
P 4.825066994004178 1.0964578515079086 3.6333472703701384 0.5499443109110335 0.9400292543278521 -0.01194997327302458
P 0.41869898690591256 5.763397482371811 3.393136378477988 -0.3966317433964008 -0.09890493929802967 0.05089987217366073
Ni 0.9059714680686978 0.15321942804044494 4.599899752420809 0.16599581940925606 -0.5780379838234562 2.1002056172963828
Ni 2.104844420543002 6.694738764980868 4.587016650593591 -1.164481418101788 0.28298435568187397 -0.5960272213120251
Ni 6.188536197712647 5.587619413163265 9.208135522348718 0.4818332170654089 1.3643988299591536 0.019563523954224372
Ni 8.97199878155782 2.3677643080948005 10.360964462075286 0.2925946250781284 0.48055229347045625 -0.33827438650343034
Ni 2.1571860083882015 5.644672108410268 6.755784511027622 1.1491864396159304 -0.33296043048968466 -0.40733396030525326
Ni 0.8360192686863066 9.164789689294741 9.231487852984321 0.42751660590071533 0.9679920580893652 -0.02103162385931862
Ni 1.4361678784697858 0.6793672020418773 11.7048310850434 0.3325763076773885 0.22516410223929606 -0.6827710997674886
Ni 4.077294876983829 7.164500870934158 1.3755285451698795 0.3784725559888708 -0.20843650507197006 -0.1643163748243041
Ni 5.772409639471203 8.039746259606055 8.032953881545502 0.2584272351678001 0.21476373284157851 0.6503191498863703
Ni 5.326166620953228 2.896246677292253 4.960276687675324 0.4203036330920439 0.31119372823655433 -0.515720356731157
Ni 0.4685902521585675 7.523192013404662 6.478537207290411 1.594778672071434 -0.04061725930073005 -0.04626365895323
Ni 5.360055612108571 4.714807033536401 6.943994618588746 0.043390194060176884 -0.5641967070649896 -0.06658437278845307
Ni 0.6825401374331895 7.280583650801845 11.05084280993531 0.6118248504659141 0.38892537589107856 -0.0730841215801838
Ni 4.501987085046738 0.26781871025820136 10.182102758931013 0.9087762098508413 -0.3268674302180693 1.2837806047854536
Ni 7.987240648679168 7.581155947994374 4.683962493025048 0.8212342609741147 -0.6149142880245152 -1.1022272972575728
Ni 7.348817252783887 6.562408587632681 7.1083985983216 0.08792247214459696 -2.119392731747795 -1.6403252503529813
Ni 2.4376837028608542 5.36275288056299 2.355057986700068 -0.12632421185124695 -0.04424688563351735 -0.11464291885857676
Ni 2.336080516148812 5.316224999724273 11.232450988458508 0.32473238615293754 -0.42686226014616807 0.5436607918951669
Ni 1.530599611554709 3.32902157832499 3.6625014619007663 -0.8177303615859142 1.1802525648931155 0.8503921134849934
Ni 1.8165282925099069 1.2816399107332108 2.622636129771794 0.12169622616093236 -0.535221145768246 -1.6569967974713917
Ni 1.0236224908451865 3.6368108911117747 8.078618818726675 0.563669630916926 -0.8374000721006997 -0.4926909857155192
Ni 3.952400412672147 2.5034660710110095 6.988687263391246 1.6158059250553782 -0.6075874153457987 0.5482813213863138
Ni 4.1289621477154235 6.9779975146619275 5.771626884875815 0.3677397429523989 1.2049356694620927 1.5073740201035202
Ni 0.23188216429979058 0.06848692651931536 0.33714215449412355 0.9219921943204831 -0.1565696409993497 1.4160630911026644
P 0.34363108985355356 5.891253474547296 7.880166380953502 -1.0851873110561505 -0.727745864705966 0.07230302043978516
P 8.74158280136045 1.587734318342557 7.985060964171408 0.18647388475794982 1.1238675012351678 0.4855908843356282
P 2.0107680708017357 3.3241737850217787 10.255736365257947 -0.7331248696296923 0.6885373128273045 -0.3041630466420181
P 4.162951375198465 6.518395727379842 3.524077827067886 -1.6194751463768495 1.051653183854447 -0.31486166400644483
P 7.426145023406164 4.1641724359176955 10.558177614342371 -1.6238550206121 0.17889195864563387 -1.4941068706809686
P 6.661186932382325 7.928866656385236 10.076474628042224 -1.0961692639889506 -0.6172627336520337 0.5063234888972894
P 2.533445845386132 8.532307573913922 6.0921261640147035 -1.1822235725765575 0.683609536508384 -1.695667474568712
P 6.968229028908089 3.9931874856517977 1.391212796736585 -0.05632644250587073 0.28632241891617144 1.0316700558643008
Ni 5.412160277724666 3.2364761106794746 -0.030888279999803515 0.23523331354984003 -1.649711576663888 1.426713628837975
Ni 1.633952377804752 1.3604712262709575 7.218095412875582 0.5462303523945561 -0.9820225680405023 -1.5441922173731342
Ni 7.189459716530956 0.8957601199943019 9.384556015293875 -0.7434781878395583 -0.2540473609325496 -0.7632481713776339
Ni 2.8922098870040527 1.7274728715469663 9.151573073868091 -0.27851912082166874 -0.35280986111544405 -0.6914264614496415
Ni 6.534807147942029 2.1301586494834552 2.5885202400201153 -1.2593623238420892 0.671704814650998 -0.1982161128955425
Ni 4.265165092270122 6.926567166159438 10.065525176100234 0.48515199702599665 0.3532454059909659 0.7293170658478279
Ni 8.380741134041152 7.12614680699954 0.35766964316732686 -0.3682912445804948 -0.3666447101160073 -0.07641549994626196
Ni 7.886576038490116 3.9332826112621144 7.95471942777723 -0.46777262520728474 1.7202222810899404 0.7574482768664051
Ni 3.563428786843427 8.428152917042295 12.563648650844943 -1.82221742927752 -0.9628974171752771 -0.2475851502469736
Ni 0.22600922673603172 5.00045323029536 9.933596855302184 -0.15636806651150492 -0.04861364724264531 0.5666564814593917
Ni 8.914763838442274 2.5980436023907663 5.980243286277561 0.29441110946157684 -0.3386230280921007 -1.5332843122113786
Ni 3.870297747894076 2.5036209816992705 11.068607420921419 0.313478410505673 -0.16187331260045026 1.1150681577759827
Ni 1.3160847578876071 3.1431925391663644 12.434187054947603 -1.174566827362248 0.9380662170642102 -0.18580051284000904
Ni 3.50760626470908 8.5004779836731 7.938408243542741 -1.2319924164695686 0.14586665275954877 1.2163649943449568
Ni 5.819256454079866 8.110339971485713 3.530359911096521 -0.978121176103567 -0.09628627072825997 -0.4931679253519377
Ni 3.2168206780572435 8.649028221321506 3.4612478743881074 0.5050158258294594 -0.8057503064059025 -0.14625437511627068
Ni 3.19911529762841 4.248434737937987 8.4121488204663 1.474468270514435 0.008198476650392333 1.406528669249668
Ni 7.517414755971887 6.3835323046589245 11.447775933901278 -0.07815947922056217 -2.248179803317238 -0.5514715461888373
Ni 7.775359276712495 0.1474166559060747 2.606071621000032 1.154239942879438 -0.8967051376189202 -0.6449347456460054
Ni 4.6788130794994 0.5540799935734881 1.4581241904323567 0.009026628978642518 -0.5137737745277474 -0.0773099867360733
Ni 6.110534109976766 5.807647264853755 0.43963562204399226 -0.3768003104927704 0.08603373976231635 -1.0574183684729983
Ni 8.03071587771981 8.790097183966271 11.51990143911603 0.12282956843442716 1.2233205997271834 0.3347445189733009
Ni 0.19785193104632676 4.980205492100367 5.541285626304545 -0.6856584486176127 0.399305433573822 -0.48252510092611095
Ni 7.443859516228425 6.264834267877664 2.4877335237591405 0.645737958273591 0.275128607082881 0.3733540038153828
P 8.940661260562061 1.715963918648553 3.7034999424079253 -0.7269714484337868 1.2040666365935782 0.2799100876319244
P 1.7962623295280609 3.1841345228342752 1.3556033857022067 1.318470442858155 0.5237709949497753 -0.05848411227882185
P 5.1410392360884885 1.1050508385096536 8.313629267689985 -0.0030935513236591884 1.1083454943401685 -0.7522790739606399
P 8.604696427298718 1.654008755737775 12.461353833471783 0.7642912679301677 0.5430702094990195 -1.0987871612277722
P 6.571812577649437 8.066819180477935 1.221331357314708 -0.8515665934090688 -0.6872630741005712 -0.10376381005222775
P 2.46217781639287 3.5084901668715074 6.013678480240237 -2.116282468253587 0.4154059386801104 -0.1327411711211843
P 7.122164691071903 4.302726377976583 5.749581271457659 0.26441353465822204 -0.6294232802739677 0.4455536659080842
P 2.4670164973026534 8.386345255998812 10.368125892069633 0.8923633157104568 -0.2782548114166885 -0.31831285577983887
