# total energy = -340870.72252206004 ev
CRYSTAL
PRIMVEC
9.20084280035373 0.00000000000000 0.00000000000000
0.00000000000000 9.20084280035373 0.00000000000000
0.00000000000000 0.00000000000000 13.46636347376172
PRIMCOORD
 96 1
Ni 4.638393253825384 1.6449818721838447 4.490304769654441 -2.272121658844816 1.321505887250369 -1.2502053399331694
Ni 3.3360967699241075 5.944912924549635 6.088937396477205 -1.2771011358827489 -2.2234064530273 -0.40409154210855563
Ni 9.077339839324784 8.18597139439454 -0.2804748101020407 -0.6986798005779451 1.905561538022815 1.7648100950026446
Ni 2.611051959414161 4.273690248838286 8.332366003414917 1.331760989319474 -0.7132080761011073 -0.0012698678513591033
Ni 4.23269129353725 2.2569851286478886 8.648825309518385 -0.009744480981273541 -0.01633961770028799 -0.028333042616738302
Ni 6.248623542936513 -0.037421667639223055 7.852465686925222 -0.9333400152331345 -0.5072064057228748 0.6359461689941499
Ni 8.080189305279633 7.377309324958241 11.10250513442526 -1.6018438064483316 -1.2492733150372033 0.12054385772404401
Ni 7.282467037874962 7.711805963191904 3.718763500299388 -0.9458705435999775 -0.45929724074642186 0.10094639520809068
Ni 0.3008169533415072 6.158961330322374 12.511234207023978 0.6413639975756116 -1.7421429924224319 -0.3370988781380904
Ni 9.227065153421233 1.9635886549855301 5.308023228611119 -0.5302810281541512 0.14795850229157098 -0.7686863116740696
Ni 8.376750868848536 3.4880946921801965 2.473703618987136 -2.191553313072445 -1.00913896464132 1.6387800173530485
Ni 7.770470536575973 3.32108099455353 9.682934708812354 3.6100298987126083 1.036447422648286 0.1902022414521305
Ni 1.9493457504060856 8.801351360148415 8.631871836664324 0.8807182752723606 -0.012563952707939655 -1.6122012384232558
Ni 8.918744912815812 1.5505352213388839 0.975378579842089 1.1656337865386766 -0.7319107947169331 -1.8533609447598598
Ni 3.92845622711353 3.9254291498482607 10.645739416950136 0.6018808518793247 -0.8460315225234526 0.7619808746294361
Ni 0.07915945061321193 6.244786791509105 3.4231901072420063 0.4757402167937936 0.893565563548674 -0.7823617522786332
Ni 6.751311586669044 5.326515082373243 3.2915968939560947 0.420183819684728 0.1960551006884817 -0.8013786597007682
Ni 6.332691643157693 1.6528117893654384 9.701181820157284 -1.6779895976729746 -1.124989530654753 0.7180489491331763
Ni 8.75815340342975 9.112358246837296 7.539049099519702 2.198643130039691 0.5725594772073882 0.28586476255346255
Ni 0.9155031755519119 8.49523012096062 2.0464836477558834 -0.24671406049592998 0.03890104794057171 -0.31325935251633147
Ni 3.4568578310385853 1.1100632762925313 6.604672235231475 -1.0036933681457167 -1.0707593085562785 0.657348803039642
Ni 2.3893208499438527 0.35276951193829936 3.9848721145291135 0.026549468353754276 0.1023173074136883 -1.3634014990428904
Ni 0.3501840751251056 4.492440285257082 0.8982414744656742 2.1278472902730514 0.4067300081726673 -0.795125736812521
Ni 0.05665510932712428 1.223647680060777 9.968233520769047 0.5695661989070191 -0.3823523506592512 -0.7140480555038993
P 8.889173404212238 1.2468982096940175 3.0341333915757533 -0.71043848377577 -0.07503610310023205 1.076652534112262
P 2.177949889411823 6.449579149473755 7.925386046068588 0.8928849925418816 -0.12323194607916842 -0.599162167396581
P 0.3288307592672405 0.957568508527857 12.23450045958473 1.2278112885086854 0.4846151506859202 0.015418134327283124
P 7.8008425184989365 3.2274256161852053 0.44649205645871093 -1.7122462048629994 0.5179435896347209 -0.5009712234464405
P 5.161470365095415 9.176883757054119 5.588015914552977 0.6909955445598099 -1.8385164235478597 0.3458138894135851
P 7.657355375788058 1.8569140841237206 7.8763814374894014 -2.5836501447129696 -0.0071479238986909156 -0.5565908696932738
P 4.505395071851306 1.5318943139241843 11.502226546924867 -0.019883369187488335 1.0092693195715972 -1.2724836917153957
P 7.839495258898321 8.293308425934464 9.244604719958568 -0.943102236826221 0.4998707912934101 0.355821137137942
Ni 0.5815576677990686 7.096858437047355 5.938706956113695 -0.14757129415548131 -0.8551267999565014 0.31052884095904587
Ni 7.769440042187797 4.726739745926047 6.932483541121841 1.9170991063487692 0.6106002340301936 -0.6726556086000416
Ni 2.3855761069439603 5.142222202059111 2.185846972745504 -0.26565306349227796 -0.10163030864899272 0.25610090102746863
Ni 0.4343791469762568 7.104679153386197 8.896525797655023 -1.5133099259719807 0.051818527333188175 0.17282338385405074
Ni 4.309012284161599 0.055871197524689734 13.023859160928215 0.6996388220571047 1.09964668101459 1.4879920160324824
Ni 9.256967892363866 4.2089715209236775 4.449300293847752 0.3681025256084564 0.0801356291103265 0.49864591774737343
Ni 8.800560087671778 3.261459533523297 11.994490035819858 -0.300841695578269 0.0026654626473050867 -0.05957014625414902
Ni 1.591267352200125 4.86681337597609 10.565290928267427 -0.6421175879121845 -0.6315691229723768 -0.5452124526530029
Ni 2.7204315780449346 8.034773945457838 5.665366479481229 1.1763578578243998 1.3815403747354467 1.4726736405078573
Ni 4.963100195371366 6.813141249959657 4.050978329530659 -1.111075748787138 -0.3765172320347128 0.34309726181337036
Ni 3.6007406099877812 6.151241823253799 9.834552636262801 0.6231940115348041 0.31323184171250573 -0.9800926980076412
Ni 3.656930156671675 8.34822825631864 10.965390495404124 -2.166547535056727 0.9182363268224767 0.027297402263372343
Ni 5.109117569838928 8.639637347946657 2.7884929721311917 -0.891579900577213 0.4759219937872965 -0.7282186905773265
Ni 1.0695151622863215 8.265935918748514 10.911053998450399 -0.5263642095982484 2.188737698000521 0.4484168463884922
Ni 4.548482618456951 4.27062636820201 4.599167300922576 -0.2002190022581842 0.42429861318404993 1.1303058006613436
Ni 6.8075655392522005 1.5247544599489589 12.957671978510454 -1.428248577425263 1.1699283001489722 2.828706872111135
Ni 7.456261756609543 5.31327506965372 0.1860253990042544 -0.23330524328919175 0.28418583218914284 -0.6638166701521728
Ni 6.296219502490432 3.6500939305072517 8.110669857147066 -2.942533465716003 0.6195900962336297 -0.20740600692492667
Ni 2.3989725339902597 7.191875540142913 0.24167117588153042 -0.3942766129006629 0.43946426518089476 0.7432583585192684
Ni 7.658827510628311 0.4906119376210836 11.317118471942946 -0.2871698545181312 -1.9124482378403191 -1.732535808349971
Ni 6.581648046329924 1.100466797302634 3.817054263245959 2.657178552919424 0.4157669215639549 -1.3084233430347982
Ni 1.1735582921211796 4.4314939028706215 6.398232926414293 0.682739732308921 -0.3014690447496227 -0.6081088350669076
Ni 4.364392156683354 7.3848448151717845 7.610353790675891 -0.1946188824625874 1.111083462096622 0.5273363437035304
Ni 2.405808760154683 7.203238580941113 3.62191266924344 0.06749891418292246 -1.494595380281613 -1.1936963491028474
P 2.2427514249111957 6.710726669291829 11.458689999192945 1.5831644848712734 -0.20989097813030952 1.4242677384006437
P 6.443745815169255 8.523872344446287 12.726076645526177 -0.3254859764895104 -0.9508679968145688 0.18287588299404636
P 3.3353975058749876 0.6237444518993345 2.0334883774535526 0.23476922942922793 0.0773017592059572 0.01214537711328231
P 3.946296661208842 3.49172902506707 6.70895550706215 0.24737226290521913 -0.8923296342590438 0.24223545589928605
P 7.746888776603675 5.966608511757858 5.102270302663204 0.6586497812392528 -0.19816186261883934 0.47646578210590845
P 1.282404261872362 0.40399888429481734 6.098269811280131 0.45292990376749737 -0.09223061260164761 0.5484409868926297
P 2.4250385215054835 3.2398927581135952 0.7363066420378797 -2.7199114131722704 0.7907265793035607 1.2729570318073884
P 1.205494417311911 2.944784927699443 9.633230836184048 0.8454923621905309 1.3112304734662903 0.0015066664525135343
Ni 5.684216246026389 1.9775831368106822 6.55080682142663 0.7724650619902115 0.794052044132368 0.4719876917298968
Ni 6.35918086943949 3.37369141340706 11.451714840302971 -0.8929510698931267 -1.555550836919063 0.9683131888742098
Ni -0.00013617247272337265 8.792187320767841 4.286464698914578 1.0239217793774495 -0.029016441837008095 0.8654009281889999
Ni 2.4548308503350973 2.4317275341858813 4.899978733758432 -0.6251557632468653 2.49725799316997 0.9149360588046501
Ni 7.626670565211541 7.14658899211964 7.004609867535746 -0.8980891624506404 -0.27331032292721963 0.6965833230602326
Ni 6.296385117659962 5.296060292865516 10.17271949067007 -0.2703180730681151 0.44802963825240255 1.354070708560268
Ni 6.030655578151602 7.01363681435932 0.9452320185665396 0.9476867708731097 0.6819447472114514 1.3229788722514697
Ni 5.660248050658525 5.930789630925961 6.144553730657676 1.0145297966395883 -0.8570996074121561 -0.09723037980908417
Ni 3.649587884155915 2.9932273647865077 2.612285792427148 0.8601713043589444 0.25473744502103873 -0.13778696107520785
Ni 7.408481780200592 0.36393289444879046 5.818115190505846 -0.6674349836310506 -0.2783748819343206 -0.7378184184506197
Ni 7.01648907561231 3.4077989374871644 5.0836864404735636 0.019225423888515277 -0.28448819392091 -0.2976663831740809
Ni 5.230725108486552 4.449518353820965 1.0536584298882499 0.4596515387620471 0.5021112505881546 1.4079484324153302
Ni 0.43864833801298964 2.1924412167455607 7.712132593109585 2.088708158179745 1.009616932719003 -0.5473788641767025
Ni 4.525324097251226 7.006101324145777 12.719707822173534 0.2785515167215009 -1.8580089850548323 -1.190416135689679
Ni 1.3743574843316448 2.528115562851426 2.5932041646446473 0.02854464440691213 -0.03298571089740126 0.02787050115802297
Ni 0.3928557436383798 4.908134360773432 8.460027696593079 -1.5833269785910666 -1.161202233129884 0.8533558240990078
Ni 2.5351174041853777 1.2761384879585362 10.060773756995882 0.9739014815952648 0.48998489963826575 1.2208022041807038
Ni 7.330440231981697 -0.030345299478983467 1.8431542237887337 0.21054506677454063 -0.6565095949677984 -1.042527824514411
Ni 5.352875496856518 1.609199794722953 1.5754971077239182 0.7468648449236039 -0.13335669321799615 0.793948171564652
Ni 4.142118197490703 2.6811623811811947 13.388528122797132 1.7925499841200743 -0.7719156172446447 -2.2012733685736863
Ni 2.327279567269954 4.871919843703216 12.747986612370514 1.2680328550328936 1.1920495575280439 1.846133830883801
Ni 5.690951262920545 8.064299449847656 10.130138910500037 1.929205402694 -0.5202346996617428 -0.7239827981191079
Ni 2.1520495170661276 0.8257379134989546 13.632942069902908 -0.7542953330597203 0.010295211278420981 0.33555004559373175
Ni 1.9316157264237923 2.8045916866936302 12.00457599964414 0.33999933961433704 -1.9825575930628954 -0.7949236481040438
P 5.904834053523755 6.045082499586077 8.336069342622427 0.23286584175892802 0.23714364319867542 -1.6790697181110308
P 2.388281154712925 4.675353039158478 4.494991678952095 -1.1458805151711493 0.4430599529519531 -1.406546666971797
P 8.445481164202832 5.225913067727475 10.837742603490089 0.1561685489061891 -0.2018107722253363 -0.733458341709711
P 5.922757295203832 3.369955871249919 3.223161025569848 -0.5095183416855031 -2.123171739174253 -1.5362241115659931
P 4.142182603389964 6.359272877867006 1.773398954551911 -0.6416576175566304 0.8740526903267269 0.6217824758992582
P 8.254296852667768 6.987975663925166 1.647407214333161 0.13684542309754497 0.4101809428357452 -0.2284844248617807
P 5.361616297470517 4.918991355220295 12.434274677912668 -0.9258601619163216 0.841233586914177 -0.5759618180207178
P 4.119079287240749 -0.07274554313108604 8.914275143407096 0.20734018668399776 1.2838219995463502 -0.19340223644666693
