# total energy = -381166.39966216177 ev
CRYSTAL
PRIMVEC
9.25143864883841 0.00000000000000 0.00000000000000

0.00000000000000 9.25143864883841 0.00000000000000

0.00000000000000 0.00000000000000 13.54041561232985

PRIMCOORD
 96 1
Ni 4.910108439144586 4.6745668163902785 4.922279631559966 0.8296872768374742 1.189832495272067 1.1549074012601077
Ni 2.4649255043907865 6.557928397388242 7.422516951343169 2.0701288525156603 -0.3871063204044688 -0.07561691530436654
Ni 5.411758437268293 7.9382245101807465 10.158047030186568 0.15426978922157947 -0.008182021590160102 0.44087760058865355
Ni 6.205679878677706 3.002646861003065 13.484168586055297 -0.1910234518018452 0.9067586652001803 -0.6269516788050234
Ni 1.8030590953142482 8.128276810111688 13.212046775698061 0.46950837695146885 0.9753688101694105 0.3506478204671187
Ni 2.018562102401398 6.4230516763303065 10.252951061164593 -0.12798385894185701 -0.04752401372289235 -2.982414103961025
Ni 7.517589358500853 8.497770010079648 8.841254641153297 -0.0319662684939514 -0.06157149295489397 1.0972069612248458
Ni 0.7175489667762095 5.235657306509132 8.028965393859501 -1.2624252790381292 0.15329765511629728 2.2003760535703973
Ni 1.742822979613019 3.38437046259244 1.7589944940110758 -0.21541242216917098 -0.9500053917039576 -1.6262659440464382
Ni 8.720794436620814 0.23393834847216602 12.110439144269508 0.6515296252547038 -0.2973753342962233 -0.8431197481932963
Ni 7.134718578544568 1.2524689878280009 4.525329087437546 -1.2212912280019805 -0.8045236330876531 -1.1301368791836472
Ni 0.0696485291729587 5.986393033267441 0.7108703533643346 2.5590143484421604 0.287547292462208 -1.2887885995230062
Ni 7.327342778362613 1.5888975468013078 7.668208327213098 -0.15651436228138207 -1.6660103138239115 2.3151308154164902
Ni 2.083682977600439 1.423352307305409 5.68165342639234 -0.3043324823403469 -0.35405838881056445 1.666888859774123
Ni 2.8537449592658075 8.619944506155587 10.974655774089317 2.638877440617391 -2.4617438594237604 -0.16620099344152667
Ni 3.7993252310684396 3.8381072610207596 13.165345514438684 -0.4410526927139372 1.0785811185935426 -1.753777748447883
Ni 4.075277136941004 5.602846898304829 10.097399225474632 0.3314483647205324 -0.18369606490249654 -0.7568409822997094
Ni 8.672390910687957 3.506803998944777 0.8323417401186181 -1.3671038875951422 -0.13365776939818272 -0.5324173577708636
Ni 7.3887815810614095 6.670028076999944 2.45475539811059 -0.14324078510092753 1.584686835053071 0.025380130636001447
Ni 0.6355691953028102 6.871034080047188 11.851261946581472 -1.3481980518295749 -2.036657717341409 2.366433836565841
Ni 4.364292073894836 0.9700688293607882 4.689059194710962 -0.4868630661798325 -1.4284061860490496 0.9511852709446715
Ni 5.577100145118449 5.68516619756908 12.408030164659838 -0.04756103760841487 0.9348160855580288 -0.8251814185473207
Ni 5.325063207620586 3.141011374353946 8.820876497695288 0.9135857154243427 -0.6619112255993439 1.1168411905160056
Ni 1.6334802286572783 3.6003822987939453 6.75165721895636 -0.08741339371866236 -0.5247981506627091 -0.4152555291451752
P 6.307760250455829 0.9007977588762967 9.785414817154956 1.2784406806297788 -0.22406289875531737 -0.908359691138713
Ni 7.7720594243091785 7.6112694241728915 6.7740938074678985 1.0355331383641329 1.966517765991213 -1.513106294601607
P 0.4241655005896757 1.6061792338125036 7.713446936054665 1.4198061030848645 -0.6366403668476971 1.7422679480360703
Ni 0.338158577962115 6.23576555649377 6.056140552831738 1.5621302899087934 1.5110365565567718 -0.6431326594402601
P 1.1603154094990278 4.3871431268486125 13.205195160387307 1.5409873372825913 -0.2800561262914854 -0.5433807987609028
P 4.6639831708116875 8.18145407828104 12.464629539909193 -1.645323217788205 -1.4397612060505527 0.7049643480350762
P 6.515001723013538 8.530196301821746 4.952068338202016 -0.7695692284996553 -1.3054071819162938 0.4231382743273616
Ni 3.872818658058236 1.2527557824197284 2.221508132090103 0.3618573160296929 -0.5308248164727633 -0.44529115627531696
Ni 0.4617263406675424 8.386937777534612 10.220860596637968 -0.7273781969539022 0.4501603114421601 -1.3884157616990411
Ni 6.135924032818811 7.707105075002109 0.5383032720903322 -1.4695374088717208 0.39799699917504355 -0.3403749777862009
Ni 7.850733656826957 3.806162044077687 8.597581929151591 0.8691855920424127 -0.31037508899000094 0.6842705671311506
Ni 2.96977650021571 6.071441506872325 12.366420895119392 0.273401082868813 0.24273399280225938 -0.025162101087924407
Ni 8.373088374185704 8.104852167974455 0.5191842494043916 0.45328368756249027 0.37083740804111615 -1.9578865726787766
Ni 2.4359129934340897 2.847185689409845 11.164546173847508 -1.2788841959251007 0.27557212237820283 -0.30766360359610884
Ni 5.013659789635119 6.637990345672443 3.24172438353022 -0.31079340747434214 -0.4257039781720088 0.26428086573509973
Ni 7.1564502074467615 5.941949122988112 5.409774928866151 0.03312686446095585 1.9896906045632508 -3.2291351064354905
Ni 5.910318454952097 8.760714393501601 2.7386163587079246 -0.8658035629440572 0.18185541214933196 0.875378608227002
Ni 2.0133257882427595 1.372959722107345 3.4790876145139196 -0.39177390108346727 -0.08181173126116878 -1.1499066056114067
Ni 9.197733842663737 2.715075148446314 12.325067890423812 1.2313619819744213 -1.0289179470404601 -1.5600224995371714
Ni 1.2424681828713078 3.6585368408455388 4.032986036387321 4.425621616688964 2.1438655200781787 2.6297911620454064
Ni 2.897754051938323 8.045494938925295 3.3023037275976783 0.36029639930047624 0.02354487719947558 0.3093988411196607
Ni 9.147387514657886 7.299320171319299 4.112115439676486 0.0909679438391401 -0.41969428164281913 -0.9254750106627609
Ni 8.58061664133514 1.423676107650908 9.657485001223737 1.1130056188199993 0.1436508760551526 0.7970617774929692
Ni 2.644708707650192 1.8709739049230216 13.182000879067301 -0.27246597264905337 -0.6248562297285755 1.8943810959259635
Ni 6.49797907627874 5.8728593806971 9.803152600081383 0.7879202202030172 -1.5883336877770389 -0.9810391210813103
Ni 4.230553279765368 4.515849138465184 7.407148461801949 -1.4349475867119932 0.5805486660604517 -0.860348453366757
Ni 6.39905344500962 1.7379104657998792 1.9749369444242602 -0.8352220906127745 0.5488557058325451 1.8545130560864318
Ni 3.4558008188094864 2.028155844066607 7.610295247704863 0.243261068950323 1.1934302399256542 -0.400193235495414
Ni 2.4080476608443027 3.946524868132218 9.262578099853338 1.2505871487526203 0.3069863750234262 -1.9722726661971195
Ni 4.812542769326561 0.9521302902201517 0.051674834566239586 0.23164791019142683 -0.7522443640679625 1.3832496441170696
Ni 0.31161157535043055 0.35632470248844483 4.625094749317276 -0.8947094473451301 -0.8407975278180229 -0.8797862503763945
Ni 2.544524880752847 5.678542167644018 1.1199264046891897 -0.5384018574890728 0.40397969912103976 0.5801298333554783
P 1.6996187620850292 5.99458055628934 3.244648763221997 -0.18198216753518337 0.4810174060323328 0.18792578671312798
Ni 2.80674765197626 5.568033735444481 5.230797525895116 -1.0139081038951892 0.3059085685782151 -0.13827804177901346
P 7.381981773805934 5.940931464759402 0.31852517529875324 -3.119010130051925 -0.5630780200795141 -0.9616409190603568
Ni 4.9969701946842635 5.37290239580843 1.104709638738432 0.20222446272398722 0.07183353700253435 1.1234167868509943
P 3.707106892670367 7.626728577810852 8.962265306273128 -0.9445222571021992 -0.25840640923219366 -0.6962022855717301
P 8.661131910103041 4.480508643613596 6.1902447787796975 -0.7113612527003556 -2.3502885942645455 0.7082669300457479
P 1.6186779271487595 0.6840772624900711 11.823233788675093 -2.2881026076541042 1.634979669770352 -0.013224726220390125
Ni 0.44706558616719877 4.337185359257361 10.300099166900758 -0.7012087376473859 -1.0784875304384716 1.3849972229357954
Ni 5.510693319975856 -0.0377495694221004 6.90020941632048 0.8236652390131105 1.1814761528875715 0.31864067143290287
Ni 6.84591642467492 4.531576583817985 2.5812225616239988 -2.8808015359238452 -1.7673058648413047 -0.2566308053890096
Ni 3.6744215606518686 8.064515896363742 1.1912013367403969 0.7866449530350195 0.03474794500414661 -1.1212079521251335
Ni 8.249470653712686 9.039645262552755 2.6049867315520814 -0.41388924492526785 0.3771769771058988 0.8440214340719594
Ni 6.889194653710454 2.5733246086253594 10.969605413843379 -0.061974641930583586 -0.2535133428059505 0.3035408396769869
Ni 5.986189501621698 2.5873590407431237 6.41310638000427 -2.708761567203038 0.13402260893676918 -1.0726004755300753
Ni 0.845250272177891 8.091382073601704 7.673461293960934 -1.592369034188677 1.2596793408618758 0.6424101794519388
Ni 8.71245889058383 2.934870822970934 3.6154667691749705 -2.626047121621942 -3.8762290645163437 -1.0131077194810811
Ni 5.882591893938951 6.980904162994171 7.661640731062537 -1.942662042419538 -0.6819079804362449 0.715463190683871
Ni 8.948657365467577 4.831230674981065 2.5431205123972265 2.8075202107311905 2.5674038580574363 2.4111985423760407
Ni 4.386911840887541 1.6789603000422026 11.434866729139927 0.5017988615540584 1.1118576212584852 0.0625323142062665
Ni 7.644861397158787 4.436971374301664 12.114663351062502 0.5332709640204106 1.7324383635401583 0.16811826506889757
Ni 4.273489205578515 7.825671510085345 5.519966961870943 0.6654750316912024 -1.121385101132946 -0.6606765818612944
Ni 7.630012838458054 7.18405649976015 11.287953886667875 -0.6077884756130113 1.198263913868872 1.390818714713579
Ni 1.3890294706825308 0.6911564631865201 1.2309649443115 0.15457369361524348 1.1061798541474175 0.18312785110385235
Ni 1.9388887145317952 0.8027741428553515 9.393460049791662 -1.2547855031046842 1.3691420010710935 -1.2294511381049535
Ni 3.374554686404603 4.42438016658098 3.1060492633346684 0.9179715031968642 -0.029263781961123794 -0.440320442533603
Ni 1.9341797323643974 8.011754942924314 5.319162640181752 -0.6221185190824382 0.21743099526109647 1.216653215009337
Ni 6.200073506981354 0.1718167896162892 11.8734413451043 2.4574208065683742 0.6728101319000348 0.14719719864551423
Ni 8.697628834759982 1.919923265724005 5.951757498025195 1.1326282781469332 2.504381748698945 -0.676957321299189
Ni 7.081032481260858 3.6921935739005343 4.720554791745713 0.023221175311469684 0.9624127642293747 1.7999907566688356
Ni 7.695910834486291 1.2459097179720384 0.33468558797067877 0.28814301706467793 -1.016782597229507 -2.2889058202816903
Ni 6.540989013599431 4.773436939028742 7.044455069089463 -1.1029708602918165 -1.0168556165592875 1.6367159357351682
Ni 5.195321034898417 2.773044661729051 3.744642753864438 -0.014236198204039997 0.5288013582848312 -1.5195237680921765
P 3.4652002802673962 3.067601210310135 5.328342842548566 -0.12235519990116993 0.4821278654876923 0.2614068866214143
Ni 3.014414690702338 8.979298129590212 7.292799757504795 0.765517684138101 -0.3153941394711472 0.13708684968438972
P 5.39671559836026 4.156856321129829 10.832155867754494 0.6208548218786663 -0.7510989376096097 0.7620263831553908
Ni 0.9487165094347496 7.879052309900442 1.857745273093627 0.9604589829371136 -1.9978476864527464 1.619719915397804
P 4.539070248956674 3.126264581476084 1.3997944444546013 0.5348084837108597 0.0052044270190749085 1.670064172178311
P 8.879863669206737 1.7027179939633754 1.967015862829514 1.3701928109331112 -0.21826840356072733 0.172358014181858
P 8.895850154835935 6.208723601925394 9.888037323225829 -0.46584789738074606 0.6975436300909729 -0.9270112448016292
Ni 4.285155269454917 0.7508726480472626 9.388612296047622 -0.48296655933890376 -0.6861652130507022 -1.6267410839106438
