# total energy = -340893.83883238607 ev
CRYSTAL
PRIMVEC
9.06743391378516 0.00000000000000 0.00000000000000

0.00000000000000 9.06743391378516 0.00000000000000

0.00000000000000 0.00000000000000 13.27110608309399

PRIMCOORD
 96 1
Ni 6.528724762894883 1.8931079384321199 11.384406397106424 -0.5971723906600619 0.4964661364872353 0.6583906140405951
Ni 4.843678165079311 0.5036506216572011 6.052354423176972 -0.6997704625389625 -1.5904998421904222 -0.19220744480761737
Ni 2.702594041552562 1.582874751477768 4.783052394596599 0.10510669723336737 -1.394579724417908 -0.12015819224985112
Ni 3.394167232907225 3.947498325462973 4.6425253024291075 0.2934433462316688 1.285737214291192 0.02061047716149999
Ni 5.123245290237917 4.376832258037405 2.8869431355097213 -0.10671672203296459 -0.22677309859762879 -0.295077282290666
Ni 7.235621917713416 6.055540719485377 2.657392883051146 -0.10584486095097255 0.7032391378138534 -0.3555033487872071
Ni 4.92112311889287 4.679113305371748 11.60567536209071 0.38956043837191623 -0.17039086315315816 0.18914243272904846
Ni 5.643380506911282 7.822765471663704 12.468748186677884 -1.0017971795642682 0.20539566136311724 0.2500264126986146
Ni 2.101658920484791 6.428121582639474 0.4238662698710509 -1.3803625523772614 0.7350264575277792 0.2594639039624305
Ni 2.764660627298238 1.450354203534299 0.40080234474282594 -0.540097757134257 1.3159831576599272 -0.5336453166406938
Ni 0.5280465528403625 -0.19015587869222542 4.753338413371094 0.9430194473044275 1.1109790753082738 0.01757503276928586
Ni 9.149222256990711 2.5054045543047603 1.5050362710285092 -1.4920947253469465 -0.6308008773477847 -1.3004562656689216
Ni 6.886634517833277 0.6199667582951777 4.676485562997885 0.24786745737408278 -0.6563147053481728 0.8024631510141985
Ni 0.7033662960180409 7.420461559850098 2.3043414592511806 0.18849348629113988 0.0303601003490961 0.2313545473207241
Ni 7.735409812485641 3.969595662126554 3.9234569309493015 -0.11704947141754035 -0.7773609566299322 -0.9589641435591421
Ni 7.578579473982033 3.9972513358335386 12.750640201914678 1.6835220974554297 -0.6438736513713428 -0.3119712298325273
Ni 8.177991266137418 9.183497157519367 6.7944350354111895 -0.760460838440484 -0.15369386211345143 0.6144378626087289
Ni 6.880840427505812 0.6087648503287486 0.4290310802787553 -0.2476617691211799 0.6258916129716252 0.17116245121186005
Ni 1.8076655078285409 6.466222940317098 9.345871325171977 0.18956049410307352 0.4197801564884061 -1.070188523654473
Ni 9.200181236083582 4.954591017795322 1.406471449936816 -0.308319749122869 0.017263157955821885 -1.0917796195616876
Ni 6.243417952012827 2.210486263380276 7.182230146077732 1.441755353662446 -0.28052972349379424 0.12326742730279416
Ni 3.7324913304006713 4.61513349105159 0.6249085098264258 -0.18655436028689804 -0.5810538878316445 -0.6204807263686991
Ni 5.958836535850953 5.736122221886705 4.819985866774727 0.19680277748778366 0.08759131405742335 -0.12466867852569498
Ni 5.285216863820825 2.9155789988323533 9.402445766142465 0.681892039596645 -1.1479559096429393 0.2679238618043257
P 0.4885080068733767 5.636607133711571 12.398902649301645 -0.8575600919883424 -0.4452885851721557 1.1189345827099244
P 3.7956097384906125 6.382367310663919 12.518992651971375 1.6779883121213943 -0.879477460886724 -0.602045402481647
P 2.31483429387863 8.522254532902366 1.310438256418562 1.7303151465495685 -0.8883616507502314 0.008356085274179158
P 6.381551241603713 7.857765766912544 6.1130164633956925 0.2571331989467249 0.4731529156825916 -1.4310497943194838
P 4.739765371413066 1.0977579649212477 12.58992718817129 0.3537017768020941 -0.18332634026790365 0.10863836453570967
P 3.8995678693268676 6.303952141412115 8.296631386110183 -0.47111043133126607 -1.697045585863161 -1.0577852648941137
P 4.801215371646586 0.9197461005882894 3.740647487285731 -0.16917113181344415 -0.3530309759873146 -0.512217228673905
P 9.295751990467718 5.714423852319225 3.4540313389337443 0.37229599486451365 -0.8126706876748198 1.900439643415217
Ni 1.5033896250136933 0.882782705877954 2.6012427979919654 -0.7929199874104539 1.019016114545716 1.0664352272596278
Ni 1.8246941488848414 6.674238943763634 4.926738580770488 0.10928036899508276 -0.6809566722665692 -0.7630023739154149
Ni 5.6682434109455615 5.360132003547745 9.464209499592464 0.7707437084237306 1.5204174835510396 -0.833777644856764
Ni 8.691325907309066 2.383882803806069 10.306089010686087 0.2365641165461216 0.90568677229224 -0.06620564929279565
Ni 2.239293501205552 5.274118324602022 6.950702286263256 0.3446036711555678 0.13626718199657178 0.16760095911284684
Ni 0.563862010406008 0.03329652439980931 9.056109683964594 -0.4129163394890373 0.5729392291443101 -0.024976981660311825
Ni 1.179854512377982 0.9700250221309878 11.5284371457724 1.0421352170616827 0.6836162213766034 -0.4519564841106345
Ni 4.312879646019253 6.733612501610629 1.6701823532556181 -0.7066887869253506 0.8339342250392864 0.28544952939291485
Ni 5.51108664481787 7.894543279225831 8.101864717227793 0.3961725443717951 -0.0707978966491684 0.80900403745651
Ni 5.412432962872955 2.5978379765241053 4.970745558213802 0.10205351222934037 1.3408434112367165 -0.6143399035782839
Ni 0.8076009835913662 7.552628477867478 7.152900624053923 -0.1557034363443125 -0.6761739061659452 -0.3147390223856515
Ni 5.146675539699835 4.423148710921103 7.266912725711919 0.11585570821975531 0.7574809298765535 -0.9494878286375906
Ni 8.238035814100582 7.147513661513163 9.419008341091047 -0.7385473261968442 0.6006271819778818 -0.9978885885384815
Ni 4.604615267608933 0.25655125743059415 10.492388509697138 0.15800534500461175 1.199803747552166 -0.47750939287907446
Ni 8.084778044593877 7.169112289306618 4.89435786720491 -0.133500417884712 -0.2815417096980764 -0.23348779161364303
Ni 7.0453146128733515 6.000746215809538 6.972586538227785 1.2349317016035506 0.5376050726193903 1.8358170223388253
Ni 2.3796301772589947 5.231038945657142 2.5499764328864174 0.3248082336961955 1.2017266756064915 1.246697069669595
Ni 2.4931907207036756 4.9813580829700825 11.16886986389839 -0.002561590079589137 0.5683418395816147 0.41358482631097154
Ni 1.1102347541083988 3.4332932106271064 3.4581316325895792 -0.11967405352458099 -0.641870762008701 1.3668961424597104
Ni 3.5451853462153657 2.3629551661287835 2.602516772469287 0.2764876922139367 0.6593622339252451 -0.15415820334437966
Ni 1.0399802754586556 3.5244934618221397 8.135586504282308 -0.10323596257321575 -0.5521639442701717 0.342836551952816
Ni 3.7021426287950066 2.6048924401778866 6.845847386204175 -0.08041587935490666 0.03600932821507347 0.6469720877910083
Ni 4.150617914548272 6.832093902309501 6.094569675661433 0.2043818753866222 0.6853946534332648 0.22881866827274788
Ni 0.6966600218299471 7.45060171047371 11.325628569673379 0.7631859506811308 0.16987381430742357 0.2150712367796683
P 0.10812189653010706 5.6079087050943235 8.109388873962892 0.30003796873005106 0.2914957355869947 -0.7756995097671092
P 8.367264883501221 1.9366134867751075 8.175080619822683 0.49440925395820656 -1.7223118166291178 -0.9846108975929687
P 1.7960954620416187 3.071874358729827 10.254769147719927 0.1683038987171424 0.2773896352029158 0.3182069263295939
P 4.01954815604517 6.053663760646902 3.9694279145975115 -1.2093859919239622 0.2795100239800283 -0.9832690388530936
P 6.9760484845298585 4.0314083597201655 10.644927231687463 -0.6799742537486418 -0.24107100327753964 -0.6180327790488388
P 6.245802687155429 7.8207887710512045 10.300727436960534 0.7001720688527555 -0.7013660891608566 -0.030007602105683803
P 2.5602081254146016 8.496158457843775 5.963849013367419 -1.3568914658385147 0.838118438323963 -1.8745627756484555
P 6.884957042542853 4.104763900798692 1.6025130000399277 1.6688611530091455 -2.5281891355311874 1.7712375957955429
Ni 5.393581767582193 3.0566501370399823 13.492467832740232 -0.11003344511102339 -1.4401851809618487 0.2842565375260782
Ni 1.5041150197338766 1.1732262181223079 7.005578396845117 -0.19750880241587276 -0.24631733927814353 -0.5118055950577831
Ni 7.0413974813843625 0.5636271638653486 9.312123242558854 -0.5340962881351834 0.1041672161382335 -0.585471814393682
Ni 2.7624119036656696 1.459358165498573 9.043966576348728 -0.2607471415502283 0.8284852861095732 1.0107973261803496
Ni 6.511632649800567 1.9903471006726785 2.677140847564734 0.14193286492278134 0.7818177068497052 -0.9308725275292483
Ni 3.96684822962386 7.024967290972213 10.331078858796399 0.4245732070016753 0.19132607064392854 0.7874769620180115
Ni 8.145783740561285 7.333078698370029 0.08398529395941116 -0.09537712865042929 -1.3315951531655712 1.4203743168835086
Ni 7.616526685281617 3.931430832410915 8.401858050963357 -0.348320972106155 0.8650386597535746 0.01716854135948656
Ni 3.028894721558972 8.453033741728882 12.392559072473643 0.33075699508046263 -0.03064857812379237 -0.18344409679269053
Ni -0.003786560439356327 5.078742324154678 10.369472187848894 0.22171033936274073 -1.5896449503892947 -0.3183982164047936
Ni 8.67677267573539 2.354295766656597 5.960146780064284 -0.14451913759271884 1.0348142579202373 -0.7814929765204347
Ni 3.686138607780965 2.585878031075085 11.30582801404258 -0.23446352526335104 -0.007753418693173743 0.2900893421577714
Ni 1.2112459688939101 3.462018841546361 12.507897739726172 -0.9233204262136033 -0.7108915121527886 0.2619679013312069
Ni 3.133269954359333 8.424707077905728 7.976664308754372 -0.21831776874142403 -0.5725687331787687 1.022711304009116
Ni 5.47739206006536 7.814260218569555 3.5426156354191165 0.6236637520823711 0.5588544689164697 0.33811369255585
Ni 3.037490648993143 8.374446291231035 3.597119981206882 0.6008251569213008 -0.2540445327190722 -0.056484822460605946
Ni 3.499938850543938 4.262482847834525 8.976178439747608 -1.7219603468269697 -0.11557777196802031 0.48904850386692555
Ni 7.204194191461479 6.190273721325404 11.416720918403787 -0.4871302037982901 -0.632569282102117 0.2557278339587661
Ni 0.47741218788477435 0.14464189371773048 0.4423221250393121 -0.43890170780920534 -0.01515793868736099 0.05452615607233835
Ni 4.634927699478589 0.3031533344853639 1.3998096061753333 -0.009759650489925128 -0.7250963428982609 0.8774645442217534
Ni 5.959108558871021 5.46044502591508 0.4853815556293871 -0.280665220630394 2.9020344771606923 -1.474302948581164
Ni 7.933877807927766 8.836967032253849 11.607333795769728 -0.7714595035438326 -0.06639102583072437 -1.377087224060099
Ni 0.09584731112120702 4.927923694394588 5.698480583112998 0.09522183401948763 -0.16970103617498514 0.42876076272046154
Ni 7.946182315868874 -0.2355365723868867 2.5862733711975845 -0.35026241210324194 -0.09589649148900903 -0.08893780078298875
P 8.611342071974866 1.6071120025658894 3.6727786505219906 0.2702093154043927 0.5924148213704185 -0.2912969893126274
P 2.071954006693289 3.473516347861265 1.303378352304379 -0.6966290886965034 -0.9951094831314474 0.46296234830283495
P 4.711973686196047 0.9918594032085022 8.205113774725069 0.7045534857499027 1.0076037589437163 0.6917028550394797
P 8.435606133576481 1.6451317533374916 12.514640283650275 0.13464301612958748 1.4896717177277505 0.8318919977982769
P 6.324970453429422 7.694162055209223 1.3821861414484824 0.3943102943520757 0.11316530587178573 0.3126669703479712
P 1.8276047951995764 3.238116693727813 5.914308180952507 -1.489598441287654 0.3318972793324929 0.37542117075705667
P 6.9265040251413454 4.166086956956179 5.906372362713703 0.02784864678115204 -1.8150857033287449 0.754130782457398
P 2.2911954934346603 8.674786907688889 10.236389458997285 0.713531777989113 -0.999911018285149 -0.09856786767358508
