# total energy = -340889.27814159193 ev
CRYSTAL
PRIMVEC
9.09105615127761 0.00000000000000 0.00000000000000
0.00000000000000 9.09105615127761 0.00000000000000
0.00000000000000 0.00000000000000 13.30567961543106
PRIMCOORD
 96 1
Ni 6.123626191000784 2.0373147280377126 11.582727102107764 1.3982836556320564 0.4874143106976122 0.0858589047473489
Ni 4.555419040713613 0.35185750192793974 5.9066435950534855 0.09221570020331216 -0.8792267783284987 0.8965303026039528
Ni 2.5938600818547 1.6240080516695636 4.8130104744557975 0.35329837071608833 0.0005306756924894087 -0.11983603302374202
Ni 3.569639480515125 4.404971155901425 4.722638105530727 0.31262454714581 -0.6155074415238239 1.0245979795088676
Ni 5.112418947327785 4.352133938756677 2.903179623916502 0.11731172393999152 -0.4293492882340799 -1.2865723085979777
Ni 7.075668842592225 6.1808543881663365 2.6347243783216037 0.6078342412492822 -0.4194847367351744 -1.2108363512172438
Ni 5.394814418106743 4.36380685458838 11.898324018298688 -0.12910717391302282 0.18867577750527506 -1.0292280220817114
Ni 5.937486820553655 8.204514350176622 12.506087472196851 -2.6291273032091627 -0.7962932747580608 0.05748086782528811
Ni 2.0493785592749942 6.438585824170054 0.2108188600174749 -0.3357066257762541 0.4615595544180373 1.384806704191544
Ni 2.7215894178635978 1.8275931584726415 0.3181651394950163 -0.2815077711363474 -0.7788480826984199 0.652481961865644
Ni 0.820945988460999 -0.015025697263737026 4.843866427434289 -0.17697494412857906 -0.25278649194225494 0.3577276101320355
Ni 8.754314140483388 2.576768896680556 1.5203863778121536 0.05859518393538941 -2.6970118828662777 -0.26272997630821204
Ni 7.392655781236938 0.6907838858815694 4.846966477511088 -1.2160387213537895 -0.10854040550526468 0.32562918693559406
Ni 0.7610559301151334 7.56420400689444 2.8420668185462103 0.15460043308812083 -1.2334188645034498 -0.8473538408793019
Ni 7.832044697107545 3.594912616038594 3.758827991125769 -0.01564490562610854 0.83262167687545 0.5142412010824692
Ni 7.713151867475918 3.747369624214338 12.690810456127952 -0.47431042632580256 0.057710981558223184 0.11593104154238099
Ni 7.996201894282823 8.856197604444363 7.3269583563542415 -0.19475412248887106 0.40623712769664877 -1.0546089240486611
Ni 6.82685573246927 0.8409935850280325 0.3069222306094503 -0.18684206673064596 0.6297852915990766 1.8705225441408109
Ni 1.8620118962754661 6.641580012336792 9.378561497018659 -0.5907510605147503 0.0025736742644471805 -0.4647433514626577
Ni 9.011918301703894 4.777395353690783 1.4957314340928562 0.21518307976718423 1.418429791562628 0.10758549779116311
Ni 6.428767483750865 2.0205417298215975 6.9946493520220265 0.09021281084067044 -0.15161486809723568 -0.18630881993499526
Ni 3.547730035690823 4.345342919966738 0.4449935518598934 -0.05182109843634946 0.8095586244083993 -0.8959062958667087
Ni 6.098916700945824 5.6530276800754775 4.6315475431861035 0.24081646406457233 -0.400499196771607 1.3251735659099435
Ni 5.2358936691550335 2.8468823508795844 9.361636678168283 -0.6181091408127289 1.2229436760037389 -0.06802393344845703
P -0.05440178787265776 5.5096253636196515 12.391406528783937 1.28907990551118 0.6738367733923363 0.6759044545546424
P 4.159230822687439 6.051825031157491 12.448327448258592 -0.6461740173697452 0.7630316844914535 -0.3903060582886891
P 2.465121638636053 8.251187831391544 1.557416066882007 -0.2714925529921905 -0.9107364189010057 -2.150639605577219
P 6.482713809720744 8.019984096631525 5.84531805897411 0.16440482077305235 -0.879463319819337 1.4343328359461296
P 4.585010427810336 0.9638882974860733 12.800209496037581 0.1681077235459363 0.6799464858344999 -0.2727734765871431
P 3.8564895687064937 6.135844570189109 8.326374500468269 0.03435070956572794 0.500126616057958 -0.25912297568324405
P 4.533291410546662 0.8530619617932859 3.75020603366877 -0.26989949747345776 -0.0099977346426602 -1.0606828981568828
P 0.017795742009780513 5.494816033487375 3.629882271831606 -0.44325407124063015 1.0977841738845546 -0.10442638333689112
Ni 1.542661283085392 0.8723095454372743 2.45868971655589 -0.34480550275372873 1.4151809456080273 0.8212394031804372
Ni 1.8063655428441168 6.135444563727587 4.672555478336918 0.2899098791571136 0.17777507143237126 0.2762920312633629
Ni 5.70944677326204 5.6710734261237095 9.312099514331095 0.6175203581887945 -1.260951779816396 0.6941590298894561
Ni 8.715449876324097 2.608487590868103 10.5198962972585 -0.6778042426805165 -1.587826409123317 -0.4970898861141632
Ni 2.21549942453411 5.321195047074712 7.0416719297851875 0.46975983084064254 -0.232599989692051 0.04043188276280134
Ni 0.479286833090695 9.458243693259538 9.362661240173138 -0.03221643683154452 -0.24208273237150563 -0.4180896561598606
Ni 1.311775735283402 1.1400275063951397 11.509692285972912 0.3871441156209397 0.4519006911720347 0.3277729727514742
Ni 4.436408027354718 6.725199544906887 1.280336136513326 -0.9711583716324889 1.2313974631980469 0.5763986484478202
Ni 5.650091269005665 7.7168610183009445 8.248842338958072 0.665798219358576 1.356717916375128 -0.5950401748084075
Ni 5.1326374557465595 2.5452320236118826 4.726629988195603 0.9463449121332347 1.2372531506478757 1.217800698350219
Ni 0.5743210955036919 7.163333895057264 6.6369790289236885 0.4462743461241927 1.0475695007033765 0.535260997867246
Ni 5.050736132749822 4.459408398892263 7.03185177115481 0.7076298106823813 0.6461351937120098 0.09171459219717752
Ni 8.314097938521906 7.504221219777948 9.181118307611138 -0.9203086359704732 -1.1791999552588852 0.8347358950049752
Ni 4.573146599803815 0.5967078207650377 10.586796468842548 -0.4208939583778751 -0.39453860831279797 -0.1900034951777631
Ni 8.127558561613252 7.331618431630979 4.498224480455052 0.03868044728933338 -0.24152428876487436 0.789405289388976
Ni 6.910175260193223 6.024824595004721 6.885822139531257 0.7221197767684402 1.3979805225693407 0.06925909140713879
Ni 2.7720175051832663 5.41707841411285 2.4429358257110625 -2.0241726975005205 -0.25590755406974 -0.19825159411916823
Ni 2.1265070779012922 5.323349627333368 11.51207414263016 0.4513034239076679 -0.8110064125985195 -1.2060291596365875
Ni 1.4042045010629363 3.6785776038884075 3.6658210341882156 -1.1923668316581464 -0.45656132987249765 -1.2165624550677434
Ni 3.635367814988031 2.4413303452314064 2.515757911136833 -0.5623007755938574 0.17158616901283996 0.5674208704292422
Ni 0.9971342890721614 3.4482102462752073 8.311233346794047 -0.14104249189802806 -0.5456901636203699 -0.16292566512436457
Ni 3.721414659495092 2.6999345226057185 7.074549733605556 -1.254799129951439 -1.582903775010719 -0.3079235421257149
Ni 4.283441920046127 6.602897569296375 5.971110090961406 1.5059180043832838 -0.18829551134772088 0.9522471365502828
Ni 0.7568504076355806 7.615904842046226 11.585933517539106 0.00639253378990512 -1.1603913071928145 -0.1410751449081764
P -0.051035369856707966 5.7016011919826335 8.267617187692988 0.8923412042232697 0.1493093598925106 -1.233673146606101
P 8.517628498989321 1.7551465336573462 8.0708794642267 0.21975578673953122 0.5862138347660291 -0.1413600231384469
P 1.8844940776242207 3.1495872406367553 10.52732005354212 -1.1822845077214799 0.7921334869534165 -1.1320891178140118
P 4.204649738182133 6.201891091620044 3.6750420922319047 0.8280695387283932 0.9970645499752891 0.48501778544097757
P 6.835574055119273 3.9836643503028255 10.269044063287376 0.4416576732877877 -0.1724963395319352 0.6366833042704906
P 6.239073510429751 8.071775842342749 10.419943773579964 0.2820597869850755 -0.06030033955195422 -2.3691391513121456
P 2.749553505946399 7.896282098405685 5.783952522248582 -3.6039844638494767 2.2255522957257092 1.8389015748014204
P 6.803709904036626 3.82780728720414 1.704989359804799 0.981064317892291 0.49597299890090063 -1.1362543049352947
Ni 5.132337450900418 2.7779448736585546 0.6655225687308276 1.1523936336993186 -0.6094779475002923 -0.45507086136990016
Ni 1.7821651519220039 0.8370107934191003 7.14536269566777 -0.9853200078448514 0.0019617517120611373 -1.3415409515243735
Ni 6.810182735868536 0.936233305305357 9.390389869906997 0.4835342589169156 -0.3493985214410499 -0.5973037740316035
Ni 2.630233396685419 1.4786875224096192 9.209951500642159 1.1500356749901033 0.7997498658480936 0.5124146893966917
Ni 6.445085929169795 1.867684715184331 2.6328616209587405 -0.22355870542538914 -0.6854720436384194 0.36805958818566287
Ni 4.07769314192845 7.380773771118531 10.428192997743272 0.37677279968894467 -1.9971321484429603 0.3663400343913949
Ni 8.591738787042313 6.931202872590987 0.6312838338356883 -0.6150184177025473 1.2979252717169518 -0.28074518193871
Ni 7.64155980191933 4.0033283043090355 7.9435701350024015 -0.1287366779474815 -0.7771357279930035 1.249622470846506
Ni 2.8320730207473073 8.560838287889696 12.51844858096349 1.586395075993429 -0.05513036531524054 0.7551221998363898
Ni -0.17856561174043822 4.842350948408474 10.297371793607924 0.19919133232461825 1.5151554638211517 -0.3249650709890339
Ni 8.94656270052468 2.3167465145790276 5.912165502433684 0.3174669628397758 0.21828588706222404 -0.08640783527228345
Ni 3.64055880793188 2.7596991243795617 11.594222742348565 0.46291863954909307 0.08256120783268361 -0.1912707919259609
Ni 1.0884630370825088 3.3487995495309164 12.637574141627276 -0.8349248710873298 0.4743705901397766 -0.07349755496851859
Ni 3.3427812704961912 8.362753269932554 8.084504229769514 -0.19305179508578366 0.07142807403399956 -0.13480808095254201
Ni 5.659573240354937 8.056748326867822 3.8260218038167984 -0.4015713467898632 -0.191768814608302 -0.9718224875790489
Ni 2.9226108468905534 8.23636031914738 3.65855637138361 1.8561361935121519 0.3841490375483577 0.4004169214704459
Ni 3.2035790218863522 4.20338608140596 9.055512642270688 0.13873749791393525 -0.06365717183932908 0.6448797240383538
Ni 7.17897960233636 6.488432083909327 11.450761334029107 1.063146786316343 -1.7809944180719905 0.019792095025262687
Ni 0.7015795148147058 9.183057429843927 13.62887470010037 -0.7198430649191215 -0.2330324492437793 0.1368971022710868
Ni 4.704139624896499 0.10967813532709884 1.5676216862843977 -0.47207356657548377 0.33638693967273037 0.3212151170282984
Ni 6.164590489083068 5.586617516406795 0.41262939270034366 1.4090928304324184 -0.38170366133165873 -0.19567946251661783
Ni 8.037011644414063 9.018172948193154 11.256045461404696 -0.2875130967901629 0.05896336590808555 0.3074967390009414
Ni 0.00016091169020337933 4.890551727021939 6.090249288209106 -0.30470709207094626 -0.7939265742980972 -1.0882731490703257
Ni 8.00252017816369 8.910253023085566 2.291703382770934 0.1266599979241109 0.45231746699447906 0.5163039971487688
P 8.809269573663016 1.6098441865092887 3.5764332266218473 0.6305915895504559 -0.4228048022473428 -0.4228019740338654
P 1.812829283620083 3.5933216812484474 1.3910951983921298 0.09106564575926897 -0.7256614713731115 0.7781214889450405
P 4.888815335336694 1.0365440165880737 8.333999169088244 -1.3055748178424096 -0.7503242642271142 -1.7258794793757182
P 8.396772001273856 1.5777436679721064 12.540137113128361 1.5963863828781861 1.5493457365496155 -0.02459465862022861
P 6.477786457399262 7.81999904798215 1.2374836261115365 0.5085446649183242 -0.882732477488912 0.8488849328118478
P 1.8608755142825044 3.4620195602536783 5.722506984230751 0.17087525898874442 0.008659732557527023 2.5176255010827284
P 6.9338574609265455 3.891535589369433 5.78769076445263 -0.5948108324064207 0.20021668826533906 0.5690257530225169
P 2.375420189639627 8.68756760774479 10.398747976647241 -0.5902507238395641 -0.42857872861664253 -1.3714963602358834
