# total energy = -381166.5752500108 ev
CRYSTAL
PRIMVEC
9.27986260941242 0.00000000000000 0.00000000000000
0.00000000000000 9.27986260941242 0.00000000000000
0.00000000000000 0.00000000000000 13.58201695176148
PRIMCOORD
 96 1
Ni 8.207054863867102 6.697369685684803 7.758753978267974 0.847447943255005 -0.37405514364746545 0.144913287707344
Ni 3.2861478483268347 6.938015084375661 2.9219262304393614 0.6503158074522607 0.5882239232175225 -1.0591659472917243
Ni 6.868564592172885 9.02660593533799 2.1275282267284457 1.0883171149343838 -1.1493785010220787 0.07953630496343077
Ni 2.2073545333796343 1.6146033054998532 6.122528592753094 -0.24297670494068477 -0.17727833430161083 -0.07148823784797366
Ni 0.39098474182023746 7.936277751095218 3.5018239205385355 0.055143477941363095 -0.4967301887818994 2.3110921265707423
Ni 2.9200851056861503 3.9851349440229407 11.586573906394454 1.0364489653101827 -1.3084171723872113 2.388508299867377
Ni 7.394974081843468 2.570614757494766 7.019539605894983 -0.7504831584024817 1.40546860341627 -0.13930931125700524
Ni 3.712798814322934 5.93566927808245 7.310995964634888 0.520313118308162 0.4883730750664557 -1.187675082609432
Ni 5.036200029319969 7.345224738083569 4.626429133515859 -0.7318706855076169 -1.0838799050986367 0.18062102552159862
Ni 3.498665983272821 2.410527846619555 9.895680849905956 -0.05663240378206376 0.22080479682933588 -0.05939556834949771
Ni -0.0900926187201263 2.4656131114132047 4.7453533575573115 1.5021307694267096 -0.4518173874296089 0.29823793940683474
Ni 7.220299226855114 5.825684345748499 3.7862183037885537 -0.05781768233941655 0.16334809737376382 0.3853589986960589
Ni 6.792646035690936 5.859852800089843 9.433307980557991 -0.15452355710359839 2.3044165143227797 1.2344035970142224
Ni 5.2477623384112135 4.03285199785868 1.2919239208292348 -1.579580109954125 -0.8223488341945321 -1.882387671009513
Ni 4.418021977731528 1.7871159524867046 7.228689150692705 -2.377075889660719 -0.47356866306377154 -0.8045768549230916
Ni 5.0874991101453215 7.28686368176833 9.287695799471381 -1.25169426577387 0.9408406944855539 0.39080896606703663
Ni 8.151199370472058 9.197067732675347 11.10143846190964 0.6096137017472082 -0.3042556063558243 -0.9606921819938422
Ni 0.6544576746866165 3.2107118447035905 8.447253901163657 -1.5021551949067418 1.659341129333852 -0.1057186197857534
Ni 4.735866553952434 2.0205694576103315 12.518843757741108 -0.2731658269295553 -0.09661717170511748 -1.876261503507117
Ni 7.528251469472578 4.049954784754687 1.8926678944244424 1.0088162911945786 1.1308056231158978 -0.8621379411670119
Ni 1.115513731522078 1.5669419308401185 0.5035680357010595 -0.40374032941672405 -1.1315535570255157 -0.49431103781744545
Ni 8.962045930760931 7.334784892582752 11.8798231346017 0.2466909205674784 -0.44656308100920505 0.562285863195522
Ni 6.301602102645792 7.005656003358295 11.40151952501262 -0.3306999165902821 0.7686225483156699 0.610652941645
Ni 2.1472210232949225 7.913143053465404 12.748963936194606 -1.6512223568814592 0.6565833856285272 -0.09523366109402953
P 8.709828543323832 6.127047885872114 0.047019208163151076 -0.4549752163323003 -0.6615024201966995 -1.7518489068562861
Ni 8.88228551113468 8.763419750228032 0.21549789884848633 -0.6699839753051494 0.6341793069017143 0.2796555484189571
P 4.2019960546972674 4.9188932853414435 8.997162787066882 1.8722829784753434 -1.3322651826494023 1.9528232992232564
Ni 3.2341063784880903 6.510371173074152 11.235492574044011 1.4159232230906904 -0.42282048597662664 0.30930062497889954
P 5.090023232790853 5.309566223776056 5.4028724589379005 0.31407927731446555 0.2613055851568596 0.8765803418445872
P 0.8274268909167036 0.19176836202169356 5.061610149275826 -0.26901992308198186 0.5155619767764218 0.05477375330677019
P 8.564023341093742 4.539866574554409 7.099822481789407 0.17867187221502775 0.0324231535257119 -0.11919068613025924
Ni 8.510209417485525 6.702659207405219 1.9576436368490004 -0.8307704825993241 0.4447609948034598 0.9042238145934685
Ni 1.3061963496116864 1.0243390808149335 11.432418683736241 0.3939282284223087 2.044322690085834 0.39783887633062454
Ni 1.4647520831467777 5.687711347609688 3.3995793216554566 -1.7117854631764973 -0.44050890439532525 0.3283638122579377
Ni 7.959171172295679 5.119180561291804 11.416798818894483 -0.07811088537081387 -0.5468178494669099 0.7578568251587335
Ni 2.195160793834679 2.693443019760391 3.9104524652482886 0.48735671798679936 -0.5921589966058706 -0.06071711537439866
Ni 1.2361055468848607 7.592143323937585 6.9982154094715785 1.0626330799047183 1.7164509869729663 -1.7614995425721727
Ni 5.370284365208813 1.4998021244415243 1.1693489988144297 0.22147482631316698 0.3525725482936573 0.3635035933838643
Ni 1.6483912854718343 1.299728285332513 8.768686072291779 0.5813367091793858 -0.9929392149530061 0.5834031047901113
Ni 5.135318242470402 9.39780972189641 5.81254684417027 0.4516512941653899 0.02817337711042245 0.2908169643524153
Ni 1.210855040566882 5.724635921163247 7.940577111469022 -0.9348441105824867 -2.6793301493157986 -2.1731758390065217
Ni 5.45105628986581 4.454807353345077 11.031518408655893 -0.1659613666268948 -0.192952550503758 -0.6363477753079427
Ni 2.9239362486931184 0.7390501188037784 2.3092687691517537 -0.3928033707892461 0.6595434966981157 1.662430309782137
Ni 6.229840924638835 4.868754187349514 7.507175045382393 -0.6983147039290425 -0.9847003719829815 -1.8663118484935728
Ni 0.16135546810184376 0.84256605887229 2.8431374124343876 -0.21053272547936647 0.8806935926820122 -0.6135487751355563
Ni 6.456019017431226 7.5194355999385545 0.19198551080811058 1.343881426732092 1.2727310318395113 -0.019606461377017846
Ni 5.621917121297865 6.4429808103835375 2.13911320728242 0.03034493084044451 -0.41225402331469 -0.0332199383953944
Ni 3.5308949463166797 0.36093747448948293 0.22679891560483856 -0.665984367227453 -1.2512875172537548 -2.0774765511299833
Ni 6.4518709188189 5.27690110718683 13.465510388029953 0.6505978574690537 2.085348240568576 -0.5644358196589893
Ni 3.6946288432201766 0.223703153418996 8.87162387691611 0.878841627074938 0.9463163728881444 2.561455096673169
Ni 7.214434353649321 7.990834063716826 4.593016987981907 0.8061516556093795 0.6894454264638707 0.08605945079392921
Ni 5.1111905995351785 0.4648320329548241 3.529395320509629 -0.3660289309088793 -0.5861498142973132 0.21530469294671306
Ni 7.187151557407183 3.578482082075076 4.751016857743222 -0.11166043919148512 1.0436205433579575 2.452912377175059
Ni 3.1762557146195576 2.731648214362051 0.5822417834089577 -0.32531654079118166 -0.11070630280833192 0.7671235951726402
Ni 5.541479271696895 2.811455033301638 8.709169673074447 0.8769431245006446 1.342923690804513 2.1598508397628415
Ni 3.20334363374568 4.370768917029159 2.634354422212027 -0.14068716544113835 0.3921500534759634 -1.2217514554678508
P 0.768537810415689 3.2888946876763834 10.643711091812971 -0.14266151555868978 -0.5418980435677894 1.2056555783472527
Ni -0.06994325291041406 1.3394832169996282 7.1469252087165644 1.816693671245813 0.634992803941945 -0.8670441202193777
P 8.933816588526717 4.445425412188342 3.713961581115158 0.5767704299649421 -0.21539416733672578 -0.4847997558929006
Ni 9.115432780790282 6.060891744916264 5.326256056783365 -0.8469468352488705 1.568937542638614 0.7128285812745013
P 7.650355902450147 1.6144455478345074 1.369828367922006 2.2933898241949726 -0.44549633030758756 -2.867151549240578
P 4.388075860903848 8.991899248961936 11.839864973942168 0.6817231181189485 -0.2352448835140658 0.25704886676303473
P 3.3176437022199696 4.748552126218762 0.053630182327402444 0.08259128973967066 1.5194420070116477 0.017282441229531525
Ni 2.9134964031923007 8.632332410188427 4.544366379961828 -0.4804584482050693 1.012640035816043 0.5360598396194574
Ni 6.00300396159706 7.198213153706716 7.192615540545745 -0.32537310506073 1.3602115313506833 -1.5367848691654695
Ni 4.014579948266581 3.3851268635372573 5.716996738215449 0.2527096159577325 0.915843401110268 -2.010083566397306
Ni 2.5536140490881003 6.428764060777089 5.372244272204168 0.29297720522852766 0.03988012402438938 -0.7129933889871398
Ni 1.198457144043244 5.465282319334925 12.113936437960977 0.22427295788359441 0.5795708755282148 -0.7060889485578227
Ni 5.840597085055001 0.4719079282387119 10.209574988589354 -0.819701626379672 -0.18647028521352402 1.1624592454654366
Ni 6.751109370391681 3.2542807999270043 12.829247740075298 -0.13269823369839082 -1.7879369108280951 0.2724986256592017
Ni 0.6323780974420863 3.285303380824102 1.938072406483467 0.295883066021413 0.6641038623752885 1.3357719102510803
Ni 8.261453418823365 1.3092772640172612 9.264728139369582 -0.05749552311330743 1.3900684668111156 -0.3187957089535284
Ni 6.635166766225263 0.3851876116119165 12.64286169840069 -0.9899793609937337 0.5999512389567797 1.0031004717567238
Ni 6.784665353796978 2.2547467920220146 3.038840436227056 -1.5300390658012037 -1.0291424043464406 1.3936083616435742
Ni 1.2260461757534058 4.335273442326377 5.512112218299661 1.111757348235195 -1.4280236058986502 0.8472869921971086
Ni 2.7064905066707468 3.6924202359053373 7.564504180969019 0.889276706365333 -0.5560833339292358 0.22104570919554836
Ni 0.242624793397812 6.198372910333703 9.923768210241358 -0.13111417704072256 0.2554601821196762 0.024977752991260208
Ni 5.47377339367559 4.3067285847614745 3.443217875848876 -0.9889671176791355 0.939169477430718 1.8819968633289974
Ni 8.566213388683245 8.700854916124463 6.575339491608575 -1.6630977681628067 -1.2555568340530698 -1.613878883235995
Ni 4.1250010341459005 7.075245693501081 0.05697186087393097 -0.16390011322249193 -1.4338582103025563 -0.39624864902536916
Ni 7.405311848854945 1.086319283570457 4.937918859782134 -0.9076282122893272 -1.1523946621405832 0.7696790146046422
Ni 0.3506674504754782 8.551180011162067 8.864697387421169 -0.5356440922382776 0.0701882880896275 0.618314829065632
Ni 3.4706036785666226 8.384829192986366 7.171549324304494 0.1450924935976856 -1.261585042525021 -2.7033100571701634
Ni 2.660982060149847 7.163302310351981 9.122687777423652 -1.0589885411735955 1.0615498741428686 0.2952909409633689
Ni -0.016088497906460688 3.971530665352541 13.333507125545077 -0.7035055041013626 -0.6050476796430805 0.6035872930474702
Ni 7.659552246353534 3.9692292594110277 9.28082313317991 1.4805083060609276 -2.6753457107467535 -0.16406080717007226
Ni 1.4471203440787292 8.241371796011125 1.5854014336580984 0.8493670146545889 -0.0326398975222083 -0.947307276046504
Ni 2.1879689002674487 4.720090787417865 9.685024255411049 -0.3260734735618642 0.6347814592620874 0.06583078245188018
P 7.3754863702419415 8.540174094038539 8.9620802662528 0.014782300515497124 -1.6263662170697282 0.2400145369885673
Ni 1.399468249281662 5.630380356050528 0.9853209702436095 1.1151198369495248 0.15783128132059268 0.15114667021156547
P 6.911159161816223 2.365696830073375 10.706826221772717 -0.964474788964726 0.7315996912344175 0.5628381361545662
Ni 8.598275314199093 2.0618091673042294 12.129732620193415 0.7250122678248868 -0.2160261444937699 -0.37938606894207566
P 4.753915886840516 8.415916732922135 1.592491248735987 0.17161753647140765 0.6631975485109352 1.1637761645046474
P 4.389625597969303 2.4847853076840405 3.235507637750867 -1.1399086138584305 -0.5127296495339492 -0.34621935238211987
P 1.4287462159972895 8.434829093038285 10.742465534346843 0.2931551255672886 -2.5542405812026012 -0.8748512749686225
Ni 6.192749313557262 0.6705870039888137 7.931531101340846 0.8550362971252242 -1.194433741489504 -1.506307783622535
