# total energy = -381174.31913923804 ev
CRYSTAL
PRIMVEC
9.18460680015318 0.00000000000000 0.00000000000000
0.00000000000000 9.18460680015318 0.00000000000000
0.00000000000000 0.00000000000000 13.44260044630264
PRIMCOORD
 96 1
Ni 0.6553207579166612 5.439665882684683 13.34817880081083 -0.039697575699938085 -1.373739390633789 -0.9510397465057426
Ni 5.609728057314008 1.4184890027058903 3.6923055106486284 -0.8117026673345956 -0.14792122129573235 -0.20753713318615225
Ni 6.174030282914881 7.545879853628564 1.24065940632867 0.004723116507282188 -1.1382088575585043 0.4607203463461937
Ni 3.5307005217180873 7.9698780297782825 1.7548100063977878 1.6849603725638527 -1.485649483942235 -2.406431717115017
Ni 7.4010477931549286 4.854551338672165 1.3357503931827313 -1.8767703248227354 0.2968629134361791 -0.15357713402992906
Ni 4.941198916737246 3.3868420295373185 2.334294386603449 -0.6141349866563294 0.934012615820127 0.10668535457439692
Ni 2.2302428976124054 0.5564778592924512 12.21422890860486 0.10295057012231301 -0.8406075232944038 -0.2752502202624098
Ni 2.1032565276391364 0.4356249695642384 6.327593230362087 -0.29130238862926605 -1.012099847041857 0.8055027091714708
Ni 7.910398517848086 1.8036546624194023 11.8309268055576 1.5647692701935374 -0.3879912941125834 -0.009136672193945556
Ni 1.1657102616090935 8.833809674418498 10.290108946853085 -0.559946673539384 -1.4785923199851374 -0.09506525383696532
Ni 6.327909180826943 6.635777191929502 8.544425683970589 -1.1445350568868482 1.518186794448308 0.8808476017613734
Ni 2.503677818809729 3.6229690789834903 3.1127283659169493 0.37826661062565176 0.5248719413234381 0.009346474211906484
Ni 0.0948668824545711 7.4807426240719 0.7953097753636147 -1.6702189525886202 0.3319960096938863 -0.6566378930155465
Ni 7.3134725698296625 -0.053696883654832994 6.979815102033343 -0.7171210380022682 0.741086290568614 -0.0777586442377177
Ni 5.9912474282325405 2.8991577916636997 10.852507203518945 0.3070889620395615 -0.5840111706877555 -1.9361489238913685
Ni 4.316443610913312 5.786954225041783 10.26365360618543 0.01456401385710395 -0.4532800880180645 1.3966466342492656
Ni 0.45365251527402667 4.577295621155669 2.1016565691804825 0.19058482160252985 0.5944465070884666 1.8591528688512886
Ni 4.439921461189648 8.267973619526034 12.97107355179373 -0.09411831654266371 0.12596631429119595 -0.4134351881069847
Ni 8.756163010759158 3.2586341068946982 0.4574788223571212 -0.313354483333299 -1.6828690372524628 -0.4586920030622552
Ni 3.4277135286246208 2.2610756217553436 4.59645471039075 0.9722996843257835 -0.2078328100497001 0.5592799864896626
Ni 2.0365119919385903 4.3976630865153385 10.917125502806298 1.6813351171064401 1.0153067840149288 0.8141678410456366
Ni 2.8578729852822558 0.44090060755878824 9.032096144934403 -0.29362178079106205 0.7679977702474773 -1.0953681082438942
Ni 4.817987420050468 5.934459006017532 2.355103031172481 -0.00904462670077152 -1.7672282175258338 -1.7611074493400767
Ni 4.9361198293225765 7.540258874428243 3.898945380809456 0.35893911394163347 1.5855376130891403 1.0827049109539288
P 7.754609221776438 6.8966108329587845 6.956465076835668 1.1950847448099418 0.5660939240877024 -0.5374351227004293
Ni 7.742329402837175 0.7557259581127254 9.402682160231919 -0.9629593807614641 -0.14648243196667676 1.245531331496268
P 8.055193839895576 2.991839656223244 9.469572731176395 0.5354281195727295 0.42282974194800726 0.9065090110832195
Ni 3.4792116174746224 2.4086814334029936 0.8445539617695658 0.5863930406563708 -0.7257941402962339 -0.6666327994447293
P 3.884978349649442 0.17886837537649522 4.96968864775273 -0.27686692993022644 -1.1560433146367637 -0.8799834539888651
P 4.2492765833120885 1.240123943767594 12.347014439145257 0.64148098276945 0.8096676391824379 0.07153400348424455
P 6.7430717654885735 8.887870268492174 3.1135751866396117 0.19111086930932894 -1.1060754673590694 -0.9877137048880085
Ni 0.22025880473310866 1.454033430002039 7.956634745613343 0.7492639412834 -0.13624455628875246 -0.26508999189995636
Ni 5.263514313921677 1.5059631953592547 5.966592270446035 1.367913270870315 1.6721740194324624 1.2501261499558018
Ni 8.62815714946034 5.630531191119119 4.808014774273166 -0.43669210175239626 0.012758842327565124 0.590304459895635
Ni 6.054400782777327 7.185824908185768 11.20651775940009 -1.1176791130362687 0.13639445160305544 0.3383479200538431
Ni 8.501979024862282 5.403579563602883 8.692630331964416 -0.37276702096366127 0.5035261286578102 -0.59708882980732
Ni 9.1737962545791 3.8700809178472837 11.392495938696468 -1.9347307033876031 -0.8283937548370315 -0.24188604297966732
Ni 0.12444958164789548 8.496413153301178 3.0171515133771085 0.803039592342959 -0.6385316703331391 1.4450101131543178
Ni 4.321807421130612 5.213201039314881 6.824848746707364 -0.41692520353811424 -2.144809629159003 -0.008769004441881672
Ni 7.479796609598644 7.829032088541476 4.911348027033057 -0.05689311364261815 0.21579243121640898 -0.6591190075661874
Ni 4.266020121028078 3.694627379181049 12.18508523360398 -0.22380604554950487 0.08510377174887925 0.9193262174525457
Ni 3.18741666781089 0.9574033853618964 2.5963982587167265 1.1277408681476448 0.6454335396592948 1.1367338156748745
Ni 6.930768384667926 2.3704826548178044 7.733043765628801 0.4746408130820277 0.5790540837927962 -0.7478778595691508
Ni 4.261363525514087 9.059998979592207 7.181117797335825 0.2191826878448806 -1.4615947569858763 -0.10747828278933748
Ni 1.350357591418337 0.9334040084820937 4.266936744760418 -0.9795154853479325 0.582024736385346 -0.2775346454212123
Ni 1.0758480712562462 2.1096765676081306 2.189019628094756 -0.9915767873878407 0.016129301461694803 -0.9063339189579359
Ni 3.5171624116833264 2.7058861163167083 10.126498958315631 -0.4110034387370406 -0.043865076814066394 -0.1280450511970956
Ni 0.987133956720458 3.8631006168795645 8.670019667592928 0.35601422698535456 -1.0862409491316454 0.28925579051288247
Ni 3.410639345073318 5.878138998735882 12.632468336456212 0.7947277300431539 0.23237476105512236 0.19545834764474726
Ni 1.6808472884202281 0.03881506568378656 1.2237606487622144 -1.1793717049500594 0.10758318379831795 -1.3181950777095812
Ni 8.939184665211446 3.550989317557155 6.6886750148156615 -0.006032065126692837 -0.6980128564179076 0.028953964030188843
Ni 5.3598424672762 4.319694961627223 8.757840119912718 -0.33285141571564614 -1.1703646163554424 -0.02619722722065811
Ni 3.7229159673133845 6.884735136707126 8.310215461908578 -0.3957112884646604 1.1686869715427033 -0.15387923865138015
Ni 5.321404888921063 0.47617041511949637 1.4188398546755836 -0.18977775232020222 0.981417844576968 0.2832352953504154
Ni 4.863423668586397 1.789400153074797 8.501571228332063 0.16289301211421622 -0.16186997016634058 -0.09592811605789285
Ni 6.123248593374725 0.29969646666705957 11.246119945864052 -2.3625494139097696 1.3907762915114177 -2.2766869096179954
P 8.648877621806623 1.4949324829089512 5.888073987626384 0.14619986772925145 -0.16564023584205023 0.05107316452673139
Ni 5.585122496402799 7.038182358111972 6.323304937570208 -0.2871480001412603 1.351177446172873 -0.43725105957965993
P 5.105300281724401 3.7399901508646867 5.375117386407008 0.7735230709410806 -1.7409057775812211 1.3148367027603096
Ni 8.974600508016085 8.152366977051454 8.370478420776335 0.1694794070824823 -0.8144000116611007 0.4119642599884131
P 5.396314539832534 4.9096865317106095 0.2838566942342591 -1.0610186842297469 0.2988004967785241 0.676237412414029
P 7.773088650127821 4.321366560016862 3.377547207722408 0.4405636688926606 -0.04215889275623707 -1.6057737376303571
P 9.444806439650796 6.00249857123972 11.1427462808354 -0.4304726032052457 1.0993278642225905 0.26828587312943475
Ni 1.6669050556978628 5.7682727353465975 4.142082121964264 0.07587094029670159 -0.3290135300267947 -0.7812402370796804
Ni 7.102217434884259 4.15254430726996 12.505126522209979 -0.8150121913238029 0.07428688363903335 -0.21664526613500754
Ni 0.7993941698903839 5.572851862070071 6.61377271158942 1.1943319258043172 1.6530658378481016 1.1034601412234093
Ni 6.92346662247143 4.970314119457864 6.82353075566938 -0.5404325147658563 -1.3371268816170776 -0.05560267696596876
Ni 2.4067434814237982 2.3978711515095656 7.365187415393925 1.0176590862971893 0.2759307912692022 1.617972336579078
Ni 0.6931282722633968 7.768615746744559 5.174823160902229 0.13196829751090178 -0.2790009455540937 1.5657606875725292
Ni 7.214692126529901 3.164409228437026 4.996480145019621 -1.2488591103179203 -0.22708291652856377 1.3462959497108555
Ni 3.5896932495018503 8.171057651353175 10.633176962506674 0.6883578498266467 -0.5956639244353354 0.5852841238629082
Ni 3.0689352434903947 6.9058229933148665 5.785265175899726 -0.6020181487881373 1.1942542784888464 0.31971076456863
Ni 8.208218569399744 8.027437958942354 11.082455768148034 1.016711120561623 -0.2577294377698271 0.12992658449052463
Ni 1.6202288852795095 7.343634817695439 12.380312311682586 0.2770618195498519 1.0313700081253787 -1.0372796887415943
Ni 6.894415711996568 5.267500433158506 10.302529290272357 0.2119943976265575 -1.2922840142707743 1.574109830868173
Ni 1.5525934427449257 2.575088134630803 13.060185359792545 -0.3259968546876579 0.8199613077989619 -0.762792571897454
Ni 2.5434012420799728 4.606585331400479 1.1028820421356995 1.0292079674770533 0.8893260715460296 -0.929688020302844
Ni 6.248728687876012 5.562032395570107 4.536003467088995 0.21078932157486277 -0.4890312774757449 -0.9790539723304816
Ni 2.272721702843591 3.8290440958423244 5.705079886993706 -0.14380179981072008 1.9430340810469762 0.4187373170461885
Ni 3.9738945255290328 5.0652737664384535 4.382731671668996 -1.3462704957895588 1.2188954740762943 -1.0409998179056588
Ni 8.260772888001439 0.36002647316253306 1.4348091300605483 -0.7457366448564318 2.0300288991709814 0.23985769969572887
Ni 1.1605301435225228 1.8725024730168005 10.358612334705363 -0.1639790460895434 1.3561754136080968 -0.031210364164533346
Ni 8.041343453238575 1.390356552884675 3.7750184032734855 1.42691520332582 -1.5314889108738527 0.38748555812075847
Ni 6.0525638614700314 2.184420895601944 -0.14770959770151215 -0.6369350152699804 -0.3465782783834354 0.06732099384416149
Ni 6.964411598411025 2.3966220450206053 2.043275536192049 1.0587448005939057 0.8917472793930126 -0.629690160782109
Ni 2.499186546213394 8.037513472312865 3.603880711218739 -0.6208514794445565 0.11064022545708688 2.4080394279217687
Ni 0.5458384110806015 3.280282224501164 4.361156112454168 -1.3192654279556246 0.06186948381128699 -0.5951674444148912
Ni 7.609418961647881 6.368725572275025 12.908955302405603 -0.3880373168591704 0.6804406518620991 -0.6761582224366613
P 2.9155247605116936 4.7404142332434205 8.935551234865617 1.9588435372754072 -0.815368289111641 -0.9575870607059573
Ni 1.4729720886802453 6.332354530390594 9.272141347529034 -0.07054155766398819 1.0000444585392196 0.3855073513484651
P 5.319512859974551 8.868325425782562 9.083971721113052 0.1292143889148484 -0.5212497711898184 1.000534767912077
Ni 7.0103070772737786 8.895704737867785 13.099006854700907 0.7255753394172085 -0.510522100359669 0.06692452973669119
P 1.5270326827539227 6.7634248535733965 2.0726469894350346 1.1098385339459274 -1.02942933945924 0.4336818541711628
P 0.052790362989683155 0.3118642334065784 12.955050087230198 0.7294857302152081 0.07642038504226838 -1.0870176793966697
P 1.6679612854495571 7.738995390664436 7.432292906131354 1.1562839698926601 -0.38815995847996376 -0.34837702215507094
Ni 7.855116371105058 6.6608419831675345 2.7190752113030827 -0.31436158444157475 0.1562981325055179 0.5022081811773351
