# total energy = -381167.28552304907 ev
CRYSTAL
PRIMVEC
9.22436453613326 0.00000000000000 0.00000000000000
0.00000000000000 9.22436453613326 0.00000000000000
0.00000000000000 0.00000000000000 13.50078991168529
PRIMCOORD
 96 1
Ni 6.4218366506009055 8.554039321669318 3.4186703890258845 0.19256508525735222 -0.4463692198308442 -0.04699642335419648
Ni 1.4180523576596733 7.684338546687194 7.534358678943148 -0.6149772800519667 1.142796991149819 1.489288366246403
Ni 9.458571297677421 2.688782387039174 3.717280599961513 0.938693566235564 -0.21968019630658941 1.7461269167708444
Ni 9.453497897104251 6.045805424482239 6.513766668986743 -1.4612666842224964 0.5689018258501427 0.05714585308337255
Ni 5.501447991710476 6.69412144718059 10.078272418706627 0.8923013521242696 2.366378043627241 -1.402525718737862
Ni 7.360452654096033 0.9276205607983664 13.11196763762158 -2.4033137403113254 -0.9758321229590742 -0.8010233332438786
Ni 5.011136111589989 1.055691639994529 7.789564564320606 -1.3623794855362794 0.4328056222137966 0.6164860033870092
Ni 7.601227020933994 2.829094198163694 6.243466955685871 0.3414162745665217 -0.033591205691884084 -1.4774751756615585
Ni 2.7926118358602636 4.629634837216978 7.063465008907351 0.4557450046187893 -0.3934520601168385 0.6295338377099029
Ni 2.337407887706112 8.421549771792158 3.2217209787754335 1.5607578350412992 0.0456710196745536 1.5564718060714355
Ni 1.9624282391607928 5.394223976687702 11.007194537361128 -1.5567394579105256 -1.0867117181204768 -0.19361743778126653
Ni 6.335210641905202 5.879213398388699 2.7472620917914004 -2.0772621211263322 -0.09494595465028163 -0.5645844294217115
Ni -0.23679497591565943 2.4628776960629404 1.5403591313682472 1.235002664050802 0.6881398202785698 -0.8124876251297362
Ni 8.263213552085867 4.557066760291292 2.574128146267876 0.1699164946199009 -0.23914576123036876 -1.071260159452097
Ni 8.012043326255247 4.199687199552534 8.595426278672301 -0.07941366334263744 0.3851990760794269 -0.18407016041246363
Ni 1.8406020548519682 0.8174216881667791 8.402419361885437 1.3376341602707995 -0.07480059005065828 0.36059567570844997
Ni 7.130646056860798 5.0263378645801415 10.720775246784594 1.4991302920374892 -0.5565983258924414 -0.10119784909726441
Ni 8.47751399229656 8.808991537018118 11.40402301608392 1.6910711134472811 1.2062194212705226 -1.7795180906367802
Ni 2.2749681631974097 6.320663818807222 5.366955832261616 0.9436817634787749 -0.8871180081511172 -1.03880281025434
Ni 8.903172300385506 4.216346402161887 13.26228511711286 0.19576996534789512 -0.847801727049998 -0.46160557716462436
Ni 0.988409124029619 1.5574694054103793 10.626917336180952 2.1996142357037085 -2.4630556362566485 0.9759475654910159
Ni 1.1615596734095652 5.474485173755249 8.576120605836689 -0.455060576957255 -0.31299530022166744 0.9405974681264961
Ni 8.433633689520981 6.742835317047699 9.331570244783965 0.5787429803102807 0.13865985059846445 1.0219715976296142
Ni 2.553073533889221 2.9178510351001297 2.6226630634602217 -0.456070249168692 -0.5881493612258452 -1.5253953963816054
P 6.486471773903089 1.4437329889245911 4.678644809190265 -0.46112503798377996 0.14610190869880643 -0.177346725645701
Ni 1.2129209359394004 5.0046237101269755 3.4161862676179675 0.33304219157021353 1.3318980291179707 -0.5688465471321752
P 6.344776308076796 4.51992946809569 6.816022348843311 1.5720431781471316 -1.4468620787613922 0.9396253340212141
Ni 3.3883582042558973 7.013413606161862 11.119709647963486 1.3545527904030092 2.6172346655366345 2.1613886165636065
P 4.617117374348266 2.1569331927714446 1.2696535460215208 -0.6100515606155752 -1.6736521466398853 2.403555424008487
P 1.8746860823389908 2.796845819247691 0.10410710219791217 -1.2377367751525135 0.5262420821980872 2.057120613181451
P 4.988628661774473 6.945900481079989 12.674743821098742 0.10600786889139806 -0.2976460714591067 0.6218835202534968
Ni 4.185573921594442 4.7697160392245355 4.084907507421607 0.3145024808948132 2.0037565957380137 -1.879306718091344
Ni 7.895161401414094 1.623054638274447 10.110944195961373 0.3445327087083163 0.4973241136121564 1.8835546947344204
Ni 4.997096628549327 5.7296311007622975 5.919110620496107 -0.6016898189144412 1.1673865075637249 0.9877820962320989
Ni 3.6134695998697803 5.291732060744994 13.012628609525981 -1.3917540820436547 1.1284378942146693 2.081973924779705
Ni 4.979496540742766 4.9736113960778905 11.333737969416163 -0.8702919377327141 -1.5350776566663755 1.0574795607282368
Ni 4.251629597057113 0.39237772276542027 2.921138598671544 -0.059424621815220235 0.8682903339216531 0.09818837284697927
Ni 4.509090839598463 0.40552982192401205 5.430962776329195 2.7303326085055946 2.7811761735200227 -0.7818938115032792
Ni 6.703438055505865 6.411182509397249 7.792034849181506 -0.015772175232592195 -0.8070183744850489 -0.3348496770925975
Ni 2.4677389362485047 3.7569084706203086 4.8677507421545965 -2.1328737969533655 -1.9611436461634937 1.1748311367672282
Ni -0.15021693391628285 8.73569473528283 0.08729385269842745 1.4713906600303757 -0.47573738858031617 0.5827901537964608
Ni 3.5771532761305633 1.1681089723312934 10.588912953705572 -1.5453289020807386 0.6743607642166063 -0.6047509743382682
Ni 0.7904948452337973 7.8225195295709815 4.745811098160226 -2.101739537442406 0.30770217014352813 0.10671749336391298
Ni 1.1305104619017659 7.312688893790809 1.7048258638398623 -0.049232768883882956 -0.2783193461060368 0.4437250973397778
Ni 4.340469453275656 0.7997708663544874 12.664294460790948 1.14980144749211 -0.15462254457530789 0.812752962975981
Ni 8.484044842488931 0.46444307181612765 4.126773208951405 -0.5737455270956893 0.05804548207950649 -0.12633578181547275
Ni 0.2574206553367643 0.568689461920685 6.319557817482271 0.1714984943950401 0.5565127081571707 0.5776374059509278
Ni 2.5430835469424156 8.97342506177689 5.955319941605053 -0.7459626448243089 -1.070620726095885 0.11458969702313813
Ni 2.829859820432009 0.11557944454855086 0.9079662069779065 -0.8975158064456736 0.6518224739047742 -0.6735665504500851
Ni 6.47510735661919 7.409987492419527 0.7844473517505789 1.2901880509736943 1.9800906195796413 0.4591550587416028
Ni 8.741044866796356 4.602994872025497 4.990931985634692 -0.10182468404798592 -0.21924156610727405 -0.7108447180752532
Ni 4.543239437638236 3.3346447287330467 5.926117447905888 2.1063253570408755 -0.09997040444806653 1.4183030361767768
Ni 6.933226204011743 2.080933652185361 8.192684059754129 0.02996775000668387 0.5879593567022261 0.5358243265698837
Ni 4.911356158862758 3.344948344078921 13.19821083518313 1.2948301777313957 0.41540053936347165 -1.5444678396320237
Ni 7.047479184919527 3.0311077846226366 0.6932414459920037 -1.5655807103512391 0.4078463811652976 0.24232338762740202
Ni 5.702603712254319 2.155872390833418 10.221326633450062 -1.4566800932930783 -0.25435717886348447 0.33297148623327816
P 8.21027492319601 8.030676542905798 6.858752373343481 1.4801851183935542 -1.0613195032996172 1.4369849288569962
Ni 7.078685210626861 2.941566876688529 11.948942212664603 0.09038481764216047 0.9200438123448605 -0.7869234035073867
P 1.9350964466184253 1.4077302935844422 4.752494150369793 -0.719066077543781 0.763030656050189 -1.0465024928914428
Ni 8.701306303761418 6.31450194320199 0.48922986214369957 -1.0202430449742814 0.4967957519125122 -0.3659697955361697
P 2.0939584551113897 8.80995087094468 12.06355033161251 0.27360985644550945 0.3375015128931478 0.13325307776059633
P 8.88732484186786 5.770504260652689 11.631767967813513 1.3460383251740948 0.6040971428043532 0.44661964527875336
P 8.322793723544239 8.688318398294104 2.0875733498809383 -0.8744496686548294 -1.0521244670639105 0.6508853068024855
Ni 5.415578380918408 4.455801684850823 9.225373823986374 0.3669226463677423 -0.9661269798561686 -2.799170810325231
Ni 4.501554533656137 7.559883418444998 4.6375345831276364 -0.8071351025685712 -0.5708247539044685 -1.5794780371586217
Ni 9.610588827578948 3.6564366905421894 10.880894536183236 -1.1937308018852086 1.2384456282940801 -0.2348841577405374
Ni 1.602650343605626 6.671152779131148 12.892187924791866 -0.5705820417660432 1.3925053583873823 -0.38442414558661536
Ni 3.489364997485368 5.9513663789038524 9.192283260575225 -0.3888978650872528 0.06398344483049626 -1.8178925766499208
Ni 5.068317948231952 8.147927442334092 7.151665616653674 -0.6251521637024394 -2.362021823541074 -0.5127144800252977
Ni 2.685249455367312 3.7119120197186315 9.494038979866216 -2.1324151121493924 -0.17778998383070668 1.2458167239471707
Ni 7.042737861474783 2.4878111537889005 2.8669334645113302 -0.10655140009969391 -1.4185344354612925 0.1500398103006319
Ni 6.986561480582776 7.264067267570486 11.823708548043545 -0.10152540764001226 -1.13236216896974 0.8061701675521405
Ni 4.4169025390016285 7.7780580918206565 1.6570058349100996 -0.22438968596711678 -1.6250181876822658 -0.1925159771869717
Ni 9.31467120869297 1.8672881418668414 12.806444687795892 1.0927455830193826 0.21686560967592974 -0.863271540550823
Ni 6.848767921015484 7.358035870550268 5.388624787327859 -0.5336265475876164 -0.44904393844952983 0.48676407870812294
Ni 4.581271493207652 2.4039801275907786 3.8558388593606514 0.5379460008985768 0.3697146072905826 -0.6574807006318161
Ni 6.776670286688402 8.493130841697244 8.871504134007779 -0.6652999395659187 1.2759374545919508 0.49607969968209403
Ni 0.8688844187080779 0.698580508267914 2.2643389277783847 0.5607791967430085 -0.44466406421427934 0.24661070214884628
Ni 3.027860808255808 3.269659079573081 11.993048512374806 -0.6681507787511525 -0.517575664772341 -2.1094623600079605
Ni 2.9093461708665616 1.9983755883128707 6.764476599019905 -0.858567193096618 0.24066579741932098 -0.33200912232000884
Ni 6.082435376620524 0.4875141303135003 1.4787818849569836 0.07814456682222672 1.206877880790128 -0.8252971181895787
Ni 6.537879158256317 3.9810605323076285 4.422116149917912 -0.8277941735798195 1.495277236839986 0.8754480280123568
Ni 4.40259554938529 4.454445703243085 1.8113063950695503 0.047515014861827846 0.15754203221494803 -0.5274129625777368
Ni 1.3578080319444514 7.834861729510801 10.138999178694535 0.24273527835384 0.268032362357732 0.1476376286170425
Ni 6.455155055819614 5.334136465172014 0.08956581371873966 -0.2977975094353065 -1.835440612836013 -0.7897459605578463
Ni 1.6161917109536503 4.945726141654814 1.042712036455425 0.5841312412053876 -0.9414253633444303 0.3986009513076297
Ni 0.4667085757811649 3.6761122604014096 6.937651131748015 1.1989547692883094 -0.8299590424416222 0.3071036173275808
Ni 3.908464782287908 8.62344344151028 9.243586409607586 -0.25536299442017957 -1.3188969888726125 -0.5299138746227195
P 0.34839133979603804 2.3878098163093844 8.792969738008047 -0.6678011087212177 1.0339210566820065 -0.7047290920958185
Ni 9.032599361189407 9.295945748395633 8.988771637292496 -0.444425465840912 -1.6783132995609806 -1.4514134455775005
P 3.09494961256247 6.364913096169941 2.622204612535701 -0.6361431154963045 -1.2358141042085038 0.4982697653548774
Ni 6.936962071706532 0.4620327453256381 6.544467199509695 -0.02692536363593427 -0.31550315424518566 -0.830334166392854
P 4.093708473761355 2.8309759685581057 8.47293409523369 1.9322089654070145 -0.9305434263246039 -0.9612061455157833
P 3.29856823847547 6.807322850515026 7.129227349573246 1.4461552825023547 0.15437160490676638 0.8005937019056277
P 6.253030776984529 -0.06770314699424922 10.983122635296139 -0.2153484017004549 1.352199202569168 -0.09573759731364156
Ni 8.158378647514821 6.619625478037101 3.6877137438575476 1.9666787170491098 1.0876506849949783 -0.35395785867695817
