# total energy = -340859.0169213332 ev
CRYSTAL
PRIMVEC
9.38512781130698 0.00000000000000 0.00000000000000
0.00000000000000 9.38512781130698 0.00000000000000
0.00000000000000 0.00000000000000 13.73608321510395
PRIMCOORD
 96 1
Ni 3.59698156596219 4.944986221453656 11.532472080604702 -0.3617997233188801 -1.4555824893535254 1.0852716432398406
Ni 2.2238904642461454 9.125187775344763 11.458997793211145 -0.6620156123876921 2.4924929676811587 -2.146183369578078
Ni 8.240311014295603 1.367084620016183 12.207751724224423 -1.8717373903845185 0.011276344244767676 0.30136362952001
Ni 4.625816800127255 3.0860082907294224 4.09263831286031 -1.2501197221978986 -1.5618274139563941 1.2540162290388275
Ni 0.6061975959691848 4.689063175401267 4.373005862405606 0.44230122040905767 0.3289567086469302 -1.2537560333989053
Ni 2.7671673488709816 6.50514168760977 3.6575616264691235 1.2915715615847818 0.9778807779579869 0.24158548102011296
Ni 2.08637018870228 5.550777441395335 9.605093462497761 0.8147352835133324 0.6705940980853226 0.07347390081943475
Ni 6.813058340876587 2.2206525952048133 7.4311525246625605 -0.13505182153223194 0.05677998510352157 0.5482304135437204
Ni 4.11928269027579 1.3986937299617055 9.070993355694995 -2.11694709842078 -0.24324204278692946 0.10532935476713473
Ni 7.85886188584376 4.949209528898871 7.8800610121932095 -1.0815941943882534 0.40586688884142363 1.0056103826627711
Ni 6.5358310550450005 3.007567393780291 11.739446993367046 -0.7876993624414629 1.2573185539391831 0.07973916500285622
Ni 5.254629738209184 8.167229025238067 9.858070516978922 -0.1491293826712206 0.09211671273160264 -0.013817879719698781
Ni 5.347720819429385 8.001731684151565 12.62175692200228 -0.8951226236231488 -1.6068476874208262 -0.23846827554737
Ni 7.081454221583845 5.458756264727922 2.661242105581155 0.18734574583994187 0.45074163786692695 -0.2751124091329649
Ni 5.166578470540274 5.201753928995089 4.146017164916769 0.3718560791136177 1.522711421791539 -0.32512165117155617
Ni 9.263430705718143 3.550487643554198 6.461481135241134 -0.562084288707677 0.842481086168033 -1.2348095742033895
Ni 0.22560063710850933 0.18627601371696156 0.8147004075139315 -0.7724902588011922 0.9954876924064726 -1.3935672239929935
Ni 3.9712698420124797 8.984626718440344 3.906679516458123 -0.11536539884689809 -2.0400207202763707 2.183133464439866
Ni 6.9507663189735736 0.22092684353580447 6.063779781227337 0.06825121896791471 0.002696315885240518 0.41377508794490675
Ni 2.3102617940646257 8.914350882551961 6.872753383845557 -0.4251969566286033 -0.4891834867828931 0.7115718260492649
Ni 5.464865982832 6.203926015489361 0.7961009615252035 0.7299115048987171 -0.1297391510700669 0.2198815136841181
Ni 4.376829363412674 2.0609364927544283 6.886914602965746 -1.9827020890605598 -2.2622144270334332 -0.4046975511236708
Ni 3.7501093087980397 8.360299871377999 1.7143728223128285 -1.6040104750823472 -1.3249835613863246 -0.4028304160079449
Ni 7.937743883792725 0.7244333112054314 9.593225030063943 0.3497643894209008 0.806426763647637 0.9227211020667075
P 0.610144042148547 2.222351303310556 12.759749269467244 2.009675018104977 0.7231379336203093 0.09360409591040653
P 0.14060516700440362 6.35241750526313 9.89088655434101 -1.3292042843358916 -0.8046969254407239 1.1021689332158113
P 7.3512109458012285 5.9350514932716445 12.9036626939704 -1.9597609068833541 0.14108003000418284 0.37048748090086514
P 1.7614476841227291 2.644954216534108 8.923413161816628 2.5377374413412555 -2.344525980749156 0.274446750524508
P 2.941683797634933 8.080576141589907 13.15593961792842 1.6881827361558928 -2.151095976388347 0.6447223725248833
P 5.309767363188384 7.109093422530865 2.9688621888140414 -1.0506833637420097 -1.5114435621872033 -2.0560564335829943
P 8.091594281458091 2.0574546103940397 5.449969908216342 1.3377966539905928 0.5674373254894743 2.1388696095254844
P 9.298990954406856 0.05961902343495557 5.584363059225217 -0.3274893800727844 0.21424385578236652 2.0030446572726537
Ni 7.579964047289399 8.957747712833463 2.603345253071081 1.5345431243191443 -1.700834106371316 -0.3102020537472464
Ni 0.9698121663362667 8.089079067246272 9.091885588370094 2.0474440093236357 0.23636305627890908 1.2711716577721914
Ni 6.832372933592705 1.5106583028981904 3.947035565379069 -2.7820320937624152 -2.0551624610138153 0.36431554776219843
Ni 1.5500007580322845 2.1044553296954573 5.734635846228102 -0.0372812529489616 -1.167222471182035 0.7383005002933607
Ni 7.795737517229277 3.451192992953359 3.8037819153501324 1.1224572511512023 2.379477557123676 -0.45704932525250963
Ni 5.001822554538598 6.518121319158065 6.087103700478113 -0.816148104700459 -0.45000887346596047 -0.30500585425828763
Ni 4.72902504896066 8.73230756140787 7.298186851570168 -0.08261905765381256 0.3791107037935019 -0.44419149545323505
Ni 4.815818709523661 3.9091402969295346 13.664202468294125 -1.0118411940638317 1.6105706447983683 -1.4598011554205634
Ni 5.8618005719163 1.191423185678196 10.423516950152841 0.17296916540329565 -0.41573503988475496 0.2846085215488582
Ni 8.768674931075003 7.579560486800191 4.442729852787814 -0.39442522266338526 0.16725206041386034 -0.09511359057639748
Ni 2.7053193576177184 4.626586380595049 5.466082295376222 0.8492148053474408 -0.0907501714013792 -1.2219162631804892
Ni 7.754527421691631 7.817417162114714 9.609488517779083 -0.6755190461907656 -2.236460972218413 0.3256240447292715
Ni 8.491522726264664 4.349002459912533 11.679873957057605 0.5965455557093403 0.10638813504895227 0.4857225248174861
Ni 4.239346628379433 0.6239664581603538 12.222531423257145 0.9929029623984319 1.3693194071892223 -0.6515447947633553
Ni 3.1182743596108673 5.515170267068342 0.2888986305846302 -0.8210982496168827 1.053491008394134 -0.8573217507252913
Ni 6.6982406891326685 4.20650806671097 6.000305347351283 1.1104550844840035 0.6712576998112504 -1.9494512974272293
Ni 3.585832034306822 6.590105248279845 7.970911863441915 -1.6941962893398241 1.2467505486153496 -0.054397858024590184
Ni 9.261534909931624 6.537482837512462 12.62318533843153 1.3991208068213712 0.831114239091988 -0.2347751429664989
Ni 6.821298482958585 5.413670111468335 10.278848022873374 1.479163104886943 0.030639579262727874 2.4663728735553394
Ni 0.8189190223953188 4.501210460238092 13.699668865706279 -0.6946997328842747 -0.33536004107011275 0.7018260595164106
Ni 7.310864282007939 4.121300492721838 0.4371920941648568 -0.7259059832837498 0.42063839072364334 -1.1987578227861548
Ni 0.430385999588701 4.091390090882058 8.744170362765098 -1.8625477534654507 2.5876806060286017 0.4656373240318368
Ni 2.095745931230658 6.987875113725532 11.530301300577861 -0.6574627029096871 -2.5595244553093597 -0.22167074437405695
Ni 5.843668505284842 1.969356417086849 13.833196707945266 2.3824011585283746 -2.7680164962096137 -0.32595366015454835
P 6.529345931834682 9.319103282973737 8.238078292426232 0.45499192850284864 -0.33105884259159757 -0.4501166026884184
P 8.252370903333606 5.615600518115561 5.2678843539978 -0.6953952162894024 0.015350514314141306 0.6075848442426374
P 4.814833271119778 1.1360227771246276 5.056306974632938 1.1367613264787004 -1.190980492833581 -0.4502402727504762
P 0.5546366431397 8.709886491437606 2.649168138851667 -0.06586112146918334 -1.1269214575701432 0.9107685576905218
P 2.174224368690414 6.8013081610512325 5.667040402798284 0.1061294820709269 0.6364336501535297 1.875393241969551
P 8.787923827897528 3.5593847445721183 1.7704433289810375 1.278896537220275 -0.12130130471535883 1.2761346582044217
P 3.8753162968571884 2.0059584149453813 0.9475600286638103 -0.7334681119017239 0.8932521460733133 0.3702198290617753
P 4.390062393407682 2.650256813659767 11.104180841508828 -0.4546792823584363 0.7599787565977427 0.5728924350667747
Ni 2.5121452750735713 0.8673612973047036 2.7439203876669858 0.3159888356323526 0.3417291778212502 -1.1355745052594508
Ni 5.731572540561173 3.4549095035051485 9.310440810147217 -0.0601203623306642 0.09278699932574987 -0.041493748368412416
Ni 9.090059242528229 1.9699852206398032 8.07509991960261 1.1490961938949693 -0.8514238971836174 -0.0649110988510882
Ni 1.8801038530779663 2.9980321040817604 1.8666099165341206 -1.3905945145179148 0.25002101338197585 -1.7389573956055988
Ni 0.5034529724419876 5.796442542919679 6.941007663236829 0.898100218194234 1.3071146515257037 -0.6509860940464078
Ni 2.5498077923572358 0.6337288679481602 13.714599665294262 -2.008586155916173 1.4170714777625208 1.642021664218798
Ni 2.6465403031079773 3.0992413207244303 12.81229002962402 0.7184878364428078 -1.0832993500048183 0.49209011890672677
Ni 1.6614209935647193 7.442697170192249 1.1471000432970446 -0.123025229385001 0.7284148657485326 -0.7391546207635399
Ni 3.4925907910441247 4.5798766002509685 2.3917537960147337 1.0151201219254196 0.129379453737803 0.5159394147204985
Ni 0.3243556428691264 1.4451407267314176 3.214298293223578 -1.6036474353159735 0.8986812875086845 0.35162406833745896
Ni 5.0853501906773 0.8546819898414016 2.3794330004278925 -0.15660203689918192 2.0009474084239924 0.6288370687531945
Ni 7.032473240347005 7.239490386183801 6.881777184086833 0.724498561413262 -0.3477995523850462 -0.05803931143191939
Ni 1.6459167626769515 8.79217529072571 4.599733653345605 0.4432831247063527 -0.4869489410254194 -1.1307529155010911
Ni 5.666909011011098 5.876516452080961 8.558815968583959 0.09636828891910501 -0.014443686229155768 -3.4745191352660867
Ni 2.7181863676341407 4.335178166875195 7.678497564037335 0.5034171138837717 -1.3114029944884127 0.4653784139434953
Ni 9.138758669935388 8.771180760159163 11.38752910759768 0.444971311042053 -1.375726853377463 0.11464266174826063
Ni 7.522705383459938 8.396104133385768 13.593612230629265 1.816771318561284 -0.21955035559694447 -1.8449585796287775
Ni 5.461431026109892 3.2742082556158714 1.9852482537468112 1.3177024543438791 0.6901568507085986 1.3780411033329365
Ni 1.340768722068664 3.742582436417901 10.907411316559655 0.5713837117317321 -0.22389706260141437 1.1004113270947564
Ni 6.222386561588779 8.285322086533942 4.304943039618516 0.5839484357706201 -0.0675855603594578 1.7949583364512505
Ni 8.820002194225852 8.789753927790455 7.770350746919704 -0.3761212821478748 1.042821701605746 -3.1104398718844113
Ni 5.775832802587028 8.655471521287922 1.0557743045889438 0.9280350580804534 -0.8079853663840085 -0.2062623802387867
Ni 0.6177225327307944 1.4681342894887004 10.487101190022473 0.6985481600960873 0.33708627973260014 0.12597916980700238
Ni 8.730008205132142 7.133522909819522 1.4382229491361547 -0.12511476492417808 -0.9240858436247184 0.3609959964706622
P 3.1318170988185243 8.686254739999711 9.081638905995236 -0.0750193909296837 0.5873199233460143 -0.5867311407220798
P 4.428353714244301 6.149248261765307 10.152874269884729 -0.259432793614179 0.6032296525977353 -0.07474479711205836
P 1.5718117947049073 5.618969778944077 2.175892105874891 -1.1892694236797454 -1.7057058326413204 -1.0693968809911132
P 7.299170412948521 1.4376889353725264 1.953958238141594 -0.23490601211740833 2.207342200475585 -3.1127052708798195
P 5.032784090675854 3.8841664722368288 7.081486131017876 -0.7549995582155965 3.486206084685712 2.1923277293446244
P 6.8382667937606945 9.06352748664462 11.506442429050693 1.072787651840217 -0.9516884358333352 0.1774176880929525
P 2.255640351106508 2.8356787807600297 3.9377227032059863 0.9659344042293879 0.5518039898275916 0.01772981317959527
P 8.02287637676061 3.019439580265174 9.911792864707591 -0.7547437334510485 0.21937552058197698 -0.3764560397794742
