# total energy = -381179.95381328446 ev
CRYSTAL
PRIMVEC
9.11874666448736 0.00000000000000 0.00000000000000
0.00000000000000 9.11874666448736 0.00000000000000
0.00000000000000 0.00000000000000 13.34620748052703
PRIMCOORD
 96 1
Ni 6.987294393310329 5.087886805972204 3.9676806859707985 0.31671620071668033 1.037699292777516 2.341891628450102
Ni 6.025476344612252 6.6508399952632375 5.670043098998817 2.067656479715768 -0.14013823491620384 -0.5695152910644256
Ni 1.4441906318970636 7.062979991158144 5.218994322687424 0.7857630646506983 -0.32785987603832567 0.12806330602954075
Ni 3.9771869794354187 5.847524002202598 5.9359931710893115 -1.976972899886266 -0.9814060175024261 1.0822739940640975
Ni 1.7060354442103196 2.3393962357423344 3.6403386515296505 -0.841417420790209 0.01123032149818066 1.1786427972038347
Ni 0.6515791356211895 0.9142273095212395 1.9307961373274913 -1.2879005404910981 0.34827700624209695 -0.2648369953488859
Ni 5.347752850245342 5.617549209705984 0.7993292769908725 1.1722487207520327 0.6836403897463194 -1.5426238444447498
Ni 5.246170011688154 2.651831854906154 6.911387209917006 1.50103959324506 1.3885360893269891 -0.5473942907956703
Ni 2.8922840873939912 0.6136205286138278 2.8246977603905643 -0.019340095089508628 -1.8316937441990713 0.0814332648758275
Ni 5.936249407872387 1.3281272235347752 13.07327726996588 -1.1174605692675594 -0.7100024246796159 -0.3113091707684961
Ni 2.0017199256336045 0.7080880090986488 5.602524250721182 1.1524594539402475 0.8360659266703084 1.4302252415356596
Ni 2.8543774572429825 5.878792184735148 8.419548585739586 -1.4172977348407139 2.675342111202328 0.4168992353961853
Ni 4.270637367910184 1.4181566099867609 4.620390546186341 0.324937303074892 -0.5871828835475178 0.3569776193398884
Ni 4.703650175066975 3.2098626797127707 0.537659544614807 -0.8509515855328893 0.010645652639304247 -0.494154200524607
Ni 3.05841853404331 2.0769495861449876 11.762573235805542 -0.5585834746432702 -0.47024242690401596 -0.9048051410182353
Ni 3.1256601724203934 3.781981968215155 7.976240713526146 -0.5665742061582307 -1.297584086327449 -0.35114764292167266
Ni 8.518897331348255 5.843894741004595 5.828969176359137 -0.7304375526055162 0.04138653336658679 0.9543312727728209
Ni 8.87588714702827 7.623454640088039 2.1005862895403276 0.4948666532105993 0.6713618294892825 -1.0130694100439779
Ni 5.183515102915583 3.0549442915396936 11.512746019805977 0.884492140492496 -0.43505199504581205 -0.015994318545727294
Ni 3.282092272550427 5.311934413095195 1.7566946416613483 -0.3270006133618239 1.0061919661978542 0.46012822128814956
Ni 6.9832821447497215 3.8546310234023298 9.627647569834455 0.4966250306626027 -0.4241505176419599 0.14236815268798708
Ni 7.405981649356407 1.6354107507969062 1.4629843689048165 0.3694598109672992 0.3230822521440242 -0.4505560042186821
Ni 1.9349159870994965 8.369678159880586 0.8015651936887381 -0.19995829239762983 0.9423082801700159 0.7728615260976819
Ni 7.638783253338905 2.5454434368229655 11.78655645157657 0.991225317585693 0.601889336519757 -1.1855158701745843
P 1.1425516088599685 4.180990968820802 2.2769164069069534 1.0509846970325125 -0.17672091913624405 -0.9349790934984542
Ni 0.36405137314668407 5.680833312002831 3.658849707388815 0.2650959054372273 0.10891604367712855 -0.2320754846471487
P 6.252852294291201 6.76153246180235 2.560069906575724 1.6742180464456844 -0.6118958129131655 -0.8074261514464288
Ni 6.531357056877705 0.935127477023311 5.733824172992376 -0.3793230769146242 -1.2402842241647154 0.21139095971460367
P 6.320413088803788 4.682275832735014 6.985084920977976 -0.27805786491453405 0.5135102364537156 0.07395212600743394
P 4.241721822033627 4.966343030825995 12.11798277267748 -0.4284915682194749 0.4740309474121707 1.2981427870443967
P 2.3411835101011502 7.527726036930646 2.9616832212470734 -0.32583384674723237 -0.551710915893153 0.08271984489773494
Ni 1.19234908474514 6.121970922494852 0.8788447484647222 0.43456117145232254 -1.3692132206286614 0.3025141981846855
Ni 7.871867538469989 1.5953794526581218 7.90593335249889 -1.1572321927385425 -0.5081222326689249 -0.9813016307140778
Ni 1.079568425205166 3.365556161357783 11.14137411678553 -0.1504540150199151 0.7436926178432095 1.8515434319351467
Ni 2.616323455144781 8.847646388409633 11.315648868639517 0.037335503225664736 -0.27503579025875863 0.690677499098759
Ni 5.462804077720751 0.43223315431149145 8.378068318745619 0.7141807244270216 1.4137807228263908 -1.0474890251744282
Ni 5.800298012894907 7.639485396837011 12.241354856542785 -0.814944314200345 -0.6015877461189381 -0.09706582920676186
Ni 1.6580070051905071 5.648288504928271 11.267521947155036 -0.235071334050679 1.702335630617507 0.25625131056240386
Ni 6.330279572764189 5.070068774864417 11.79669923356285 0.2557687144990305 0.4897319030871953 -0.09145593921915217
Ni 2.6131045375495665 5.053089668455667 4.08902476056365 0.19083884659486489 -0.593021601716482 0.1210400806341722
Ni 8.402979822933625 4.016196977940594 7.493535296071563 -1.4844289812715723 -0.34173817668231465 -0.295025346006808
Ni 8.61427030338323 3.109975928047111 3.2286874204594005 -1.1484729584886735 -0.4454953018663231 -0.0003980067693670565
Ni 6.510593670576563 8.31747333485905 1.020242770863226 1.3222260532458452 0.5476591144212827 0.43952237211233985
Ni 2.570711484008062 4.044264480371386 -0.11952853211917659 -1.0075662208375615 0.22351551089227958 -0.3440873936407816
Ni 0.6096657281576113 7.716857962829627 12.11004216802617 0.03363954243131626 0.706665389886583 -0.5405492428493788
Ni 8.919565943858515 1.749759834774208 5.425153684352818 -0.27248499881244687 -2.5830521061176546 -0.17772107826598424
Ni 6.126211139723676 7.991286645628422 9.804577700735825 0.5291721113606886 -1.5154339142935191 0.27965914796338287
Ni 6.93524458698318 3.693375106252839 13.621406047699853 0.6933892416029671 0.39446378921080455 0.9360119056383428
Ni 5.729253857131976 8.593397492121346 3.6235355369327626 -1.50665411121836 0.1564734817411176 0.613208361077002
Ni 5.1253283800400515 7.148887704088779 7.72047445778221 -0.9635080541760827 0.8999316149760179 0.38962574439221287
Ni 8.229805703809784 6.408372519748369 13.354882406440126 -1.8255786324402687 -0.3509905485185181 -0.7753938056012324
Ni 2.5257378251423472 1.6410005425415701 0.6395715699288999 0.9180900310525995 -0.041058460603206705 0.009336961130209728
Ni 0.7161690424495807 1.2509279137300033 12.089542313505486 -0.1168072734997472 -1.4292932166396932 0.39004431998687017
Ni 1.2143435018546498 0.2826692942174794 8.244566219139456 1.09831510668736 -0.10016889361211781 -0.4660371305734168
Ni 0.22463941378568078 2.8113552101772004 0.43719101690785983 0.202881893802328 1.494785641915548 0.5304548347278542
Ni 3.4692636679027475 8.38237145532687 9.040721260394083 0.4660528143027006 0.5120855881920471 0.9437846076052262
P 4.794627911178741 8.493355721761299 5.731942975542256 -0.3754959898590501 0.3391310780767708 0.3954809176214092
Ni 3.1398124673432624 6.8602702513802 12.993907698439688 0.8914839984292969 -1.0293820311610722 -1.45755529680918
P 1.1944008027590867 5.030320157874221 7.053149982184657 0.8535196033703816 -0.1421904894595422 0.13728482462780872
Ni 4.35295229462973 7.626336164054293 1.5614932779397763 -1.51424375064016 1.231455570129492 0.5214762853783277
P -0.1684952901773675 8.473568041360124 5.998132870671714 -0.3089548116037066 -0.05640383271102544 0.48532837470286094
P 6.95702927291793 1.5244356031092055 9.891862344422487 -0.6097700248194143 -0.23092311621026038 0.04700979309063517
P 1.6576969678017328 7.496959385468172 9.80185484296265 -1.081049634738693 -0.6073274768161927 0.183093141211175
Ni 2.791704310976954 7.932452491735156 6.924986908788119 1.123890126942987 0.3494517432764885 -0.9350922220375508
Ni 0.5460834428427362 4.793898411440449 9.21415526379969 0.2532487762906542 0.29872156391147264 0.9833567134708935
Ni 3.458120559400334 3.2112122542286112 2.561403979222126 -0.20218769594878083 -0.4236406678850768 0.30246663277620167
Ni 4.744547754144981 2.652151011041657 9.251710822201645 0.8305989900184663 -0.6509254160118015 0.1572342711665421
Ni 3.222054444088979 4.157072496151546 10.442459566895906 -0.03419027272846369 -0.14592861634573578 -1.14931730876684
Ni 4.9596681082206215 1.4209287089922713 2.22063550209771 0.6365328947355553 -0.513812855295799 -1.5403427617200567
Ni 7.671209516705993 0.5551255920988679 3.4336987319116568 1.4343780873617684 1.0271243454751473 0.37515197625607
Ni 8.718269609823512 8.690156513659078 9.724807816228246 -0.25416640300891713 -0.8956617839560703 -0.0424190883961592
Ni 4.852185440529995 0.5400003269000521 10.830247037777273 0.4432844102579333 0.4975840521417624 0.4876197418401989
Ni 7.277234064294562 6.10466354120387 8.505458122419567 0.20274716799667664 -0.6952496918504737 0.09672412959662696
Ni 4.893739569372465 3.8394847850860376 4.668623245132875 0.37379571933849176 0.5894089446645592 0.09696607040410397
Ni 4.119311765948196 6.569117787081054 10.632029192637862 -0.017641881451479293 0.3212706528565822 -0.24827343456324982
Ni 7.2799514508197 8.166822520154982 7.468751454337759 1.1704548620764037 0.9738045510060841 -0.7807463281623973
Ni 7.725183378592886 6.610589847202966 10.94155501972057 0.8839568368143164 1.0862304076086842 -1.0313988044807851
Ni 0.12894181436716454 2.0389517685266925 9.701291480289724 -0.08971453104801323 -0.35486622942384044 -0.42499563925107453
Ni 3.515395407603 1.4326280610451325 7.449092348265457 -1.869097124548194 -1.7644246866387676 0.24877351412811993
Ni 7.1778853186858935 3.1865186880874203 5.467153719910318 -0.1172613303180303 1.3117284961486313 -0.08483020637251842
Ni 0.7338967979647539 8.963044128260732 4.067710601960098 -0.2711508533820556 -0.460489204171994 -1.989221635346632
Ni 7.834280064454484 7.415182464805617 4.064106873252934 -0.3551534216469561 -0.41218408930870304 1.695388252765396
Ni 0.5113391940572246 7.0022582566920475 7.868109702943111 0.032294855477963735 0.5149896492127195 -0.0714355302331673
Ni 0.7528637911603511 3.77335563380985 5.304970426218524 0.28627536772831985 1.4977879190769818 0.19352282118493122
Ni 4.979127513739566 5.159687817713614 8.859252729245863 1.2793971310057772 -1.2769165306757686 -0.1323616762945785
Ni 8.00070631099912 5.154362469624081 2.0013971219994104 -0.10566436950905028 0.21393300941016705 -2.086822254010942
Ni 5.710733682526083 4.094773218501392 2.4975162158918414 -0.1667920900583063 -1.2083680921824091 -1.0563097087898519
Ni 3.0844616747003415 3.0891669480123265 5.7710204527732225 -1.6751032772641152 0.29393596959737117 -0.3561119289054835
P 8.68222320400515 4.879797005624355 11.730168857430602 0.09234091292726677 -0.9527829544490946 0.21982726340741499
Ni 7.483263027881736 9.216043756247194 11.640775959500276 0.2650722512881435 -0.15287650841847863 0.29586686807149687
P 8.548597089443476 -0.16210760809394645 0.3000724223491126 0.49068938190445816 0.30360897391076097 -0.051453173573969446
Ni 4.574309871467769 6.44990841109738 3.7147430654620908 -1.5174499162822834 -0.7324291291142483 0.44222537286579966
P 2.656318278296651 1.9276209897165746 9.411051802538118 -0.943102236826221 -0.15243427867473747 0.3290970908795364
P 4.188696309806512 -0.09871134521233588 13.047252366802306 -0.5469695445534257 0.10307038352962893 0.0250757120217052
P 6.322145650682231 2.247041568874542 3.5797600813871937 0.24859276557588153 0.3735900310855888 1.2389647340223435
Ni 0.923136325075133 2.3958503967394216 7.350303493705927 1.8071690195848296 0.5132911784643741 0.1567035954740527
