# total energy = -340889.33593054395 ev
CRYSTAL
PRIMVEC
9.10628664333310 0.00000000000000 0.00000000000000
0.00000000000000 9.10628664333310 0.00000000000000
0.00000000000000 0.00000000000000 13.32797098007804
PRIMCOORD
 96 1
Ni 6.100856958627906 2.240893249148939 11.635665313352447 0.42017867747840537 -0.22724823846183445 0.47907905135903944
Ni 4.619846911291706 0.3251108272952333 6.002132061758882 0.41291788215093406 0.42592329327166645 -0.14320427543603725
Ni 2.832137127155023 1.7185475364822984 5.073998374582522 -0.3069889461265874 -1.2387590457694408 0.12720070091892932
Ni 3.388057718966064 4.576273329326435 5.199321824338142 -0.8996004568888443 -1.370188440057737 -0.14228356339398077
Ni 5.000690034583564 4.525269017395928 2.5822414962983573 0.9238819551440283 0.03577150117265453 0.20050619448129986
Ni 7.058892959513641 6.184479989596992 2.7398713194579876 0.5392408084506003 -1.3279110194457648 -0.06816328723979873
Ni 4.932893729937495 4.61410995065678 11.413488308649194 1.1782746152311385 0.3517366826559233 -0.39693307668690353
Ni 5.908377376182782 7.796848222899552 12.16969074936886 -0.002258971237505787 0.1627603431910939 1.1851042365584623
Ni 1.7871725132200784 6.638473914127516 0.16923487495828035 1.9760663289115967 1.088979173998415 1.460332345333685
Ni 2.614733637951498 1.3430953349299266 0.3882774957717839 0.3045402274757787 -0.0003728099583864547 0.8190675923400991
Ni 0.7136961155582243 0.21455595334552263 4.861270963610798 -0.43646430201230635 0.29572288629446486 -0.05446342115520298
Ni 8.824929781251715 2.2833376515606685 1.323582383741801 -1.2693456603070463 0.38235106510767053 0.9128339248599827
Ni 7.012432684657463 0.572309176024812 4.855126951959393 -0.7467041509760237 0.11945139599081364 -0.3256973211693681
Ni 0.565083337510822 7.2130259685719835 2.144817371087375 0.3564610847147861 -0.23188727989574257 1.1938272182537568
Ni 7.825715151808623 3.6660635463051943 3.6972188850675307 -0.6595185569974513 0.8187549461956867 -0.2808616529119163
Ni 7.973173252699663 3.87520763345177 12.493466595030633 -0.42803288341550155 0.007106529137794213 0.28281491998354524
Ni 7.977544270326273 9.072994137848566 7.121481378783338 0.4044705227145292 -0.6961778600916977 0.010293668616524207
Ni 6.808943601565314 0.7930637787420712 0.40805088676016177 -0.10128038150874169 -0.46687608153494425 -0.8458484599783691
Ni 2.0999370369774826 6.947987493525129 8.948360033997808 -0.8200602952706716 -2.865355376572104 1.209190073863072
Ni 9.08015167921214 4.851392463774659 1.1910995713652623 -0.2449582541470878 -0.02141240423750506 1.4002479784472788
Ni 6.603369178813804 1.9839866881449248 6.777419458190732 -1.3023820219367248 -0.8766284214737032 2.1980612893942917
Ni 3.4684480181488024 4.620147418753535 0.6286834652353448 -0.7037410171509364 -0.6601225091300372 -0.00989977561221521
Ni 5.582946007594931 5.1530199988709295 5.000055326399033 1.3670555508557103 1.176296151348529 -0.42043681623579854
Ni 5.489761375567634 3.0574630858067793 9.418050464951223 -0.5352080331421234 0.25463177268110987 -0.6420893057774104
P 0.43472957496991155 5.550391032563407 12.53078506864649 -1.3214989452718338 -0.4052140857487731 -2.205298687682996
P 4.262124649987272 6.198248695120815 12.74132697080491 0.20246254687672227 0.9263425008693787 -0.13833743426203915
P 2.45659386273543 8.436555758840676 1.4918929705977877 -0.7952087834446305 0.0625683096505245 -0.9930261182398576
P 6.428300816581342 7.727458318077115 5.788484005199552 0.2665310952218571 0.06682811336814297 -0.7625097505497127
P 4.6095294884355615 0.9665776978310685 12.740740525940005 1.0771909231142351 0.7880505751332944 -0.7648394271241536
P 3.9422572225866266 6.212026506931359 8.24522903229457 1.0510826560629576 0.0002049169219544858 -0.7242584203779978
P 4.464812379847875 1.0458114986001004 3.7735350315708 1.8574310010641755 0.872628813396007 -0.06505790884159762
P 0.05168455154864896 5.67511073550935 3.6266606436586475 0.0670242885393491 -0.2227328670899841 -0.9869269473206552
Ni 1.4614315308836754 1.0519218169906326 2.6634349699699857 0.2740662272566377 -0.4610959845180575 -0.3805050130378672
Ni 1.5322875478683713 7.04262002514124 4.724645701404374 1.2840600836990854 -1.3907863188137466 -0.8725696780232972
Ni 6.158490647292106 5.6981587472029975 9.06531298499847 -0.6677967378458434 -0.4817090327827187 0.6761679926286741
Ni 8.708824625544882 2.3993244255401147 10.451582135906568 0.22483937191002568 0.9640595558041785 0.548585482890294
Ni 2.102432159539339 5.365542518391406 7.066663353973612 0.4610707877070768 -0.9123757542766415 -0.11675199478177958
Ni 0.8571693053796708 8.765310922082096 9.053144254051722 -1.9853045596804133 1.9237793465824224 -0.3026774632354271
Ni 1.3925242592575102 0.998750208820264 11.49482839353705 0.3348008261325331 -0.21549598302191272 -0.36279088358755585
Ni 4.153778050567671 6.7149211911595845 1.639753569361944 0.22545052313146333 0.9204011956842794 0.12259174139200822
Ni 5.558522946606246 7.8774752855370656 7.738673620804059 2.0691631461682816 -0.1791737515521108 1.9483668061137995
Ni 5.234439308453266 2.708683198063451 4.950701073622571 -0.28959286213732705 0.36475006419645567 0.036468270129363003
Ni 0.49023512442715567 7.1883297189816355 6.860680058948279 -0.5763726803058913 1.542144590815486 0.30684882100429733
Ni 4.877782482695317 4.417232031724879 7.35214908522628 1.141461817278163 0.47773667839853207 -1.2305559411333582
Ni 8.189365605769147 6.989639648992035 9.170257475698692 1.250048245530015 0.8495439065520853 -0.6216827170966003
Ni 4.853231933692524 0.12057816374473115 10.584994700157432 -0.27822318684780467 2.0073641105836137 -0.6406957678639934
Ni 8.215619030388975 7.570730017302973 4.436521878888313 -0.4972040430945244 -0.56674492740814 0.456542303709104
Ni 7.194012041896228 5.954200210968412 6.891493911958537 -0.29460497063993774 0.29859120898119546 0.44258918396312164
Ni 2.416708326892612 5.15207294505183 2.8603028719864927 -1.3726980938534683 0.28545312893734065 -0.33277891060649784
Ni 2.6550471692702553 5.398671189486422 11.487804714588291 -1.782888035550278 -0.16002134699337603 -0.01323372508145463
Ni 1.1850375162943574 3.0059670343932776 3.9771069818721205 -1.1035370172079317 1.3164626683995069 -0.16203992008530158
Ni 3.3641172911736503 2.792952775389807 2.966193505877141 0.8423301624124655 0.0859442653723036 -0.604080944854437
Ni 1.2730953088971086 3.1356314510293246 8.438991690538838 -0.4416108792102523 1.36953075186908 0.41563888062652293
Ni 3.465661494411839 2.6263714723823477 7.234049652727306 0.18995284444548574 0.06667513273004645 -0.2507967152057358
Ni 4.04625101695306 7.088898174262975 6.154564016457535 -0.7880806570402814 -0.9177933257477872 -1.0664100304486472
Ni 0.7496686799965541 7.404813473226228 11.14591555400758 0.5921543686201801 -0.28946842074432083 0.5624167323464313
P 0.15519115957545068 5.4272831423672745 8.005352138089563 -0.025282685826188717 -0.31776058282079467 1.0206891313727648
P 8.76649473935597 1.5539058725466475 8.460596355787033 0.6095869622743308 -0.2888744959140638 -0.9941340065920555
P 2.0287167685239025 3.3611304291288002 10.595230166433078 -0.5075154523228614 -0.37551218780896617 0.5016291687454135
P 3.7850098634693246 6.356770934379211 4.057727670108929 0.2990084990242722 -0.3046674970822624 -0.8145913017363003
P 6.918173510796959 4.226336943169401 10.588712797026067 0.8337308507792286 -0.3455022717104372 -0.5374315231560035
P 6.383078996719372 7.727695081531889 9.950089819833545 0.418428270446202 0.8212268047749469 0.8415043240770603
P 2.2015267716492812 8.526589615662123 6.188257277329321 1.1466865560122124 0.2329321762204892 0.5583677590880385
P 6.863927360793381 3.8285105951408176 1.2958346174708761 -0.31289785541185466 0.07089714123119403 1.0206785898498034
Ni 4.877108617477883 2.7025273482393084 0.8426639012600303 0.7866012442812775 0.09767569487661887 -0.1739302437649843
Ni 1.3919141380471292 1.1806938175279134 7.192320093823262 0.43149384538090846 -0.7429680809723591 -0.6032859597569674
Ni 6.940493019552837 1.1617982725795464 9.3618200550709 -1.6891029339773167 -1.1117187816877758 -0.56975208966558
Ni 3.222742189812977 1.8140998030573416 9.489702371395431 -0.5152786412080481 -0.784478798621636 0.9822061448062182
Ni 6.219566512337261 1.785396787309268 2.643509503993349 1.0980058029770574 0.5958346456852447 0.5989731913142265
Ni 4.3537794258452545 6.969997388532455 10.442464921640395 -1.0062613859832088 -1.1244069186784056 -0.49136378226366345
Ni 8.23467848849834 7.439125961595118 0.18239983367242693 -1.154762133931495 -0.6728980636281509 -0.2676348698089971
Ni 7.903209651813733 3.641658697889954 8.299793902333422 -0.6563846393541599 0.45592395339881486 0.06700783347911686
Ni 3.2683555800039987 8.36439754285472 12.504595388033717 -0.0018691919982548456 -0.7932812274046144 -0.2793045928374416
Ni 0.2759769466574458 4.86329438052045 10.24190624161542 0.19678195155217723 -0.03448826358485674 0.23091540290077653
Ni 8.730807201692041 2.2625935304077145 5.791083850058714 0.1505280627909601 0.8131409424430189 -0.08859121607684743
Ni 3.560722021503888 2.922307578277303 12.146446041882015 -0.250273238602098 -0.6272933784151584 -0.846730091252374
Ni 1.2005182037219353 3.02030032969387 12.88325664502696 0.12144682915428763 1.4829788790886074 -1.1069992647249194
Ni 3.438879905162129 8.65413226749192 8.17841620661449 -0.7740329206979638 1.0684936524505533 -0.1701988017470101
Ni 5.447681224624789 7.958257155048855 3.601870599315063 1.809547032898703 -0.44741308771432625 1.0431148073661325
Ni 3.2865226220145973 8.48823393598862 3.4568757489823523 -2.8664046437722246 -0.7460446630151538 0.9380340782746941
Ni 3.4382879965251925 4.36942402643383 9.261446920305174 -0.06958999238399628 0.1520280443752543 0.2718172833214609
Ni 7.630367089046035 6.232725096650703 11.477328842343182 -0.17360165678097197 -0.5130834333289421 -0.7491644395910582
Ni 0.5347320838660474 9.098382465229793 0.5180994511681234 0.9904023074637652 0.9634370917288313 -1.0212480892000284
Ni 4.572038906000658 0.3159726685696013 1.5047947576256653 0.25695990659365425 -1.2906804172290804 0.48599891840732423
Ni 6.455956609356375 5.768468386984368 0.17468407693278773 -1.11718957499436 -0.3796238959844946 1.092362488648351
Ni 8.042745283256542 9.031396620101992 11.079582629637754 -0.11577420424954254 -0.19219484640212706 0.6974366721994633
Ni 9.009650807409606 5.037661558675309 5.686565533577086 0.7297760077621173 -1.3154658517038762 -0.3530970533385596
Ni 8.16847578402864 9.087773641198542 2.365367992982059 -1.1258490504415706 -1.55586116907063 -0.2714334176194809
P 8.493023842804448 1.5506276093266897 3.596566187299436 0.44324378682798504 1.563948574064455 0.8184592693321389
P 1.6879230942358605 3.240217154032696 1.673766460897677 0.7292347905466667 0.09156315422097779 0.010601429664930127
P 4.953646957377171 1.1918581250492137 8.226743270248699 0.5143340179065916 0.13172275715899895 -0.35359507602090073
P 8.54838095978812 1.6856829477022228 12.523295147817558 -0.770326418380654 -1.5540724526013234 -0.033824404748612716
P 6.37325331334622 7.815898574722194 1.5712214767487294 0.3649992040927843 0.7030997840225117 -1.4788707704575046
P 1.6371373331866834 3.271406186055904 6.1240962023427175 0.26229417432237406 0.6583800725176339 0.2574455879808211
P 7.064720983015788 3.8747887442625535 6.103198184944159 -0.43383483480925933 1.019859436382618 -1.1609186404511942
P 2.5647219112737 8.6025451532112 10.314063546972704 0.7300976527675942 0.4721535278837998 0.8617880140267611
