# total energy = -340854.84609606303 ev
CRYSTAL
PRIMVEC
9.43146825796341 0.00000000000000 0.00000000000000
0.00000000000000 9.43146825796341 0.00000000000000
0.00000000000000 0.00000000000000 13.80390714295099
PRIMCOORD
 96 1
Ni 1.5039985132988594 7.08158019713541 2.4609879025596086 -0.3384186253907785 0.1195285290856522 -1.1306307881009303
Ni 9.363156108932536 3.0410543227555986 6.6693854231715815 -0.47576489938414185 -1.1848011034957464 -0.7326253042854544
Ni 1.4694227507554103 9.258532831820022 8.143973789078396 -1.8062963871718891 -0.029426018570600936 -0.29036856396108696
Ni 5.871617137479366 2.1311062676023123 13.933663534601973 2.118557894551326 -1.8411255790359324 -1.336689022748711
Ni 4.8733339508525555 6.951671153689293 1.6665460957132958 -1.0385472426001081 0.6026282715683104 0.48265751273891716
Ni 8.350810603169805 7.696483631544912 3.113885063600325 0.6627445201339167 1.3836803038965848 -0.6201076592999966
Ni 6.678083123176373 4.083448486309773 12.292448476269799 0.1116565825367432 0.26324008317541114 -1.8041952816684863
Ni 2.204058674387249 7.427271802292265 4.547075885990511 1.9358429626151756 0.010902505845116707 1.3648397741513139
Ni 0.3004809190334848 0.8722099213111962 5.72329315230764 -0.08535445430710462 0.8987535355075166 0.31158479302738595
Ni 7.968251388688797 0.8780932711951579 3.6036480049024906 0.864841199030788 -1.1564688322099568 0.5313513784001945
Ni 7.021077328418491 9.209357156451352 11.725701175512942 1.3198231002313077 1.2139468718217674 0.447776384591016
Ni 3.2410769010484146 1.057069528125261 7.594039966741125 2.09245348415479 -1.9520355132146383 0.5470250803817095
Ni 7.578137568152878 4.304720162532319 0.5927809825213646 0.9971290846646376 -0.4809101910305073 0.03312866423316875
Ni 1.1491772468921244 3.16466314542184 -0.06877615265121055 -1.0010204492992438 0.021106185850995905 0.5453600339744609
Ni 0.195947240869187 1.6940708926054946 9.309120397983222 0.0758439437135081 -0.13702154366409308 0.8342558700447632
Ni 1.024587551529615 4.978872080383705 6.8187157460038055 2.225537897548006 3.164411955225492 -3.8089312106006337
Ni 1.0555321988032254 0.6377257012405548 0.0391198439382753 0.711929980719632 -0.04896845947890276 0.8840087730981743
Ni 7.443229846543088 9.104592407315337 8.745534525378183 -0.29827830572646696 -1.2817509759499346 0.6104876197117292
Ni 4.450426915269291 6.430790026098023 6.469836304584079 1.5330027764152179 1.7159665911373803 -1.793429815621866
Ni 0.1022031623638378 1.4270094381100504 11.782973766359941 -1.4847295432311267 0.9346600195961388 1.3898182984735226
Ni 3.5679621585479766 5.525142720459144 3.6617071802001497 0.3833262845367463 0.195537794732431 0.18165306633053876
Ni 2.665049978696767 0.9713657762888398 4.84764263138492 -1.3058764082432281 0.5316375421820456 -0.09140194605276518
Ni 1.343012782023865 3.3948098332519656 11.30145204200007 0.08943916589943952 0.06609432052591198 -1.4322065336317462
Ni 0.5514570044569562 6.572931683842791 11.602888368765596 1.8026719030454246 -2.3246791212265574 -2.1222032046133967
P 7.041270101906087 7.114543178610957 1.6577248434746468 -1.1200602116739353 -0.468794895824212 -1.2690237581912531
P 5.949794577665577 4.0790345591765655 9.448843827272961 1.218668959887785 1.7856902808857633 0.8919874204282767
P 3.6511005510249275 5.12701215192488 0.7557029942246648 0.46616902816559064 0.07110077260156787 1.56294275850776
P 1.2391817482429517 4.443485354649548 1.996872895971206 -0.2918076104004587 1.8569437770151118 -0.38478435713951153
P 5.892998275964364 5.313840106159245 4.68120834091152 -0.06812652046459235 -0.41752581323659066 1.249102593787294
P 2.877276876883534 2.196834169720505 12.617557788301022 -0.384983360524195 -0.5025534803318957 0.3228637083753149
P 2.4950477637906934 2.300834969929619 9.209732528887038 0.19365677565963424 0.07680167964108708 0.25769395654620136
P 1.6208449732417913 7.596906189937239 6.616212691565619 -0.3580294576431705 0.11282000671722507 0.9016313712759441
Ni 4.111940951842713 3.1069519913019916 4.353586485742934 2.0483323254658594 0.43534895746094054 2.073662833810848
Ni 4.938392218726181 0.23388154925053062 9.270993687649918 -0.4210801062467522 -1.3722594636541527 -0.20087720466747339
Ni 3.506893401737057 7.930685850715378 7.999515762735518 -0.22090301297009698 0.12764370199361888 -0.13804535694291709
Ni 0.9231738030569083 3.939411103450102 8.70888478297022 1.5068330599983857 -1.443186686792334 3.2504009577928024
Ni 4.738435660710999 5.806455123455175 11.552214033094646 -0.645947503181236 -0.029420362143646104 -0.4924279618621197
Ni 3.508138355543859 8.794664929699332 2.979159369327438 0.19327728083302842 -0.18788773438634093 0.027823964190803695
Ni 2.307389840351795 0.5075733259140175 11.168465510469414 -0.40011378840773026 0.2390264620436851 -0.13338651801466703
Ni 7.818611713698519 4.080326670324534 4.293153409890942 -0.15909574985531308 0.3131228269384672 3.0321541514986294
Ni 8.635735258499208 7.341728385415812 7.138883911827578 0.8725863901938457 0.15348740252960016 0.3934044947083547
Ni 6.779914685691817 1.5735461600515575 9.94501073550557 0.7743422244082665 1.153662215999097 1.3290322775344015
Ni 7.915784130906689 6.671122699620163 9.646267092920667 1.6792545804283272 -0.8881104539713738 -0.774769284643356
Ni 5.247159625749484 9.275858438964677 0.3163540800702072 1.641060328746793 -0.6457968365359846 2.279147712453662
Ni 0.6475759266634621 2.418935815147586 2.274262751328988 -2.9709945492701735 -1.3666362039301045 0.14602117605954207
Ni 8.332551280670046 1.8820683489007939 0.76403098067471 -0.2987575593557306 -0.10661593478904219 -1.4644132002712777
Ni 5.406155317227243 4.435808139507603 7.045058722695422 -0.2533508490861572 -1.7316624046060825 -0.03703828370022008
Ni 5.067782531419463 6.233172472204711 8.891110180706711 -0.6186295320925732 -2.951020677251408 0.9459497335773449
Ni 3.057814041806256 5.330128251798234 8.067168627520138 -0.8085039578916399 -0.365604441776951 1.8588085981379923
Ni 6.023275146671581 7.62331430099061 10.284918021194912 -0.4369764657620345 1.3489331302233865 0.06727471398725833
Ni 0.5801211227117433 6.147459288900056 0.3136906334411101 0.9299484730530823 -0.9665028751383484 0.5782544707096363
Ni 8.391762038238996 8.929384021944456 0.8912812932258465 -0.6704184917394066 -0.33784578360644396 1.2703985270515927
Ni 8.313367674283418 5.458141570129449 2.451697906349762 0.9307442294815004 -0.3204049624221772 -0.06304627772820755
Ni 4.238218880018991 3.53000993037699 10.613879144852634 -1.3905158387611793 0.7676573561889231 -0.5663276373650633
Ni 8.905965686321055 6.176810018042231 4.799591187029664 -0.8707153984233779 -0.028124783260674142 0.1207847700902565
Ni 6.11215730330264 0.637145665944204 6.541450386026703 0.07952756321268238 -0.10006399260313735 0.40759621282770453
P 3.2867912275754465 4.772756773612146 6.072862977202048 -0.4068187112317316 -1.0841861234851455 -2.319261806865728
P 6.517446356226013 2.714395420493637 5.953707693835592 0.2285080790108645 0.46899955563585033 0.23108740970226652
P -0.20361879713019115 9.191899508751426 10.617427263202018 -0.33183711551851885 -1.7863101738579494 -0.773217880995836
P 8.811773613074623 5.105734759590451 7.973384936848208 -2.4053850210180574 1.9706109622239802 1.9742441881011934
P 5.955859011739619 7.6728106462792125 7.772041009855899 1.1225140725310667 2.1123445666517617 -1.2979777222214421
P 8.579099291757961 0.9704792182749052 7.5993960975508426 0.5000006320030551 0.8779440549613331 -1.883691734532917
P 9.092435244762553 4.565566279461987 12.338553265581691 0.2008239828320348 -0.3126595141488035 0.27847901161235267
P 2.720186341988912 5.5691971085771055 10.604161903131818 -0.9061616550461296 0.047692420979956573 -0.48624625853143993
Ni 1.1844698010213077 7.1749328697090755 9.23455143754309 -0.006753259563433531 -1.0361908265527897 0.29640242885999274
Ni 2.564435075583425 2.7744267157988887 6.602188098302633 -0.7029691719819183 2.346536069200649 -0.11726647252435288
Ni 5.634255376450731 4.672981271171572 2.7172437239001077 1.5868671305338413 1.455729299344035 0.08003998407272667
Ni 0.1687365118691585 8.273925274131562 4.920084795738432 1.5104454599399921 0.8728671546590581 0.11609430659312263
Ni 2.58662732033649 7.567744090159731 12.724510638067173 -0.4841981177531597 -0.0650090578815332 0.2564811671850228
Ni 5.6156470896263375 5.50842072728142 13.792215089772357 1.4767028162719085 1.298795847247363 0.19978962803024947
Ni 7.394582333395486 8.236935055720377 5.116583777499269 -1.54697517943491 0.3425030798727972 1.4352355502660572
Ni 8.230719718154601 3.924999819989548 10.348954861058866 0.18887889465501664 0.1080056160477172 0.16849081791696788
Ni 4.044260735800217 8.727861840202538 5.821176702220606 0.5548929131655604 0.12055182814384402 -1.0147048887648717
Ni 1.3064847055561135 5.129134232277384 4.273302998700217 0.8441831564608043 -1.7027228387535966 -0.9029860855316254
Ni 4.612770777969887 1.3553019851319157 11.399349739115387 0.884536106356554 1.3231380235371535 0.29592908876800006
Ni 7.5473721187757015 3.3537735149686743 8.131467662200977 -0.9965022497139161 -0.8976713581869313 -0.8441451041340172
Ni 4.435911885658171 3.664276312146913 13.023669265254343 0.33208599830453134 -1.442394787018658 -0.2806726768295618
Ni 8.13281164642423 6.413992581174433 12.867878386682277 -3.4947586022414128 -0.03634922805299546 0.3866856879272824
Ni -0.05662464897936671 8.280612185109005 12.763009891395694 0.40203928756521723 2.1359892026538954 -0.7565149664188583
Ni 4.734068890918958 3.1714726654863163 1.5095404440327738 -2.6147031573640325 0.3970747444710903 1.7265564508380844
Ni 5.075761553544875 2.4546716482837363 8.532415410296542 -1.055062466646312 -0.9395448584922658 -1.273486421948297
Ni 3.4336108935639538 1.0548531330904245 0.8801097191034475 -0.643322406853563 1.8094698998038643 -0.1099038615116946
Ni 7.386961707062942 2.9055524186471073 2.629064211652433 -0.7291491728113959 -0.18326360535076824 -2.4001070604485695
Ni 2.6602116354930603 2.800268938758258 2.8090675554731472 0.9607819134941711 0.6024295252939431 -0.5367015869685143
Ni 4.630766019359113 8.737538526609951 12.16016553226935 -2.6327417600332983 -0.9495127683382549 -1.8980749998377826
Ni 5.589852024008135 7.25140321414505 3.983766355404708 -0.5527357576132416 0.6358132429607114 -0.2807570090132519
Ni 2.584976813395654 4.8024564670789545 12.741517461585545 -1.4085377292598968 2.267502929125882 -0.7754408567890838
Ni 7.422744697540259 5.436618959620952 6.362124221625143 -0.5816043610184758 -0.2165192820801045 -0.041088285399877626
P 7.312123006631336 2.0728575197931636 12.353765280695255 0.8400588498797855 -1.3557226423413942 -0.7501347739241274
P 1.352670605494812 2.8452853366360222 4.840091797917302 -1.018274608394001 -0.5365640329493856 -0.6606195033711139
P 3.0001972023687413 8.249158238550795 10.000364965713903 0.22413103298909143 0.6366539936944519 1.114621042936235
P 6.0601616189322 7.334833982137235 12.375962241182439 1.763621474011182 -1.7623099542886103 1.3112209603845935
P 4.663832746985226 0.8663520363914646 4.208148529850612 0.8677208345714283 -0.3402477081797173 0.2660035048531612
P 2.602038339429778 8.54108104330934 0.9496715130584957 -0.2729537109187492 -1.1275326087915807 -0.34764837151916256
P 0.6139970703122779 0.20823833027088437 2.956907706324503 -0.6051402393568869 -0.7110087544569432 0.1854079053872807
P 6.43337424839396 1.0193247922554076 2.1083952920964135 -0.32811338681002844 -0.24206010666368638 -1.0160763151911016
