# total energy = -340875.9845529394 ev
CRYSTAL
PRIMVEC
9.17823561441678 0.00000000000000 0.00000000000000
0.00000000000000 9.17823561441678 0.00000000000000
0.00000000000000 0.00000000000000 13.43327557197178
PRIMCOORD
 96 1
Ni 1.640233336589278 6.339829646608158 8.699698161906705 0.3989783892517064 0.4569485380085872 0.04709386816400921
Ni 7.037458169406755 6.453511274880908 3.6540126086892504 -0.6797035165857584 -0.7678733288544711 0.6301542449027212
Ni 5.201095112604302 2.667911217751194 -0.04643820171232065 0.7720642270073671 -1.448339434637867 2.2039450018685787
Ni 7.3307762282102855 6.593249914510539 11.603758043484415 0.2186278437826751 -0.7209697223243969 -0.1841804607380828
Ni 8.171631120231897 6.485304683595328 9.095093805496367 0.591042366502924 1.0819153251730982 1.6683132509254752
Ni 0.6700626094807883 0.3073506634754349 9.636924529534959 -1.065427869041036 -0.7027241458506478 -0.700713286068206
Ni 6.63030245232235 1.4157887590192944 7.122175121230034 0.4913167310758119 -0.16923232406868274 0.5585505645228058
Ni 6.898150906858412 2.693188079067451 4.9845915446243065 0.1746925758523056 -0.6415599156365015 -0.012088041512785634
Ni 3.7190394913107263 0.15986559285418409 4.1230755260562075 -0.06775962404347685 0.08036574284326159 0.45674490663821343
Ni 0.13362685242901565 2.4703405145218054 7.179548273041189 0.8636158112641191 -0.36559055781988004 -1.1409367980126286
Ni 6.028090868610101 9.081102502885438 9.36847398273225 1.2669203386950052 -1.0120072873280506 1.066455281864286
Ni 3.8719764339805813 5.405173184996082 1.6303694866050438 -2.4086582924526905 0.362473352347137 -0.7973111744996139
Ni 1.7877275854463008 8.623301280810798 2.833453549430398 0.09042389841021202 -0.0374602017289871 1.208053646265784
Ni 1.1985949877092392 4.294680082462858 5.213884066329092 -0.4560887611114532 -1.695633793117299 -1.2237931684882277
Ni 8.882953570802409 2.5793687772581197 9.487828678535712 -0.2664282510954057 0.8886105335362438 0.27968845853942154
Ni 1.313378004274636 0.07877587980802372 0.07198123186596686 0.43586163543130096 0.5713973385784868 1.2808372058864135
Ni 6.437642105231014 5.776533782569449 7.81490246612635 -1.0335667586663813 -0.7504510196129657 1.6835326389783907
Ni 1.793895359885126 4.368362959240965 0.6802972601902136 -0.24533132121579035 0.6681271246020687 -0.9245406717739496
Ni 5.842433515412848 6.13410867001318 1.638336195255193 3.1386932103031495 -0.26008611092746176 2.054735914999358
Ni 5.6810617740684695 7.9945554174815205 7.5571849482354905 0.1233784989593617 0.19776565562168522 -2.0792346714716707
Ni 4.367105540940193 0.8624916650306681 7.833050591718447 -0.020640816178803163 -0.0568234367469473 -1.1293814890748612
Ni 9.019507362619136 8.456083003279616 11.820611302247327 -0.9456070055259457 0.6235814767812099 -0.4925526603654421
Ni 2.193708488351882 1.5894226233551474 8.403481616246356 -1.0078642116939547 0.40834388962700646 -0.82269233357688
Ni 0.7753259599034034 3.6889348779783657 2.6710455852673527 0.36613254636627907 -1.4828865764851171 0.15948707175646082
P 4.833828008185274 7.963413663506918 10.965059301283913 0.013823279036337484 -0.41779526484789337 -0.26471409661777634
P 2.8410219226480398 4.463990997750071 3.422208003853651 -0.7633389313192273 0.9170942427982334 1.1936004469549313
P 1.7110250690991857 0.7696868518450489 11.431690903994852 0.7352635132392498 0.1647966568948323 0.6163196530124739
P 3.6936157782221173 4.424625544523701 12.619985157697108 -0.9439136769839227 0.8605909083948663 1.4102652534739648
P 5.4714859384492245 0.39769020253267845 0.3570535636518777 0.3634367447016709 0.4041933577937426 0.457315948650335
P 1.0765244519408257 2.1301124926872705 1.1112760060445808 -0.17810957195365454 -0.27087523112316575 -0.1587411947293718
P 3.919501338808314 2.6859923422221548 9.067165351865563 0.048284288927684584 0.8495750169003369 0.1876285671876833
P 1.2361523284885132 4.294937073064475 9.241529803768872 -0.6562617406230504 -0.30135154533515196 -2.108339559257427
Ni 8.633645152525911 1.0769282943147962 3.0010609841583156 0.6967147064317744 0.9968598901636511 -0.07566910869854064
Ni 2.095235196753438 2.844243483404033 10.513794818726137 0.7599934118857622 -0.761561013483198 0.8985835855885557
Ni 2.7986735427957496 2.481069872139345 13.018697815694793 -0.7648324851456182 -1.1875123317793226 -0.09191025314775139
Ni 3.664933791434426 3.1029045239322603 2.041091866110472 0.09158603703911324 -0.25611298521232667 -0.23986361323299982
Ni 9.121440849103646 5.238725879269753 7.401332080060851 -0.3784363034342967 -1.160603937424253 -1.4782624474495443
Ni 5.2906655155038464 1.4490231507499276 2.945595069740596 1.2832766685658417 0.5306073011453185 -0.1261653176758795
Ni 2.0569803100554873 1.2347021672365277 5.873417403732172 0.102188752255624 -0.28153708171238606 -0.052050697948652296
Ni 4.6835160409462295 5.7042459976286946 11.173167537003206 2.0251162923607122 1.729478509580886 1.9413885750237532
Ni 4.6932449708646145 4.805448903178061 9.261343779153597 -0.380192624003771 -3.3212189090466286 -1.9589273552384652
Ni 4.742541275196355 3.4573312765061748 7.084628794333686 1.3188303973007351 -0.6474014620189431 0.7383033285068381
Ni 7.880479125070573 4.156731198808779 3.2171350107041796 -2.0355994512802233 -0.05248727126543863 1.757221484022109
Ni 8.649431718053858 7.951371818173974 3.9845245501354816 1.753248358306974 0.1901562187055435 1.3575864350230105
Ni 7.501124284139741 7.283132006317516 6.305391988167808 1.5972659572696621 -0.5752095132357256 -1.3937888530854965
Ni 3.4681157035383463 3.282421637398005 5.182087904143941 -0.8841185592031612 -0.3090406864492936 -0.9292375630289867
Ni 7.783813945919224 0.720446534751518 0.02707854899831204 -0.3500382119075778 0.06992757822907311 -0.16302748080955148
Ni 7.731332793774579 3.0572060880231677 0.9759502621741566 0.3016608490454547 -0.32555642471612967 -0.06423284183714098
Ni 8.233703528758348 5.460205886685361 1.3383492303396827 0.43954782603363657 1.559764103669462 1.6878742037765384
Ni 3.4657293622376106 0.8779432249529331 1.4832212572366277 -1.526734941128635 0.992899362854006 -1.3424086988413075
Ni 4.450122683498487 8.206471703222642 1.8858172267894728 0.014782300515497124 -2.0557255326061368 -1.0549930468609574
Ni 7.149588675834027 3.2551898118622993 11.568790800840016 0.3250434896354531 -0.4176939633833387 -1.1725716513090902
Ni 6.003410592619029 2.1436320339795167 9.404273691361174 1.0133879697256611 2.2634318443803023 0.05955986184150387
Ni 3.2490495721307906 6.620454205338929 12.855282081243974 -0.4399473754649004 -0.047153774867667184 0.3583253916170345
Ni 3.6503587530283927 8.233822845823383 6.241260901357685 -0.892591886781495 0.2504442169623235 0.8428585241121097
Ni 5.21373354326243 6.636525296175808 5.54184445823069 0.5576267671569557 0.13111186304787745 -1.2786039456805207
P 4.594487153957235 1.5406311219908704 5.7159390700023005 0.842769306832413 -0.8618396932003027 -0.050356340965364885
P 7.463998320441753 3.425528689555983 7.349506253950331 -0.9496336101868356 0.2939737648138421 -0.0009317677856500082
P 8.967136349303754 5.867994902038038 5.029741122034229 -1.3619791647740673 0.6079609966351336 -0.009396610723551559
P 5.780627275723789 3.649780524174753 1.9947472824030266 1.4286159880670106 0.2843879208976199 -0.3710140428282965
P 5.484684241489448 8.072955907446469 3.6793069086534733 0.6334815095037413 -0.8216127273594561 0.9655595373884724
P 1.6654092373120417 8.214989106019114 5.18181898183582 -0.35962097050000646 0.5180839718673271 -0.788311799214481
P 0.26139799043545625 2.0783013517539852 4.8553362858935225 0.007417632620309806 0.8604767514145051 -0.7464280144965016
P 2.2297881331718545 7.321377714779695 1.232566391772369 0.3604473230560437 -0.38033840555301596 -0.4034194557421955
Ni 9.36574712888437 4.5884570530549915 11.0852464630719 -1.5362454517222317 -0.10250371239288153 -0.1851723923377069
Ni 5.119436348940274 4.4905436338386435 3.8968861658659555 0.7530432058201741 0.5529699851112347 -0.2932463997295143
Ni 5.444685489994805 7.133756219127221 13.211975858053588 0.8361759698856115 1.8277131622847684 -1.9892437468338193
Ni 6.884356018493003 4.925931604157909 5.871107241788344 0.9798163044178028 -0.7348827328610634 -2.4946948604284844
Ni 0.2770459646032433 2.483933481700228 12.228727062793489 -0.07111568499990333 -0.8417120692124923 1.2441341940384252
Ni 4.106003089696597 6.887008528631129 8.797963107553123 -0.5276016815497753 1.2212552325577226 0.4573393456891026
Ni 0.6350494756575293 8.059629109105435 7.284099392367891 1.2208253441091557 -0.13233519393201726 0.343758292436137
Ni 1.3209408705508143 5.919071784109558 2.7165980872276694 -0.07533075152251542 0.7843278748660686 0.19540743980215378
Ni 4.619378529371066 3.1016195709241723 11.317508144048949 -0.10782075373042076 -0.27996999433558234 -2.983017027652346
Ni 2.249346953602117 4.0419114693002935 7.347424630077228 0.7762625813594308 -0.4481718202572217 0.3224111942189286
Ni 5.942916840645373 0.7687947273280046 11.53829703031092 0.25956212010319163 0.21486811962992672 1.680751733799144
Ni 6.314626211178078 4.720137201676754 13.145293221698832 -0.7325808242007641 1.260613422640371 0.3900643745915282
Ni 3.465646758115662 6.754796042334588 3.673087736094325 0.11291822285798618 -0.06476274619868201 0.9886524146521941
Ni 2.071647130819241 1.7302810077489699 3.210365143998707 -0.7627385787310671 0.46859023601257366 0.7968596887844921
Ni 3.6344161574923226 9.222199521409335 12.403373286535 0.1022118921840756 -0.33586372017940863 1.2998705683687808
Ni 8.629037678168336 0.32726101033576716 5.830309983781532 1.0836415638355854 0.7425451345023276 0.35882212874779496
Ni 2.0444887311697117 6.225845136554931 6.147618115246076 0.7759825882251667 1.0093575084100295 -0.11365972900970102
Ni 0.9255241170188754 6.589312451364325 12.9582618866065 -1.5610771660539309 -0.603716876646799 0.34475510913176755
Ni 2.506548654642587 7.943129762450662 10.335710427864411 -0.09065169815030194 -0.273273041931381 1.9477150314624134
Ni -0.04148654351329365 7.665735942711658 1.7851879676081714 0.023482399392656332 0.26800073778884814 -1.2005000022882422
Ni 2.3514823612736135 5.34188924934772 10.845234679808923 1.251139935932297 0.5286864299735217 0.41756566533559053
Ni 7.00118578163557 8.769776745497124 2.180919534627092 -1.0688500073487077 -0.5557544898349074 -0.21902327944888084
Ni 6.509746325456327 0.15272033630563447 5.174525037867762 -2.0032601157175693 -0.4993149187899401 -1.5276289136978143
Ni 3.875629371817862 0.8117598846241773 10.210767104299343 -0.6972242990783412 0.23531713151289796 -0.15362135700430318
P 4.278443783382082 5.559597001861011 7.085542946616584 -1.4775134850986618 0.03801890244593452 -0.1410257797274797
P 7.8685474185668935 8.545910396780778 8.011659059842756 -0.9136875311095296 0.8380690731432663 0.5180441197683272
P 6.753125603424072 4.870256425964586 9.8943327408803 0.21413226990516668 0.303828803231051 0.9568506967605651
P 0.5076381244933535 6.721993027685241 10.728619687383423 0.3307145718783014 0.8980711647285113 -0.7699446095612029
P 8.51483289045658 4.735914588968926 12.95963219720727 -0.15593303585661533 -1.6547059445546857 -0.8243915756561737
P 7.7203005543765615 7.575853479795863 0.2565509641242308 -0.6639246564849469 0.25645082816771964 -1.0283942133265063
P 2.700466420034695 8.562945202373724 8.324735106792804 -0.6885915631040076 0.5988148113594913 -1.0016819941426427
P 7.965588905384896 1.2105450506844628 10.869965436096743 -0.16889345267202524 -0.7716093988581356 0.7230505161128257
