# total energy = -340886.160286127 ev
CRYSTAL
PRIMVEC
9.11409007355746 0.00000000000000 0.00000000000000

0.00000000000000 9.11409007355746 0.00000000000000

0.00000000000000 0.00000000000000 13.33939208899769

PRIMCOORD
 96 1
Ni 6.5804276423159065 2.211734441010304 11.674648887030182 -0.2847725579305483 0.14895351921498862 -0.4455976317721423
Ni 4.918163457369875 0.9483484035671408 5.9838512122457255 -1.0308984678055986 -1.9546757790509623 0.9512618898188778
Ni 2.6520725837831494 1.9688986278704341 5.175817869390698 0.02481731615399597 -0.16800925029485902 -0.4781130879013443
Ni 3.432202228788415 4.994165853623192 4.970123795693389 -0.42748755243499287 -0.8846646615146183 -0.5498548365210207
Ni 3.490887854100216 3.253638978111477 3.019664794648679 -0.6443878720035999 0.029301834287910826 -0.3129423354965449
Ni 5.542423935721558 4.388972051487115 3.0656453785433886 -0.5256162756886302 0.19126050751331578 -0.4802381046641471
Ni 5.13002047870437 3.4213017771852297 0.245776929972937 1.3670038716821682 -2.0895401671627365 -1.0385845235959468
Ni 5.872663871666238 7.9907236959729095 12.321543296411422 -0.9902904644762495 0.5152598721549706 0.07105732095814214
Ni 2.4250041462900276 5.643016146711828 11.498155446185253 -1.186953888172691 -0.26661876983965693 0.27725259540441927
Ni 0.7433032530756402 0.3551824659634414 0.7003932060915603 -0.9619283683937884 0.8669340770040747 -1.1208824504649146
Ni 7.7938775808177185 -0.04394996464956768 7.1201275939331765 -0.26275517311919266 0.970563418360967 -1.25200639769765
Ni 8.93452416864541 3.0020718667810957 1.438453123207909 -0.27883485228987465 -1.1744382722041837 -0.3668388284046844
Ni 0.5310142238766045 0.4073241746773431 5.050080795584351 -0.22392071675049824 0.6694594702602471 -0.333854917279496
Ni 1.802694083191757 7.310311309320869 0.6326709605752789 0.04817810236712348 -0.5315997469655748 -0.8607472314670724
Ni 7.587479899374786 3.980624364506228 3.956156678574863 1.9481611178608962 -0.12940696454162876 0.5547175639299609
Ni 7.701597419879377 4.261001114229311 12.594400010500905 1.3767614652895643 -0.8244797644946058 0.053365045884701645
Ni 8.407228493476248 7.748133963262209 8.996299470456776 -1.1739042540775848 -1.8287688572427923 0.6226131993306696
Ni 6.900988414713276 0.7398772666562108 0.3376961729484979 1.0365296979494472 0.3599241035627221 -1.1319189107847345
Ni 2.1262625052789685 6.984291197031937 9.042026682650341 -0.8787061299383383 -0.6616376602229832 0.13719432179653146
Ni 0.33823663848367264 5.3142162369822845 1.2797121068050252 -0.008647905482985108 0.1982359103898844 0.16868107955090306
Ni 6.59917532538259 2.2890948366690345 7.033034261596317 0.2086553059509955 0.836928788891236 1.3487274419704838
Ni 4.039957090205844 5.049488379736352 1.1092667760636707 0.13960910188561118 1.5673185189779522 0.2766180471442139
Ni 6.384893956116282 6.124923653834281 4.65120629371747 -0.3513715860070207 -0.4040925705498202 0.8756367469843951
Ni 5.550672187143702 3.2898219152892767 9.485601238771256 -0.1624530963633202 -0.3186167601735029 -0.7516280706402024
P 0.3520381049240609 6.095630968673212 12.564412831684178 0.4166827485100049 -0.6736143729688849 -0.6795001423257008
P 4.166323947629064 6.10405238780477 12.541176459307655 0.8006572081537114 1.3267136567035538 1.5129970227172522
P 2.5368796006621905 9.116550773510651 1.7568647931905366 2.353814090919301 -1.3341289753310184 -1.0280810529614617
P 6.258353930983646 8.345845097533557 5.668988568897112 1.2465865122336595 -0.6386265440397905 0.5102570196237406
P 4.8920151332481865 1.097290861844117 12.69908809352334 -0.466761410333951 1.0537943985671658 -0.8772372587022956
P 4.269750640599761 6.42133208781322 8.122742200586044 -2.637842057374341 1.8431333534945804 0.1904128148010398
P 4.919457658145505 1.7719522577255815 3.5676740620908864 0.5725355659479882 -0.42649150707031064 1.3536549611790882
P 0.138758374145371 6.106622561176089 3.5700218516669566 -0.11781206061517774 -1.4687712201296577 -0.8823771510320223
Ni 1.190901679917965 7.93739715556301 3.0088600409901702 -0.6964516825783748 1.2662379679159999 -0.46140785933152145
Ni 1.6617993663576012 6.898764576760787 4.98913305314219 1.6938170516235342 -0.640045278764188 0.8336282637630933
Ni 5.970093493437189 5.800352681850455 9.169070716958277 1.710027599945126 0.7698921590567128 -0.1753150399276529
Ni 8.712413796095545 2.6235454821794937 10.326543737687139 0.6703040776487295 -0.5587151151251281 0.09650635715886605
Ni 2.4225433419983387 5.281150318573959 7.285829040845552 0.42416054494428884 1.4160142401426001 -1.2422621738266928
Ni 0.7405480636779452 0.30037306311554934 9.272371635487398 0.15863783638228807 0.2747699381918816 1.5423556783850276
Ni 1.7519194879732383 1.149113577409096 11.832267047548855 -1.0262396288773488 -0.8141758114654364 -2.28019980786726
Ni 4.185736959263501 7.582075244023039 1.5753959706314116 0.29706963013034643 -0.0840997559643971 0.05266107783914156
Ni 5.71604734963518 8.112378568882045 8.001487436226558 0.7059999883884421 0.3163037957696101 -0.06184274433840962
Ni 6.988620389767315 1.6291709242677972 4.738232181788557 -0.3673476497203028 -0.8354213511077742 -0.7768369658056621
Ni 0.7028503647472618 7.944460575289154 6.978956720172953 1.0071512447873299 -0.7909335531080443 0.6221447443346834
Ni 5.038150451814643 4.908347582473027 7.033287633297462 0.7902779218019165 -1.1569102906227495 -0.8813497382087725
Ni 0.791301696489535 7.802690905817954 11.142140863807622 -0.40760932545382705 -0.8899369656571511 0.9770420841067755
Ni 4.817416306850129 0.5476665776593644 10.520871629783837 -0.3853973081331621 -0.5921672241359865 0.3458673683593398
Ni 8.466187541487125 7.505088526053047 4.9830895000836 -1.5609419260276471 0.7426328091201275 -0.6346919848720747
Ni 7.281191791869214 6.664632719541521 6.958841012201891 0.19040715837408498 -1.2624623029236517 0.07922880102534097
Ni 2.468059107304618 5.8890236631609865 2.562403609620988 -1.5648356046550986 -0.35641711885072813 0.8702603131638302
Ni 3.439192735794806 4.689208403253126 9.388116932460491 0.013749488375608576 -0.585184107949934 0.32612206741161254
Ni 1.1725276745400195 3.8986522393230727 3.4328393036772638 -0.8506255696520383 0.18301240857191062 0.6642640421022367
Ni 1.6782594128420105 1.4007991719090778 2.984929174957992 -0.3163680733486422 0.9063861123521101 0.37005296446660785
Ni 1.101538027769773 3.5590247907100974 8.102106989486735 -0.003286126950439502 -1.5461519122026663 0.7717091576607936
Ni 4.967616509542857 3.1382090286513193 5.4405912970864785 0.8781500003245521 1.2161163686692604 -2.1081277003569374
Ni 4.444367490320027 7.004688530383049 5.648912051512916 -0.9061742534516201 1.1584634940424825 1.01634473836114
Ni 8.347722600067216 7.7596815152532095 0.04875217865434915 -0.3580546544541511 -0.06552507828600328 0.7232124956119866
P 0.40268419147401374 5.8738487033622375 7.944955470374483 0.016085335597636814 1.7570556478682062 1.641716217163237
P 8.572913535026679 1.6976997667463545 8.174059084157731 0.40035547210489114 1.2088085221539375 -0.5527882081177319
P 1.7629657650159316 3.338655209344352 10.484775276460745 1.6369162246714326 -0.2438117992474704 -0.52706740631286
P 4.379165290680235 6.201390868676028 3.3593523962554515 0.8962454243736823 0.6828526037377014 0.9627117835270323
P 7.304086385871892 4.277597872063259 10.380434440266134 0.011291513753419264 0.5071873795594813 0.24491917337903626
P 6.401126150351462 7.972531972394349 10.072961501064563 0.11261123314052864 -0.42787707456392765 0.3178346305918397
P 2.479579317025711 8.838771539428796 5.75804234198635 0.5064281327959536 0.14684829994652773 0.8242856462059289
P 6.977929562233422 4.300911714204521 1.3306361730990395 0.25442916975200053 -0.4771463531127009 0.9796121588267966
Ni 2.5887387725870465 1.8276028910776325 0.4503435907410535 2.31404298166895 0.4803188373034114 1.499425711790721
Ni 1.6390050273445844 1.088550449563636 7.374816281078016 0.2563222730096553 0.8853390618738237 -1.835028464999259
Ni 6.742175396999635 1.0236399008028585 9.232900334648704 0.41588724919190306 0.08936588945934287 -0.11898422654640799
Ni 2.8736269968448926 1.5594207937333646 9.423573476667743 -1.8892471171335072 0.8932878844072552 0.9795962179871968
Ni 6.5578611555521205 2.303285474751109 2.1822175492359914 1.5096964975891096 0.5090856250234588 0.9295782341978571
Ni 4.187760287236667 7.022178469033981 10.456176173546332 0.8245067610777994 0.39050069079799843 -0.9550825491165488
Ni 7.478730577862065 6.389724423799969 11.525581565720627 0.9506630798926144 -0.05725666762962396 -1.8771115102122382
Ni 7.965213358149066 4.358731500969246 8.263659702645123 -0.95565693356278 -0.33636508529585946 -0.44258327042585066
Ni 3.4237625814769186 8.358814447559757 12.322343513510722 0.10742248985073757 0.20924254591303318 1.87731925534767
Ni 0.5934940448425913 5.142798432841215 10.10452268321897 -1.3775230260459372 0.32051860518190606 -0.11840032901847997
Ni 8.908485213603353 2.609528011806835 6.001126058373383 0.27128789318055213 0.5098315020505477 0.15134593070656513
Ni 3.8560347546270046 2.9518805733206066 11.319141048054838 -0.4272713226591287 -0.14247845301360626 0.5840034573782716
Ni 1.2126478985845215 3.3212199552332358 12.598295372553748 -0.8544405725227542 1.4878686030807406 0.24668372147862677
Ni 3.5375246524727095 8.615831784691732 8.051750730997803 -1.3897990151998127 0.9217494821820578 -0.5338337785024161
Ni 6.041575301065774 8.474663645158499 3.5316706724854803 0.995400532009305 -0.05050469361777108 -0.6008914913828619
Ni 3.905779457679002 8.835709205199139 4.0828944794598305 -2.1710634206492094 0.7513210809227447 -0.9339817625821916
Ni 3.4836148103047795 3.039002159336371 7.208860551055499 -0.8355270234477029 0.05048875277817111 0.7591243790172475
Ni 5.382653938561151 4.988506003752308 11.199193244196938 -0.3691417655062481 -1.1127644493434707 1.7988149911931794
Ni 8.221993728941841 0.0541112635562499 2.2585589896361635 -0.40339040227647305 0.1740253745819519 1.5269750821638992
Ni 4.928945425803461 0.9073340872966584 1.501455181529132 -2.4677525275116854 -1.5366683981922633 0.6882292946685825
Ni 6.297325779692027 6.0280773338213605 0.24884382124757917 -1.1118139125047433 0.13309161248206755 0.026672109974547612
Ni 7.813718954680708 -0.10595676434615198 11.30472073490554 0.9797723385537448 1.0815098622045631 0.10044348742974316
Ni -0.0010690827533893844 5.288924637317702 5.956384990714486 -0.5677808248718222 -0.9337984429267918 -1.006645508795505
Ni 7.234017262188537 6.270038194324185 2.5080189233656616 1.2192718835791068 -0.36584843946695705 -0.1776272330005973
P 8.78412345597336 1.9472617782835084 3.5219997116191424 -0.6590670712823296 0.39078428347668825 -0.01543510360814761
P 2.269007382376876 3.8767875374869165 1.251022774399918 -1.3982422608711598 -0.10125544180807723 0.3869060314682047
P 4.609897592340982 1.624458939753711 8.362305144017968 2.5609647873003123 -1.0257912284860204 -1.4123923271192966
P 8.612249947333828 1.7664746896540808 12.575884736728435 0.24942734566203492 -0.016640950990790698 0.2681694021562284
P 6.435595638615048 7.997468122550132 1.4011163422400066 0.33992606317424034 0.18772781176970896 -0.6265832397220111
P 1.6539156785342266 3.8658870858837306 5.768046878545562 0.8750942442173638 -0.9269153426537134 -0.14374934930622985
P 6.975651039741117 4.379985558777465 6.129036842637389 0.06309435735732359 -0.21766419431782516 -0.6443963566440322
P 2.601051908135461 8.620808077814925 10.423947840006177 0.08950524325068455 1.3326935284360726 -1.2551943085073287
