# total energy = -340871.327800654 ev
CRYSTAL
PRIMVEC
9.19800095091950 0.00000000000000 0.00000000000000
0.00000000000000 9.19800095091950 0.00000000000000
0.00000000000000 0.00000000000000 13.46220413985477
PRIMCOORD
 96 1
Ni 6.051226933917461 6.339565871458892 9.494542784866006 -1.9199928829567965 -1.6509572761455307 1.1356033016148572
Ni 9.149481614326282 6.570380510308729 11.160234553029937 0.22239091036953312 -0.011437295302664173 -0.09654415237533695
Ni 4.53623337568371 2.660310255464322 10.97284091783111 -1.460658361214536 -0.6005063401293013 -0.3015374360937129
Ni 7.773249100234104 5.787198313203961 0.044605706188821335 -0.7250590619024223 -1.5954679848289748 0.42561013290662186
Ni 7.290841538117368 6.3115763542029715 7.486493138676815 -2.4697304771736626 0.3028605257805107 -1.1692029919471736
Ni 5.793011449880183 3.8269387211740145 3.085308493902838 0.09541338120500342 0.14558845939749765 -0.19498397911148999
Ni 6.133558241494765 2.3340387615103326 8.218043276575411 1.1972472996788992 -0.8357962179486896 -0.11443183128903518
Ni 8.100136860259783 5.21036407210291 9.44823268907892 2.5287761183829094 -0.4072912799927759 -1.7603903686683942
Ni 6.062365713213195 4.092825338103649 5.781155226500991 1.9593968386757157 -0.7883591075126487 0.13916532947997323
Ni 9.04149708176483 9.113958934194057 0.6318125330964792 0.6169475164044601 -1.0625623745677828 0.14060000504397074
Ni 0.8537041911083374 6.680600157130184 0.14146893565657237 -0.0895785196907812 1.990566322299985 0.3213660407838659
Ni 2.9627589266470875 8.540675121506013 7.66489480802964 0.08444325534674489 -0.693370729660206 0.8251292251531468
Ni 4.998359345441162 6.250474033095159 11.714029641050928 3.197169866382803 -2.558887335945993 0.34701896546527977
Ni 3.4430877405220106 6.4734151830291005 0.5103805229707302 1.3988402994664748 0.26959456463852927 -0.08847911597901535
Ni 6.317352698874914 1.0027844726503103 13.778027968348429 0.2747002612962108 -0.40596870452661044 0.19805644738922662
Ni 5.550745299698233 5.936150742531061 4.544275188019185 2.1956192556117027 1.2480600114553924 -1.2920850108860908
Ni 0.5012073565036488 8.780936107454709 3.0625167670515583 -0.5313269529201623 -0.16006145620269208 -0.6063275747967688
Ni 1.5468922259444078 0.4615372976889735 6.192843037591153 0.7703297608147637 -0.1132511807173727 -1.9346782528831135
Ni 7.108022068850637 0.48233673750849754 6.064911719909363 -2.0921788903371645 0.12065595782187608 -0.663954738391934
Ni 8.44559538444573 2.7347680741257316 8.805520524714526 0.27246442998715653 1.2400754505880192 -0.4607265169937807
Ni 3.917106725662934 4.874407083022241 10.304375270270906 -0.8648345141625686 -0.2766715260899687 -0.5130376676926713
Ni 8.978453982431253 3.6342773907624153 4.536331794295158 -0.030409722640108917 -0.8322990034287086 -0.9170006546431627
Ni 0.844515388039437 1.936804689301522 3.0066490283526655 0.31572375489642396 1.2471079319547682 0.5125231899500979
Ni 5.466601985910144 4.719071240952581 0.3939513056269382 -2.1594055246953068 2.644584261194181 -0.6995259506283242
P 1.6852209640356923 4.366769403970576 3.649576425942097 -1.8163239466112202 0.20811948805218353 0.6221791971170446
P 7.817233941350703 4.098537296768099 7.09617044447198 0.8344836697848531 -1.059469337464756 1.2587696845634129
P 1.6063297088585564 3.0448050961912236 1.0951747141977346 -1.8494253571508794 0.3724155511615135 -1.8546069013518192
P 1.8627331866850507 7.164930101470544 6.239637868034627 -0.23124373277447274 1.126275596456028 -0.3192801047891146
P 2.119136664511545 2.8507732636201983 10.229538493965412 0.30779678673986344 -1.8349919553343685 -0.34806437601065865
P 7.314434410861843 8.983972783073236 2.072802653921676 0.21461229486537875 -0.38143780926478177 0.2651195595863111
P 7.288054543793167 5.3777584935753 11.34014377475813 -0.9698555936606652 -0.3049428622308361 1.1666887101657522
P 2.287110560051344 8.703433750439139 0.1650921618045773 -1.4745816561638476 -0.8582753728878121 -0.07689732467868692
Ni 6.293456292095131 2.9432775603808907 12.324015317608367 1.37798042529833 0.28984097359239114 0.7354524893216043
Ni 8.584770338635451 2.183283523973518 0.4535939039649471 -0.2920963452854711 1.1172484532567533 -0.5514072686098053
Ni 4.449707779618499 9.298443241654454 5.7515109888525835 0.09084555932866291 -1.3927012764482725 0.595918977868935
Ni 5.847233666187658 8.539552965375476 10.404237967887575 0.12573028702098993 0.2554684096497923 1.4360644739252557
Ni 7.707253442557067 7.7734974462629935 12.543368327324915 -0.752849087531497 2.014080860482157 -0.8231067954064792
Ni 2.752115504143696 5.824542197548041 8.081267161064737 0.23797642351261594 0.8909252977123495 1.0008011341995862
Ni 4.373805874789103 5.429147725553224 6.356812123465086 -1.2445766808924823 1.3519698601671812 1.7304447301488972
Ni 5.648474061066668 8.639121326957905 3.627377050359723 0.5144070372363722 -0.23039758272409352 -0.3645916842417205
Ni 4.835527132499476 2.2350958640006615 6.471079810557435 -1.3811493099446148 0.6150996645624439 -1.0728403594550233
Ni 3.657208007429851 7.221589788061562 4.748778944808371 -1.3802661360087132 0.4062576965219391 -0.4344709257313614
Ni 1.3930832520523633 2.4020395834206236 12.323153464908112 0.47216278385518035 -0.38137533145796254 0.43378007031192384
Ni 1.8332995832611454 5.0400630822924075 5.896458608513818 -0.2741564729775988 -0.16148301914056704 -0.7065543182300154
Ni 0.9154089812862337 6.540266254805646 4.180082175253922 0.3568102405240887 0.08739822421001077 -0.279889261696318
Ni 8.992922438114316 4.2925599313380545 1.7675743468155651 -1.1308956117265425 -0.4555835393402605 0.34534594863823104
Ni 0.4299596402156582 4.59503619652403 12.611460209445799 1.3684241490684628 -0.060756196142450196 1.3341811687251928
Ni 7.841663832192544 7.697770303453927 4.245750384092869 -0.9999693823269102 -0.027675868648713627 0.3390747709175386
Ni 4.72860956806214 1.5236304812384527 2.41910463480574 3.7964279359273 0.5875662350288655 0.9897412768409987
Ni 1.970680927242223 1.6430205351266685 8.07468415169896 -0.46325262584974414 0.6572040499316617 1.2995165274634717
Ni 6.311383196180503 3.8427592830143635 9.880019052307073 -1.063780049024968 1.2502498200178596 0.886993566758111
Ni 7.021073364736207 1.5849443563708754 10.288906991871537 -0.6766462178166733 -1.4926004613387713 1.3751002755370574
Ni 3.208051219181058 3.179914533908019 2.519935881935076 0.11140589997851781 2.889799111436765 -0.07997519227306227
Ni 7.7326307275091155 7.758679466539271 9.223804222371962 1.497070838405299 1.675011488881257 0.03965283850493171
Ni 4.251141332519978 8.92077331772147 0.9486422789521437 1.6200130211581907 -0.8867706521140277 0.44068013986586685
Ni 3.512017560540369 1.9336221809313123 4.584809858934437 -0.9815212029240515 -0.38122569325397565 -0.46013567748731726
P 5.803736319127768 7.180134397239204 0.10793118415524638 -0.2676191860797133 0.17224411431181302 0.590200587327919
P 2.465984086859058 3.0863248730210695 6.4722102448889345 0.750093893383863 -1.5204488510096072 0.13546808313404413
P 4.459512848759087 0.9269837458326844 8.303999516374391 -0.9903904803892234 -0.08610804464367751 -0.3588956622982077
P 1.5495320522514895 7.201584135734375 9.712226357388353 0.1542412499764892 -0.6826687698616695 -0.40552596056223705
P 3.4671313153189134 4.692829343899956 12.694805136741012 0.36468167285236547 -0.9544806538664916 -0.581314597692199
P 6.086869188063596 2.231416663572673 4.573555184825222 -0.7356314381016299 -0.7209337268801391 0.4169858815727206
P 8.268883387889458 0.6663372301126129 12.027079928266941 -0.0038895648623933016 0.4426866287729344 0.9744185304409991
P 7.723423528438075 5.423205816862024 3.678735928934117 -0.13311912328589331 -0.352719872504799 -0.6810345766923561
Ni 6.078581789099553 6.268548105197651 2.264167985982517 0.9847276256764911 1.026230372905968 -1.261049995957157
Ni 3.938666840170945 7.9446906421772825 12.247711460132216 -1.0578942796681523 4.409518540479515 0.3386091441350298
Ni 3.667785708660317 4.355814584696241 4.429899884314318 0.9755984096817133 0.47062500705441523 0.2589393989175282
Ni 2.367188357366506 6.353031745025329 11.666386754908801 -0.3740525725443042 -0.9687986131510605 0.7320591473693392
Ni 8.481550370628243 6.7747508960824 2.1242148809022754 0.8264836822985122 0.4839530916218891 -0.1882662007716822
Ni 1.314624302925516 8.549210866498944 11.543772801645563 -1.1113102333954474 0.02930311983949147 1.293290858268734
Ni 8.897704731037983 8.185899022236185 6.309237302530879 0.45281574678713626 -0.858528883659515 0.5101228080387215
Ni 3.69173730344652 3.0662732306885347 8.630242496525064 0.39161166447399004 -0.18796975257718596 0.037719111817328586
Ni 3.730488481954305 7.41134455013505 9.9757352910414 -0.3106008318475619 0.11249167684352884 -1.3430615019339578
Ni 1.0823471819055541 4.128118068209124 8.05131387058038 -0.469914611250952 -1.4082554221327876 -0.430419124259491
Ni 8.458049477894468 5.521072548246508 5.686569422098164 0.46475646408878024 1.3397833454033183 -0.02667185286423148
Ni 0.7233528793450383 8.889021818027931 8.644337513364686 -0.33049654233022435 -0.14288160198929586 -0.32292438640992127
Ni 8.47924167235968 3.39986633349422 11.154661484181643 -0.4447000596585373 -0.11221656880527126 -0.15633515639104045
Ni 1.4344558608650901 4.778241981835701 10.283872006085836 -1.2535192347977508 0.5567343372496734 -0.432766541445745
Ni 8.865806063327325 1.7923684784997773 6.69196796665256 1.1578718832050705 1.0554959546393048 -0.3673715609797028
Ni 2.645887789786608 1.2616530147635567 1.6816447812196877 -2.054829503154429 -3.2395593870926076 -2.100189162236151
Ni 7.747697053261726 1.8171294973801377 3.080691097365713 -1.357036218946495 -0.22054382985846535 -0.16063506931797497
Ni 4.22250795518916 2.6670431922475406 0.25164259247267756 -0.5117642002968864 -0.28975072787143 -0.7709527391107432
Ni 2.289814772365915 7.543289875483775 2.3690656693848866 0.9214774594675937 0.7205843139605203 -0.473265787111372
Ni 2.8788179688825384 0.6958655729475388 10.586825647527343 0.7711345161042461 1.1031045576562033 -1.1320716343125148
Ni 0.2911673228704473 1.335439379346859 10.413687994186862 0.9576158570613637 -0.18983945879607303 -0.5793194216390409
Ni 1.9320585207494172 5.233837370833474 1.609554528033688 -0.08550306406982694 -1.1307716845541689 0.990259611238314
Ni 5.285171414804978 8.152491882350054 8.213331140627265 0.8315379568929678 -0.0859964587664777 -1.9571026433249004
Ni 0.3757374239081829 6.390127283340519 7.805440264378786 0.9187528614475791 0.46185240306810776 0.6527511563666307
P 4.875428061141007 4.798017684136137 8.299112618405916 0.7631957208731437 0.6629985451262518 0.4744250975267958
P 3.5552573635702998 9.20296799054816 3.3271975260409192 -0.802193699402896 -0.9612570533583769 1.1892144020720938
P 6.789090579750484 3.4707277337372715 1.1221515315358508 2.931407273895855 -2.5957494990796652 0.6226085713449793
P 5.9801171876455195 7.651283606046297 5.991878671613691 0.010806603697200743 -0.2632591093388047 -0.48178128078155097
P 4.12330751364953 5.620199405777579 2.5195192124866064 -1.2414054822533522 -0.4823582363309435 0.9282093788747884
P 8.992214192031929 0.6521272382596157 4.718340919667625 -0.056117411818858196 0.9119196405758294 0.9458576880841711
P 7.913169092510494 0.6260481458259287 8.344250888856688 -0.3429213983571384 -0.31817607309165846 0.08467516885189288
P 4.808172277317384 0.6885145304924185 11.740590708740681 0.576252352677943 0.7122981626923282 0.8792882276940535
