# total energy = -340895.7498618881 ev
CRYSTAL
PRIMVEC
9.00664478607779 0.00000000000000 0.00000000000000

0.00000000000000 9.00664478607779 0.00000000000000

0.00000000000000 0.00000000000000 13.18213505003773

PRIMCOORD
 96 1
Ni 6.266436145575161 2.0143451095627216 11.380677444268118 1.155999605883022 0.3247930641875439 -0.8952462936852066
Ni 4.509591010000476 0.24102051605148783 5.7812887216908475 -0.13112214746052256 -0.5653645021208457 0.7978788740776259
Ni 2.5398828319202558 1.5316790163126746 4.630606991130082 0.6990901486424864 0.3250303770093306 1.1607530614076076
Ni 3.536143836562179 4.502241587867764 4.919586089255424 -1.1382332830385364 -0.25284665575622906 -0.22610075512095254
Ni 5.058564022050801 4.661920393003612 2.7093770785269733 -0.09030408500289609 -0.7386406572415989 -0.16343937153598947
Ni 7.154941652183058 6.056950594858558 2.4925574169737663 0.39561718608895735 -0.2869939910618993 -0.05794083818084215
Ni 4.94119843404667 4.493009776978021 11.429148504429412 0.469268750136837 -0.21513500013806822 -0.3542296242811061
Ni 5.650057404062562 7.7570538683792165 12.61754375863761 -0.9728357593349117 -0.2700007989380124 -0.843571233908418
Ni 1.93783366223749 6.488801198313554 0.3976604792417755 0.5186928090959196 0.508682218937453 -0.5618690873730775
Ni 2.816756098809595 1.4134307771210368 0.5990967915270018 -0.49728374729252417 0.2969637006801014 -1.1816892973396422
Ni 0.42586388667605796 9.046003808127443 4.662811150171413 0.13042769249665925 -0.6770223702091696 0.571947554655002
Ni 8.594960044666554 2.3122038587672806 1.2833324954048781 -0.3228922476204052 0.42175193550279627 -0.09013053553950928
Ni 6.754290066213006 0.9711594856665948 5.118438395156001 -0.2238898635125628 -0.6219657955546578 -0.9716818482361266
Ni 0.8469578542816695 7.265939542334459 2.435280560220373 -1.121690805298823 -0.2983649519030023 0.5322476649622188
Ni 7.493447389236795 3.89496856421812 3.929211827635487 0.6549949580954849 -0.3122034004479914 -0.45675801926433596
Ni 7.701185650867926 3.7798276174722982 12.684891845573356 -0.35341149925518495 0.2546968215910904 -1.112689116020845
Ni 8.019705643175968 8.800662804579556 6.890051726160842 -0.08510197197666633 -0.05256080481585141 0.3923297735869372
Ni 6.859514697066529 0.6309028568694764 0.36174648321948477 0.5825430707826613 1.0371138525876913 -0.8052684816734776
Ni 1.7795328737515261 6.216179067755881 9.311754769389717 1.7476466958494805 2.0139651608398994 -1.1347154996932651
Ni 0.2207699759495396 4.943711287937634 1.1759219518655595 -0.13279722117010034 -0.7645684328509542 0.7325635978095835
Ni 6.166264242437879 2.1692413863254445 7.1233751635914775 0.6425575036630805 -0.34414112969685245 0.053249603352759904
Ni 3.516077032013549 4.059231751542143 0.40717329744835695 -0.597184731955236 0.3733655737796086 -0.06830444080335334
Ni 6.003261985381724 5.71094232271101 4.804439738522741 0.23037418568532583 -0.4059903017931653 -0.6214592882318846
Ni 5.050268902217187 2.856331295931086 9.263099073010627 0.6938494690688373 -0.6582345480787051 0.28907092819558605
P 0.24731616074605364 5.58121061143701 12.202570706818017 1.34832789253922 -1.0035997799906458 0.8984755992557816
P 3.9957709324893376 6.126454872552355 12.696742788762354 -0.15338635817536167 -0.04607776819466903 0.6312757601016742
P 2.2437803784459405 8.578306758485935 1.6457499736597636 0.9324187889704457 0.23624967062949637 -2.072748806637011
P 6.480028726307106 7.806734520933186 5.71953105916414 -1.67176572825045 0.4205540585399531 0.48257266633459467
P 4.816582497002302 1.001007506435967 12.575901536541295 -0.9306169598750166 -1.3776053013470984 0.35218816837104505
P 3.952611090749195 6.0580944387444084 8.077721945465017 0.32372579926529405 1.561019573343118 1.1958468197869467
P 4.632855950329271 1.174151245503683 3.816873748742238 0.505349297909478 0.06809232479254726 -0.8290928377865849
P 0.11313516695543599 5.502681675683191 3.4435032897819715 0.7436180558515322 -1.2343421476486678 0.2593983408318178
Ni 1.2814474046544164 1.2893011988942755 2.678821135478641 0.2051650334095499 -0.953297689301984 -0.5884761484376446
Ni 1.6973562468656627 6.498393274994116 4.7651176281193 0.9190997032640366 0.26897801410045286 -0.5141738381796436
Ni 6.023247730127419 5.581192598147469 9.178799579952361 -0.9194763698771649 0.7432617009533781 0.11061811396989982
Ni 8.766122321884763 2.5433684034464314 10.236032867697006 -1.5658650743608773 -1.1439344471883717 -0.4034870757553373
Ni 2.326902703032704 5.307048344623585 6.955672338629609 -0.7206452491054428 -0.6902206140669984 -0.20213370278239384
Ni 0.4449345563130732 0.09687817314471879 9.23893694708486 0.19986007625686872 0.42137166934524206 -0.7661933700488869
Ni 1.4110710361911711 0.9971346491846604 11.353087389342704 0.10364528219649245 0.5438191718499021 -0.14739080271355906
Ni 4.482688162071051 6.989930913343086 1.6887503977874683 -0.9135977996092007 -1.39399582688998 -0.6280778219896667
Ni 5.519262908705645 7.8244505911967215 7.998299550549966 -0.3493342438620178 -0.43291078033309316 -0.3020719684409443
Ni 5.223547740956461 2.997285286589105 4.96200648545991 -0.14031486970338417 -0.8552013619481788 -0.764677961845625
Ni 0.9013760019849123 7.323338889456731 7.033750041480427 -0.2910869301843503 0.5459958677862466 -0.33640082362980134
Ni 5.032777998072914 4.407924003831293 7.251400115681473 -0.3646153383908043 -0.18377114111480608 -0.5548170656223026
Ni 7.902808400699902 7.3670751564621835 9.06839973101372 0.10229699569871413 -0.5455315265553184 0.017758095314369417
Ni 4.476959935997026 0.18385984501563368 10.369423078076776 0.12886497599522967 0.31374991899950483 0.0649334674485914
Ni 8.128181672791634 6.928946921602162 4.696042967381055 0.7577262131181401 1.0506957050371841 -0.1471871713431852
Ni 7.246007837457385 6.186709326066869 7.006304993535819 -0.4179593012295834 -0.7691920476658947 -0.2946327385540797
Ni 2.522139741722409 5.235283399092397 2.4633326560225113 -0.2395147145340133 0.05798120450047434 0.018626613962251792
Ni 2.4521220852766943 5.035921317097812 11.513184102795904 -0.8391049706069484 0.23042149398349349 -0.21686432412434908
Ni 1.3687668257042245 3.4741330873174214 3.5744022622182263 -1.5838393994511109 1.1308385332363622 1.694915684004352
Ni 3.5868242266856725 2.7328952293516515 2.5605377703723984 0.8314114586174326 -0.10855171835917435 0.4838715876516763
Ni 1.2082504026047218 3.296179799942269 8.07388601545727 -0.7572215055675797 0.056073960175432466 0.09008142746912873
Ni 3.4779158781210233 2.4535361285056596 6.92046266222837 1.0003946427897867 0.5545087903532644 0.1378494388820271
Ni 4.265871202511275 6.624243122372039 5.970650725996768 -0.7008384987921606 1.6820264867465098 0.4735547791067005
Ni 0.7254978455648784 7.422466021800639 11.109626973222895 -0.6883341956775629 -0.4248871386976682 1.1731792029861021
P 0.06490908753189846 5.659316234886616 8.05348056106527 0.5399478618199539 -0.47148298417933643 -0.20193778472150384
P 8.322815266281715 1.6061099286959253 8.063657168991433 0.23043203550645477 0.5833416554245566 0.07435990296881388
P 1.8059223429290336 3.174184796526111 10.284161675357023 0.7914236053705854 -0.21083817253492723 0.6461089684597647
P 3.9665803967882103 6.25758261376578 3.7429219898607773 0.05651747547075428 0.4018611101161402 0.07310443329515798
P 6.814247300450094 3.9338322364027434 10.278875675541228 0.23584009389590352 -0.2767646000244072 0.7186032789747495
P 6.105676543066856 7.624097778277385 10.338735638014795 -0.08101957437717659 0.3062140156337758 -0.937063743941625
P 2.3564264845903393 8.419915903552265 5.643469944077433 -0.2615444406405431 0.2113513647259199 0.8462184417232782
P 6.825775805756309 3.86384159989134 1.6715206863415393 1.5702380066175925 0.49784604755389744 0.2907136060053316
Ni 5.513543689276391 2.78986225752494 0.4363404158730808 -1.011764318079309 -0.02191865444996225 0.030791017238927614
Ni 1.3872934939971027 0.9552627576466969 6.92913696180682 -0.3755481832532242 0.3055257313174996 0.2015824582646141
Ni 6.583073749126172 0.7198966131821166 9.137763505049099 0.39205158022488606 0.043080890349874196 -0.024832999883279815
Ni 2.806101238046116 1.5598878277338195 9.141718322767815 -0.7987018841995535 -0.21581248582106705 0.3375472785294187
Ni 6.484649135074362 1.8891527472530434 2.7021663587237263 -0.7948997368446439 0.12775065988512838 -0.17762029102206184
Ni 4.0570971767315385 6.796225004264363 10.58251218736605 -0.09802716467876665 -0.38827257279842803 -0.7399948572766482
Ni 8.036962374556207 7.008547648083669 0.030601876936661405 -0.18882387304736514 0.8970964595200679 1.657006053442772
Ni 7.701599956527368 3.8646071646968307 8.186079087369713 0.012262362307120815 -0.21519310706951322 -0.30821124856946275
Ni 3.0125785694093805 8.405883550999857 12.337951385692064 0.5109738431851072 -0.298354410380041 0.4381175213450132
Ni 0.19686814205763856 4.867118780809467 10.12368217950108 -1.0745362591002074 -0.7504700457763591 0.5757165347791311
Ni 8.660843651162617 2.3772498472996904 5.973444587204571 -0.23952808427045202 0.7911747225845729 -0.1686916210738643
Ni 3.6292995634232583 2.4040986553604924 11.459572950464096 -0.5501808524018718 0.6824543398580183 -0.10308709570017731
Ni 1.101260469376185 3.2130394620659635 12.481385806319873 -0.0750813545158707 0.0847805840815056 0.17893335340653055
Ni 2.99138593426444 8.431147189581054 7.905036644616118 0.3750676440723798 -1.3227173910599672 0.1901302505636145
Ni 5.710050664878733 7.9963243933518 3.5576607109188574 0.27897163497805505 0.425482349079506 0.8965770966814882
Ni 3.186704032757079 8.401290162166912 3.601240262305304 0.2510214296220322 -0.6089128190254417 -0.13314637697940296
Ni 3.313724743955165 4.3814084416269985 9.278891323951187 0.48970696338653075 -0.25847840012070966 -0.15020924599896066
Ni 7.323501009062599 6.059418415525669 11.260061358166322 -0.9361301763837618 -1.1288963219083268 -0.5237193157762335
Ni 0.47488165017492073 8.862862693364495 0.1881010740380529 0.653203670523017 0.4412756073580207 0.36980433879091146
Ni 4.685346676051631 0.2790618815685661 1.5315006847462191 -0.021335785363298738 1.0568591535354186 0.7479837890193957
Ni 5.980241001348376 5.378579117390741 0.3470278243355656 -0.43630720760915176 0.4283804965629074 -0.09183234872196443
Ni 7.761178911684096 8.810615147050937 11.107675233301132 0.24750827426245114 0.3023841003647244 0.9605911376396037
Ni 0.14807734600699193 4.895931037430235 5.736614862964788 -0.2605496808274416 -0.8322617224328699 0.38501035710738857
Ni 8.210331279743185 9.070231682560037 2.387970456569993 -0.5697230361998575 -0.8488391671755768 0.23011604692793275
P 8.354356536267938 1.7131448951483146 3.8308205381693274 0.6854558456885034 0.6161095938841971 -0.6149477123656119
P 1.7005445991144126 3.0776876044551837 1.4745273519215911 0.34236449741240393 1.182272937757254 -0.7921003197226358
P 4.6134015976250335 0.9007635501405197 8.028658248077825 0.6484887815458509 0.3786124240008447 0.5388836822214977
P 8.424788498373095 1.5750820374616201 12.259254025681036 0.20294848537420532 0.2066663005454247 0.6906451031989267
P 6.541958415748929 7.892802018359897 1.4935493856768456 0.15320483829217488 -0.7909173551581281 0.45109207922781025
P 1.829871011373741 3.250254918257589 5.895696527552352 -0.9347775190106095 0.4867977601595358 -0.5389767561559363
P 6.7698805683107075 4.057196249824014 6.0521689671499095 1.4494704629185167 0.25960994262199166 0.1505781993026052
P 2.309060539742383 8.388743906001633 10.135651109736571 1.4826778029084209 0.10835297208480694 -0.47551010306085856
