# total energy = -340894.67175692756 ev
CRYSTAL
PRIMVEC
9.03518484828949 0.00000000000000 0.00000000000000
0.00000000000000 9.03518484828949 0.00000000000000
0.00000000000000 0.00000000000000 13.22390631595574
PRIMCOORD
 96 1
Ni 6.1887221683629585 2.0844532936764124 11.452762734684256 1.2092098713574144 0.30993902989384686 -0.24684750075000064
Ni 4.825872950700662 0.20937143581833922 5.94388130724213 -0.6602052986518306 0.278681614541462 -0.23893801609493687
Ni 2.872628611922165 1.6988316027906483 4.6513104681697275 -1.0757652464113021 -0.8685590142020073 -0.3879858947959447
Ni 3.4620298627010295 4.474006710544729 5.006650736913888 0.3953299938658417 -0.9515922765751029 -0.14049458981435803
Ni 4.931494262004658 4.809465054949758 2.570211938641064 1.7738572928065774 -0.3649248992114231 -0.47241372352372185
Ni 7.26636673994981 6.023206616457234 2.6898088739249597 0.198181145892549 -0.6587904205821751 -1.0539214110633335
Ni 4.920624934588172 4.762707973170614 11.48670792429667 0.9175974076868972 -0.5098790674590316 -0.6824543398580183
Ni 5.587033066140687 7.875446623407897 12.613027747413721 -0.29450572605791214 -0.5087819777401108 -0.20187247870120717
Ni 1.8863930058154275 6.336402265305972 0.35459938358360193 -0.3124211728857523 0.84961332633744 0.02117843384982804
Ni 2.766194133978531 1.4968771502442897 0.3454286709254706 0.5258965259332105 0.32914491339833635 1.2367656694884956
Ni 0.5246442736721059 9.049008717732407 4.564799476415696 0.8633602436098872 0.04079209431569749 0.5741129377374371
Ni 8.56971022996043 2.4204718195443027 1.3189797809723551 0.5410477797523521 -0.02588252419371672 0.7999519545565708
Ni 7.041408706686601 0.7125092589090162 4.598785324360091 -0.37115313950932205 0.07895960652435434 0.4596394545771891
Ni 1.00907655349566 7.214043984281594 2.5387387756131474 -0.49263982076260965 0.5268570900742668 -0.014985674775554837
Ni 7.376695382578818 3.7803665317492516 3.766657445723456 1.2721872435208992 -0.634488867722333 0.08899565060411771
Ni 7.643260442236801 3.86157477349436 12.706481375233277 0.6195528152377912 -0.7667818955625052 -1.45475202303243
Ni 7.632987437022717 8.770987043640424 6.889906726537293 0.9126120386571638 0.2327444856897153 -0.3442462878161491
Ni 7.103516567585119 0.48031042847908173 0.5269392106328599 -1.104035554110905 0.9985951276872027 -1.340834669485968
Ni 1.463952936523865 6.593109938254574 9.173318405452244 1.6159213675873203 0.4713955666718526 0.2006638031050867
Ni 0.1982382810032165 4.873931099103224 1.4849389604559258 0.32950358228933574 -0.7785369792159044 -0.04116130472965814
Ni 6.293439961178469 2.0171592366539857 6.959557159777691 0.2225768011280941 -0.9430263892829629 0.007773216187515645
Ni 3.486370650780838 4.33276870042462 0.330704933637105 0.8538116806895037 0.18083288442208856 0.4655673900258498
Ni 5.976693484669983 5.456248764932359 4.8130258213128805 -0.3364656154294657 0.42199541897216997 0.67730724843944
Ni 5.197002205031112 2.86720750099125 9.339899205655893 0.14732523958294627 0.021359953733014827 0.2694534110749746
P 0.2082736608548289 5.385521337653685 12.463888468111803 0.8349600952006395 0.8727157166828582 -0.7703652420383893
P 3.808131654900422 6.296927542544025 12.596577386293857 1.3095374020345836 0.3286206654637502 -0.10306935508836443
P 2.406720268149548 8.553826374932848 1.3504782425179491 -0.5275037225193303 -0.23962321508741957 0.26181543491374265
P 6.187556629512812 7.568006387330814 5.670569675030624 0.7050106278919793 -0.3352507691857581 0.8426775184495553
P 4.879677476689993 0.9667557474949825 12.785256441688894 -0.3800990358487002 0.27002985240373495 -0.6865038273370434
P 4.096435369391374 6.228377594822604 8.10981209117322 -0.2649987177377307 -0.20916978369356876 0.2796108112239507
P 4.767939345218948 1.032956547146341 3.8216166683410733 0.33041169592590197 -1.0108986276449041 -1.3604678703358635
P 0.2639204610421844 5.423559466018941 3.634035387909547 -0.04580086038419854 0.8444358959015585 0.35444559694665406
Ni 1.5783745179057138 1.2120700523037775 2.5211246826801155 -0.3939585674396119 0.21929118839828685 -0.07731898559713782
Ni 1.8978225146947736 6.407608557383543 4.868089852075163 -1.6121503305806624 0.4817609690665768 -0.924289217884776
Ni 5.9624811388461 5.686302642470628 9.1451512165737 0.2540224212318851 0.01376748609773758 1.1292431637247842
Ni 8.579513405560501 2.2807788260395045 10.200273782798064 0.1911656338066643 0.25766156064636914 0.9948819405016737
Ni 2.4492037074781527 5.213328784118052 7.168692777270535 -1.0334839691445878 -0.09391185695881245 -0.05731863121581096
Ni 0.4405447727638422 0.19411281558479007 9.25564972067854 0.5868334706278991 -0.9276547919228991 0.18759180041247694
Ni 1.5420982505930068 0.9983156482977935 11.625717857824172 -1.0069926077222786 0.8235721650786719 -2.2723265757667703
Ni 3.877305030378899 6.922135231021584 1.6771616153628035 0.6068945030438323 -0.4811644731331584 -0.6433470894439114
Ni 5.6179424336317885 7.863493073805228 7.895333065339471 -0.6667204740625292 -0.5049978281073303 0.240915708646598
Ni 5.282032329982516 2.826007057916295 4.707790312403468 0.5341577375007381 1.124796183697024 0.6239028646763707
Ni 0.6896927065192828 7.461192431622016 6.829367373734787 -0.7565944135065421 -0.026396230605341638 0.3290304993076591
Ni 4.957777614834711 4.226126413228634 7.3248804043011315 0.46349790909133076 0.9735955203190716 -0.6025146288085818
Ni 8.09496547537042 7.158007767625701 9.23970171583828 0.10500076778312238 0.21446805597803065 -0.6763070893096997
Ni 4.8129526363153134 0.34858466100575164 10.453167704206765 -0.7958464170286293 -0.24494025642495876 0.2501449405543498
Ni 8.041486216036942 7.16289580264841 4.555317953397526 0.64828694994769 0.19789292522816887 1.1902199605184727
Ni 7.200012342155409 6.010945870568482 7.042576052573725 -0.8204919834914514 0.04018042887362758 -0.5456330851301893
Ni 2.4594044312131578 5.114420615183504 2.75963097567817 -0.40109235027091567 -0.028539759310905688 -1.2750974751891588
Ni 2.328249687424551 5.071521557350196 11.444457592738093 -0.9273640001553577 1.163487429619635 -0.10883839636165771
Ni 1.2299145424513733 3.3773069340357105 3.7301733691583965 -0.8476369193373595 -0.15311484968152983 0.5901957022319126
Ni 3.919661977119116 2.778987955775491 2.5119467418740764 -0.7178576590579766 -1.0186595025372456 0.06495429338419781
Ni 0.8377586058568796 3.40800849227446 8.000754699057511 0.8233677623773498 0.26328944835610785 0.08210252302871021
Ni 3.7166413727563437 2.3929325760152538 6.631776011969326 0.6256758974163934 -0.3011623121424814 1.8195229131644923
Ni 3.8288312634716326 6.841342607781178 5.8778413338817215 2.180524308951793 1.1976846443266342 1.5854363116245858
Ni 0.705395857849167 7.49482138976346 11.49556782659476 -0.13916995746566355 -0.5828112368423833 -0.23867833467564703
P 0.04693055732893241 5.590204416035272 7.861109592032603 1.0868261322111539 -0.31804700371296196 1.3470181725888608
P 8.488754973392096 1.637464627052689 7.998572701907818 -0.5533497370481566 -0.601801661901957 -0.6461290230644227
P 1.788876255353149 3.299378464403805 10.2468745558787 -0.18386678615240593 -0.2631542083298242 0.21754566646208987
P 3.9946088357390175 6.219586359929636 3.824076045666732 -0.1475772076927523 0.7276160239963211 -0.32882815348886596
P 6.908148764819822 3.987462004495095 10.402638432738195 -0.6693756522971891 0.5985085929729821 1.3700591135687243
P 6.363218694044232 7.678958457716877 10.363721180883644 -1.6924114295252595 -0.17658979287501847 -0.77634100000585
P 2.334890548314922 8.503292585871835 5.977602424269398 0.40575221764043023 0.27361654131372876 -1.5760371297978728
P 7.078145768428437 4.111849394804943 1.546747756734755 -1.2705000856264637 -0.6217948171944324 1.2023334559525551
Ni 5.516278533307359 2.844574362854679 0.4180833031400838 -0.5527200738839578 0.8120258550019691 0.35245479176887046
Ni 1.407609523581887 1.1694781907565543 6.942352360719942 0.07032558499844017 0.005332982177139203 0.13540174867248295
Ni 6.759068214219656 0.6219550219190095 9.018730909664757 0.5547931543629026 0.48194840248703447 0.7908841879273476
Ni 2.8163574804592657 1.700837413835087 9.344302954768775 -0.18767896080964452 -0.6339144832761019 -0.3722787684733331
Ni 6.353081216603421 1.8720812729578113 2.466298277280305 0.4969865277670795 0.19492407240783202 0.5444778884798236
Ni 4.052542441220731 7.025714590541603 10.374749527554101 -0.0009852467314047546 -0.57040360720665 -0.29946101318065843
Ni 8.317601466118221 7.013390598358655 0.4289372707422644 -0.73626367236899 -0.268900366784982 0.39196287716582173
Ni 7.50343192095873 3.6190433056301017 8.402708390141145 -0.555825966502791 0.677569243851575 -0.9896062939250311
Ni 3.133275625480565 8.56136171912682 12.36102017764222 0.7778854616748344 -1.9153762101203917 0.07047290920958185
Ni 0.12189729335558096 4.762906747238082 10.059822737281424 -0.5362621854382507 0.11458841147155747 0.6790831093929401
Ni 8.619494098676 2.479227626850538 5.772499209790667 0.4145734154764861 -0.6940839536771466 -0.09038918851753465
Ni 3.5745721256268275 2.7331795684092577 11.711806002925593 0.27196049376754455 -0.24501558974758444 -1.2039416809799395
Ni 1.1225132997250595 3.246405175423879 12.46261902463548 -0.2633015325409659 0.4444563190788474 0.5551687925347666
Ni 3.17354544451238 8.554422697135248 8.089711515359875 -0.5733266943907158 -1.031432485932198 0.2776333757826057
Ni 5.7206182746633205 7.828617260149675 3.53213205518567 -0.9516861218404898 0.4109625581967761 0.41269445328621834
Ni 3.1147263909119505 8.462796887217896 3.5419966700429586 0.03659579684616278 -0.4572755823307028 0.9477088823602968
Ni 3.474191221556049 4.513734418483452 9.446682441736083 0.17232047607570322 0.13974562746347546 -0.6875962890702738
Ni 7.352435911162973 6.082350936713519 11.495303999196123 -0.15933743355247396 -0.6037978663963796 -0.5234416366348147
Ni 0.478984966856473 -0.10274992954758867 0.2505014044511924 0.8878888248788709 0.9043755096799845 0.8455365851649052
Ni 4.67323253725586 0.14722833769877045 1.6425152954033249 0.2729969054518589 0.7737477853573771 -0.2655800441624975
Ni 6.037256328953189 5.513586048211671 0.30703907386819496 -0.8725282832624005 1.3044065085659213 0.7670634313586661
Ni 7.678027833673736 9.000842147111225 11.32117159146571 1.217577012375187 0.37699879965682165 0.44952447763037423
Ni 0.0342812984901304 4.8961034428106665 5.7812931552391 0.403442338560331 -0.2451595715246165 -0.22539035931748921
Ni 8.121619270780753 8.837946798822111 2.498326200660152 0.8149743961073319 -0.07096398991338745 0.8833112328105174
P 8.65400850493616 1.7966194087994727 3.5013600225048185 -0.5048623309707305 -0.7066183386987314 0.5057403627003098
P 2.0360608434331096 3.267655930273067 1.4316331766722374 -1.2599385080605334 -0.37274182415268065 1.0581963842896032
P 4.6571318377910425 1.0881434564230574 8.215324980258599 0.7672596065298722 -0.07609899714710765 -0.3534032717250688
P 8.559988371024321 1.7115983190329536 12.50086315521611 -0.395328451203945 -0.9706297528225284 -0.97899895072283
P 6.508224376261327 7.686276957473613 1.5262902911184582 -0.7121829772707026 -0.5809304748799027 -1.1604668976257562
P 1.9016715034557232 3.304365886460247 6.016600089269426 -1.2803587235880982 -0.1648010277702065 -0.2799849067339178
P 6.95651410950847 3.863625760463223 6.182030710437232 -1.1232028710679751 1.588300263435942 -1.5131410044942843
P 2.299915347625635 8.392530254368353 10.24055354053325 -0.08165180864453679 0.9017866659068857 -0.19837423573996157
