# total energy = -340888.8865850165 ev
CRYSTAL
PRIMVEC
9.09762711650412 0.00000000000000 0.00000000000000

0.00000000000000 9.09762711650412 0.00000000000000

0.00000000000000 0.00000000000000 13.31529688724319

PRIMCOORD
 96 1
Ni 6.459988583467332 1.873428894806049 11.721483043758438 -0.79311616258166 1.077712085725028 -0.777944339937228
Ni 4.637879404070295 0.4120542829574018 6.173051239014722 0.5414609560303706 -0.23330472906855948 -0.32825325482200246
Ni 2.70807251309519 1.58781798440886 4.834984047607605 1.0596441724797234 -0.725616477067789 0.08074446633891899
Ni 3.2122448209371792 4.1985367881277265 4.723308853388724 1.4955834552264955 0.4577489224226955 0.1663640013819522
Ni 5.121436488526924 4.338576564637375 3.016593978237019 0.038498156075198214 -0.13553801714003108 -0.7785868586172333
Ni 7.034749381268288 6.020391233961306 2.7719787958270827 0.06919404249715824 0.14992771020279985 -1.2002081820794361
Ni 4.863828074855306 4.464123820911861 10.96722424046858 1.0411767098031552 0.5149860496682936 0.2527769788605582
Ni 5.701100907424398 8.114146465901813 12.709610912131318 -0.7780880646039439 -0.4600842554240915 -0.9573690311578802
Ni 2.031809487884493 6.523799341112929 0.4589925810749802 -0.34641012823668726 -0.7495894429436187 -0.6222514451158767
Ni 2.5875835375807488 1.601746451753515 0.39540835434831295 -0.08735271568405602 -1.4139038786678164 0.871069439328687
Ni 0.7190464369557715 -0.22822307760157604 4.679261781216366 -0.19246635489595887 0.05642131621252219 0.2540067375026013
Ni 8.692473533591144 2.353920078873945 1.75812556683338 0.9369285039153413 0.5973819355677066 -1.488907071647584
Ni 7.073259637486395 0.642701878225438 4.938164787247973 -0.5810834555179992 0.6414604139441598 -0.7498843484762182
Ni 0.6718634126647305 7.53793914536552 2.1578234524377375 -0.5500034462837431 -0.7466100486003207 1.2780218479248053
Ni 7.437455852209601 3.83507748121309 3.8279085509272712 1.5169418662976133 0.037676688615167375 -0.050708582098461054
Ni 7.65109543330335 3.8582309426057395 12.673100314386334 0.9979364110572814 0.16656146210473893 -0.5857898598547331
Ni 8.055994432415833 9.021734859611882 7.016935317318209 0.1573142324748581 -0.3166059003910612 -0.06581921248765439
Ni 7.04079020577309 0.6876750888535027 0.4201466224107464 1.0537344918635079 0.20756335843839738 0.7603901331035485
Ni 1.92592220413241 6.442230015043579 9.303663960254413 1.5717094489567962 0.7322864328887968 0.32484088670634376
Ni 8.934761542946369 4.895214888923927 1.660257841516512 -0.019048274880702678 0.047246591691789595 -1.3105015657200656
Ni 6.67141744113538 1.8571168491176322 6.932089935670277 -0.5081176046832346 0.7840586803650819 1.037093540872717
Ni 3.715598342325204 4.534675920361762 1.0141370749644105 -0.8159149056437303 0.3912429682806617 -0.554304130541626
Ni 5.891796272552621 5.6633548518966546 4.833798626774811 -0.8996894170582247 0.5416748718133897 0.6064910969578264
Ni 5.640738150512715 3.318805329106965 8.717444700911594 -0.3263382971874767 -0.09240441917535054 0.16971620568363674
P 0.1335004020306564 5.698926574507759 12.48418262562594 1.2220633302813146 -0.4179500452582028 0.9495467068999839
P 4.054475860366386 5.968243634471063 12.65625605750284 0.7217325686323506 0.2882312059031101 0.3781228859589359
P 2.4514102526592625 8.585822049148694 1.3663762781715596 0.21837304745939165 -0.3169301164996994 -0.2028052749281217
P 6.068008215072949 7.633145814707006 5.91649269152963 -0.11547672761378176 0.9549781623282005 1.045194829823613
P 4.454698679064008 1.0572989480037616 12.575192559509494 0.8115196047895121 -0.3352847077474871 -0.37544379646487597
P 4.088309936169634 6.31015976001918 8.336494295814832 -1.5915277692343042 0.1847900692976237 -1.567490268669126
P 4.834970401166705 1.0135302632257506 3.660787867334125 0.9258827876241409 0.047759012551833874 1.2798650717811313
P -0.11632135246376428 6.012021416876341 3.7354602821729186 1.5355098591077876 -0.7209766643029324 -0.49725597937838234
Ni 1.5198678063571112 0.9772762185696763 2.745308191733294 -0.05010797239998467 0.48946836501316343 -1.2078762401476553
Ni 1.9445268518919263 6.145720147181402 4.975833512943952 -0.4847974419000554 2.028931038121112 -1.1850445869651203
Ni 5.923801725275349 5.951121899955949 9.148807787978921 1.4415992877005561 -1.1109960445891383 1.0009880533994115
Ni 8.91175364358998 2.5524848915874903 10.550295448821913 -1.1143356504853326 -1.7023124906890554 -1.1151491475255633
Ni 2.095283633321238 5.128232416094825 7.102552177758323 1.0101036425474346 -0.20251062650583834 -0.5088879071903558
Ni 0.5707260001083659 9.06027240871179 9.023324215095299 -0.31147860646682485 -0.009988478671279572 0.7433959125383972
Ni 1.3620421685419102 0.7081665845080427 11.645465999609689 0.6765078924665962 0.8499635105880072 -0.8784739593228742
Ni 4.324011263384081 7.1438572250726295 1.62523834488047 -0.9484742997714116 -0.39695056018840025 -1.0591170963316598
Ni 5.613881954822695 8.189856920011687 8.14363551492269 -0.08169654583954317 -0.16933002598881158 -0.44210401679658695
Ni 5.130825239865711 2.764623364182306 5.264402061965404 -0.23644918823481212 -0.7400838174460286 -1.2674934375896558
Ni 0.8194423928899353 7.475029052819283 7.063685294551377 -0.020400160922906804 -0.17625323547120614 -1.0272942953941082
Ni 4.864928887754523 4.655829022666641 6.885859432954014 -0.4676422702770075 0.38169826201502005 0.2040489175272357
Ni 7.955602115532575 7.30860615723746 8.698177745887094 0.6862806555826438 0.6923260904457754 1.7686934892174506
Ni 4.78107605724134 0.18509122673220377 10.559123786321097 -0.10402374858183375 -0.37487044045990925 -0.15801665785852143
Ni 7.915345114879343 7.446844603548388 4.946552799587471 0.8210645681654697 -0.3331411790419231 -0.14382005464316522
Ni 7.205793871501375 6.042180051264016 6.996496587901814 -0.47220546416765774 -0.8341607392277955 -0.565773050413174
Ni 1.92987057436597 5.303989477251839 2.6619812040761013 0.8585142283714957 0.07803066695218175 -0.026100810852109888
Ni 2.438100423968714 5.107617192709464 11.456308133489465 0.5964216285369663 0.9335773280549213 0.6617811277793828
Ni 1.2051717815896668 3.2897838981275735 3.868626801282903 -0.5332015442350558 0.45708660624834824 -0.6655817324723956
Ni 3.656718498657924 2.4433952430376817 2.6194779992508277 -0.7852532148938154 0.9197527634670032 -0.4238075324802443
Ni 1.2246498015667446 3.13686188140889 8.389929209563252 0.20650174994310241 0.39034359639484384 -0.10057975589729129
Ni 3.509828208816775 2.4197505097726535 7.216265240484848 0.5462365230421431 0.9597182481163472 -0.09981819514091841
Ni 3.970495663071475 6.954481015898013 6.0966220723508115 0.33183582996693817 -0.08080385882194471 -0.04730726972639595
Ni 0.5842714573451111 7.529760378453146 11.14009644401946 0.6191159848106885 -0.8725380534544135 0.05719496115375312
P 9.463533834916344 5.675054400561074 8.247481291116223 -2.769785672294894 -1.2720568885906223 -0.7768724470292879
P 8.61213238720274 1.75888066989648 8.152849591817965 -0.6435286093270982 -0.9095205442160336 0.40219509641679124
P 2.1487685840196225 3.137034736326949 10.37181728734956 -0.039968569973137615 -0.8251024856802693 0.9942263091955459
P 3.848087088203852 6.247286057982008 3.547541512886359 0.0028012168942209825 -1.2251324561249417 1.1860753422224797
P 6.909775275511577 3.8452122379877114 10.33819609602434 0.6433617447319308 0.4481615358445765 0.6432833260855115
P 6.665312933239714 7.736285615024674 10.595927327664056 -1.2935960482139786 0.9960415080274135 -0.8940823552840925
P 2.6028675513880777 8.640171274437375 5.742234919346097 -1.236953874239902 -0.15844886029993357 0.578653763030584
P 6.8667253032876 3.938462917466949 1.4685308054562929 -0.15050260886966338 0.19460782671899388 1.0356899756569713
Ni 5.236703425990528 2.7696452544332852 0.5756005087976319 0.8291044077508108 0.2938698922461262 -0.08736351431733341
Ni 1.261113091649943 1.1898422796460066 6.966216955071498 0.6680751883182107 -1.4251087462447005 -0.6779076010276002
Ni 6.865915614460903 0.8198945449650688 9.398322952434468 0.8540474508493937 0.36768652111696026 -0.35923787612897484
Ni 2.851114506602707 1.2297717657176528 9.223466556376815 -0.6314372253802029 1.5222509372153523 1.2040830916538101
Ni 6.647881879397547 1.8892223757402886 2.6667747438826974 -1.9234844410498226 0.20665755879467634 0.3578291687069063
Ni 4.0428581903473635 6.823793600218087 10.542080291400472 0.4076491775528269 0.31837867602076786 0.06603261405004113
Ni 8.103465851491215 7.543834407834061 13.101040874076093 0.05478840859478952 -1.1478564079505973 0.5614993627384846
Ni 8.013590391727762 3.829054851962821 8.12392914450123 -0.49773806122112346 1.1766638191005927 0.12028494763570251
Ni 3.1944680572588933 8.167758783381924 12.449176775430795 0.0217859855268399 0.8368897081231845 0.04091113639206502
Ni 0.4734132300547402 4.694430255157411 10.389074576510941 -0.2811935823300383 0.8799351172494331 -1.248278812334418
Ni 8.75480137799234 2.709000471076349 5.800729023617288 -0.6009927928474166 -0.6097111465570209 0.3731393167014154
Ni 3.577432677032406 2.9743509655515608 12.125748848013188 -0.08081054369016405 0.18179730521788692 -0.7572009367422894
Ni 1.196165130596062 3.303139214954453 12.48740500520365 -0.7958345899540875 0.26862834407051805 0.9769538952683433
Ni 2.982284096527746 8.442898324795639 7.92459922133459 0.5274600137655884 -1.2067177010631798 -0.37643110007880975
Ni 5.695151059192258 7.848823264308399 3.665967146536811 -0.8210689390408439 0.8646113424081691 -0.15457420783587572
Ni 3.269095893724082 8.543854694569406 3.5902166628669643 -0.15469839211856584 -0.8012210510769814 -0.09820688478974055
Ni 3.33994821487377 4.3072352387050845 9.013710752363034 0.8820369940837841 0.035094529710287946 -0.03246994760324731
Ni 7.723075860234055 5.945690616477988 10.973801824982091 -1.4391212584737085 -0.43599481857505556 0.3643222326304177
Ni 0.4712780169353473 0.07915390603015675 0.4732603899166669 0.004732372478662818 1.0232396657087603 -0.11224253694720025
Ni 4.897480198113228 0.5678065715186209 1.361342561005134 -1.0793465360046572 -1.314489603833536 0.9672050434116956
Ni 6.469859509051232 5.746661824773862 13.394655876942142 -1.5518373926232176 0.23214181910870987 0.7722537173103539
Ni 8.084642860677308 9.195608711924779 11.39268842601646 0.003410568343445739 0.37347021767827293 -0.2392010399483364
Ni -0.026585086397485667 5.080679118374047 5.739146274889199 -0.304818677948146 0.14944357147752974 0.1985531845199871
Ni 7.848714092781203 8.938991939625183 2.7707269623152446 0.602395329621898 -0.6690822894264864 -0.4339286800746462
P 8.844685935383058 1.7524577450464955 3.8341931918428083 -1.9825887034111467 -1.8334156119861844 0.3577013848797904
P 1.650628003055168 3.2673036611526274 1.483430899392985 0.7487476637686137 0.9998742515099426 0.7524335972606332
P 4.936563604849111 1.303626303865209 8.438236700584405 0.07240920700034627 -1.2968513219264826 -0.08140241163789207
P 8.58980680989132 1.8739019714238947 12.63363389754254 0.19082136309336814 -1.373577668244944 0.49883849337415376
P 6.4154193074898895 7.675568050649608 1.4512871627358102 1.424557501726921 0.9791904979083458 -0.5178214622345597
P 1.8293326954464524 3.138708699743942 6.055410730597349 -0.596391032409347 1.2512314672048386 0.15068695696632758
P 6.791278680368448 3.9857250911152065 5.873883954228068 0.758281571400978 0.02681634886189575 1.6908921646672557
P 2.4634009253962033 8.400430600716705 10.136416181834896 -0.31545507461606964 0.48573923698803434 1.6989001225733966
