# total energy = -340886.2806007166 ev
CRYSTAL
PRIMVEC
9.11314185306378 0.00000000000000 0.00000000000000
0.00000000000000 9.11314185306378 0.00000000000000
0.00000000000000 0.00000000000000 13.33800427245919
PRIMCOORD
 96 1
Ni 6.43727723051309 1.9396593022339006 11.18246276577063 0.7377019474774134 1.1426537807037354 1.0320210114458161
Ni 4.7404740410070865 0.6208810768503694 5.889635739431803 -0.49238425310837775 -0.5082230199128474 -0.2056535430101942
Ni 2.756105665673142 1.7341944098340663 4.397940207171636 1.0411818520094778 0.7434658465443841 1.5758090729474667
Ni 3.1769414354829513 4.390137535262085 4.482890180004223 0.27854560318422994 -0.2356187219137168 1.2615220504975695
Ni 4.0219210455337375 2.4886805229660935 1.9947254608574259 0.7972049879390528 0.8428055593869872 2.7314960326860764
Ni 5.195629902397565 4.83956123053354 2.3413665876497034 -0.6782585566091158 -0.4888518144750871 -0.4287471358737068
Ni 5.416222609992278 4.809332939568834 10.800288588239587 -0.7735588092750226 -0.5036305154461584 1.5013496682863112
Ni 6.055846685343434 7.715012599695914 12.450933715117843 -1.8701525623959019 0.9107616157119863 0.3600688566707025
Ni 1.7565216069590373 6.840160111206084 0.24982493217339377 1.8038317276814804 -1.2335723593621786 0.40540383316207595
Ni 2.9807263818920333 1.8678386326249636 0.16343326032645025 -0.18732029191864513 -2.2685167151023773 -0.7543688666101331
Ni 8.070935461293 -0.09535900326366653 6.770503812747017 -1.2385968091599637 1.13185411898507 -0.25150813945046363
Ni 0.08933612792493457 2.1175842804657092 1.4954437674346581 -0.4660201612925523 1.6286339300579824 0.47375712492549377
Ni 6.908371976708293 0.9488785383862123 4.722760827516554 0.07086654510357474 0.31146420828912164 -0.0403776324860982
Ni 0.8053064590451341 7.635290836247243 2.29856489510405 -0.06914776264025511 -1.3502155964802358 1.528017921606117
Ni 7.152777323522412 3.996003270585404 3.3631375011068516 1.6669443956024066 -0.4988863158929536 2.148744188326719
Ni 7.8791493945603435 3.9419987929680254 12.47106008852621 0.27712738268046466 0.013021866180964669 0.17008155944285547
Ni 8.23203757997677 7.5338160035996715 8.611762145023246 0.6426161248151577 -1.019424148617412 1.3780650145923363
Ni 6.700674364595961 0.6841226348783073 0.17985605295457682 1.53157144328533 -0.1576695589317478 -0.11684789692969552
Ni 2.053528007571252 6.932540028453363 8.855327260174132 -1.7370522081630857 -1.5555060997240564 1.7579447353413789
Ni 0.3118936288666445 4.857887758459382 1.4124549426923938 -0.5565085943921125 -0.18696419413080703 -0.029318546458459188
Ni 6.370231847146391 2.4247153814884728 7.084374082044848 0.49511450755534725 -0.6037387310236699 -0.16528208117168305
Ni 3.665597205702569 4.376741216987102 0.4616243693575412 0.588095110949142 0.9794830894481 -1.824403381185245
Ni 6.072104530107086 5.921154451258916 4.613388546285921 0.7544020338409136 -0.6492459714268496 0.18660218280569799
Ni 5.09999659356922 2.7456346658786157 9.452723770905706 1.0585568529528155 -0.5423783256383176 -1.4272540747224776
P 0.2534628983335115 5.737579325183236 12.598811753904451 -0.814966939908164 -1.4165881103681992 -1.225542804189483
P 3.9619839126802954 6.248243332568897 12.47568865318734 0.4753998027352393 -1.03892699453703 -0.6565293924621404
P 2.6621036092061736 8.431205291473196 1.4273266786059613 0.18618437854198902 0.7077935899537553 0.20342593923125613
P 6.468863379588661 8.068903230697545 5.667064568777568 -0.43071891488809694 -0.7997591218194743 -0.3951633863809904
P 4.928897358458474 0.8306391702973767 12.271470438569832 -1.0587843955825893 0.6616410026570928 1.1013667490294905
P 4.165033822533959 6.641530075068998 7.969910817844602 -0.053307967394521094 -2.414678016284209 0.5652914827910651
P 5.009320833816787 1.421959949468453 3.588576577448935 -0.5372854844964423 -0.7906481606571415 0.675699794743004
P 0.42972563952222054 5.660254317997368 3.492155893179122 -0.6117988823239852 0.7253580812000798 -0.7935136551303947
Ni 0.5715325033191735 0.42087769026155347 4.757906569733763 -1.4150202516604469 0.04288214407550679 -0.09602864619149915
Ni 1.924886899564685 6.6252084383135585 4.682106191151571 1.2278861076106788 1.2375603974756493 0.01858161965692929
Ni 5.9702287192254335 5.9352707077269065 8.960738058714877 0.7674002458727945 0.062477806819247236 0.07879711280456107
Ni 8.870139760666754 2.5845143209114783 10.57236891473121 -0.019932991478501152 -0.48036923092537276 -0.206077003700858
Ni 2.566789260336757 5.320170096646484 7.086748055453442 -0.6151318033519599 -0.22492961763098682 -1.1913731002863097
Ni 0.4971492182687908 0.4183952704669241 9.422912861830111 -0.2227480365986357 -0.5944657903621762 -0.22553974041115993
Ni 1.722465796487194 1.4099852812961216 11.458652928149025 0.05037279602559711 -1.421644956065816 0.26104873195104716
Ni 4.412637882079045 7.014430719622745 1.1237998251190864 -0.24823718200867567 -1.272416585922886 0.33071740009177886
Ni 5.943773268917764 8.007744936858492 7.846240928626473 -0.8209090164242121 1.270479002580541 -0.15926621399490634
Ni 5.31441059110241 3.193518240205532 4.844989929034496 -0.5839700330371749 -0.394236760801663 -0.1662488159603266
Ni 0.895591265019338 7.986894068686275 6.958276451882192 1.167844935257382 -2.634731022549185 -0.15800611633556014
Ni 5.105564723137938 4.680318192753237 6.920877029726612 0.39975203419293737 1.1516439000174876 -0.09523597508687469
Ni 0.7261998326601096 7.604825603598761 11.556953653548177 0.4480226962738671 0.534991032035311 -1.517001258780639
Ni 4.814700580020511 0.14204927336573833 10.198171470115877 0.04730212752007337 0.36026348918001183 -0.5260425645927714
Ni 8.511692558823293 7.32298347074816 5.083099917573543 -0.10459093393921343 -0.01043353662849816 -1.645201090388044
Ni 7.218947845287479 6.216064829283888 6.801101185949911 0.5496319218769372 -0.860706093816492 -0.03924840397766143
Ni 2.641799529534975 5.499781006089771 2.408990655513314 -1.5422199241381116 0.10262172602798456 -0.6074313493839086
Ni 2.208214474509724 5.3433265896646684 11.39973828979249 0.1825483244512985 -0.22675021577949334 0.04827169052219429
Ni 1.1904314718533464 3.314877948006853 3.653679039008677 -0.7753806929751097 0.8692650391300965 -0.6929344134537356
Ni 1.5588940164071519 0.7455953321054466 2.613981664545598 0.8079550273667052 0.5946784205936145 -0.27726159426548375
Ni 1.2409729556309335 3.290618764844946 8.441022879009003 -1.7276193448849602 0.6528866535032304 -1.8854218298501464
Ni 3.9101392496419445 2.750820043496619 7.106595566726289 -1.3477895035372467 -0.7588305019259125 -0.7329929720375182
Ni 4.272040332183513 7.047238029683927 5.791347772431008 -0.2143166180018309 0.8830433238611115 -0.2698208217167224
Ni 0.8977984679351207 0.220051386978703 0.25736879085912884 0.4687113349714702 -0.362313429730505 -0.43325556526702164
P 0.4684364427660782 5.557667682064388 7.904955077865968 -0.1843272707285922 1.479215555391433 -0.08211435010325213
P 8.663754440956872 1.6569331946399835 7.859725644375787 -0.001282466256849404 1.0554388761491242 0.8017501841075741
P 1.9749909525414564 3.2413986866114897 10.45200709594425 0.39897324704538384 1.6126025876267325 0.8742542648145717
P 4.205787792143294 6.1944211177851916 3.6232821549228236 -0.5040632321082029 1.5871779769060408 1.1137934048286173
P 7.224980745082063 3.898784275104102 10.091000012601848 -1.1480073317061648 0.30708870492924534 0.0533745589663984
P 6.847769584511942 7.996052776078354 10.357573987875645 -1.142924517866619 1.1093052871502767 -2.2246909761666784
P 2.3939858677311654 8.73607633335841 5.472170009416613 1.2502079110363307 -0.3307549381979336 0.7902925770899357
P 7.004151095803575 4.187397472225665 1.3329610077858138 0.42027972183264395 -0.27221014788450537 -2.115839467178898
Ni 5.54520090424114 2.7262874660842016 0.201034082913238 0.13693541170818999 1.0482595847918657 -0.5156115990674346
Ni 1.5717799987478493 1.022804343724075 7.031462270115341 -0.022940667956573395 2.2577450784081696 -0.7069860064507953
Ni 7.151692859662057 0.8105456041990711 9.170051430847721 -0.964272700256249 -0.27369778817362544 -0.46165725633816623
Ni 2.7140029510946264 1.69321261168264 8.980170922041118 1.8854624532800948 -1.5170010016703228 1.595732294233955
Ni 6.685282268292256 1.8744365472039346 2.2579904543858835 -0.4406960807054668 1.2491074788833003 0.4002960796218654
Ni 3.9932419886552544 7.054601448164326 10.384489651838338 0.07436813049892999 -0.8503018677640323 -0.17871738074098253
Ni 8.532060430486277 7.477387430294438 0.3668513411041341 -2.0890992229705763 -0.07082874988710382 -0.3247940926288084
Ni 7.953485291273971 3.979499370996293 7.990504695421341 0.11197668488032328 0.34106943275006424 -0.11729526887975927
Ni 3.155753381068438 8.358828720221554 12.40026191341418 0.8046611871067819 1.3284941456427444 -0.406567514452874
Ni 0.10443022449558328 5.009904074884542 10.012226015888276 0.05551628789974956 0.19579824748266925 0.366454191371756
Ni 8.643404795577256 2.5626610071540576 5.857665015777182 0.677381296210485 0.7237118038459085 0.1353050751936186
Ni 3.9744689167869116 2.8138920970892407 11.535933280940643 -0.4805929169004046 0.32445676389404765 -0.17283443959764427
Ni 1.2435519747274097 3.3342524872263177 12.829839008726957 -0.6944883882044167 1.1831507123765173 -0.6306173005820688
Ni 3.2393573428743494 8.544454303176058 7.950677532321234 1.4218203053014158 2.115538905219344 -0.9480881200765866
Ni 6.073398596226166 8.05824085492766 3.4451794704281835 -0.9771238451873043 0.3539239201152292 0.703946191183207
Ni 3.652337584552842 8.789051025965534 3.698775420630276 8.53606249546917e-05 -1.6042562725445662 -0.5184115304100749
Ni 3.3786243740840662 4.183241879617915 9.021732316003623 0.49571126059908177 1.5685786166372986 0.8868740104611114
Ni 7.522278766228156 6.388385225380245 11.36152506408456 1.750626861523727 -2.699582214696615 -0.00259372886910521
Ni 8.051424224948281 0.015276359404321926 2.3131696159662862 0.8590940121343656 -0.5032142538443463 0.4263709223320464
Ni 4.715212412259977 0.16788503003891894 1.490975594067159 -0.34231847466581694 1.4208193748407272 0.011838130285508645
Ni 6.072405263782647 5.3663372724159135 13.069416213077073 -1.2873894051826344 0.24424065925477287 0.9506689934298853
Ni 8.096807670532916 0.2377190347608177 11.526116604719004 0.92420128615666 -1.3179508229092591 -0.41547278736230386
Ni 0.3288276687432245 5.114222207737416 5.586249228326857 -0.47343342303748787 -1.4029643489371775 1.2359583430958518
Ni 7.413704796209011 6.269094200741115 2.445083253151456 1.1280591707190122 -0.4064538716931451 -0.104400158084646
P 8.493147315497042 2.082043027899429 3.7139405997060573 -0.0019478677549901937 -1.1604352730568726 -1.524865234909748
P 2.128747879028195 3.4049978061165826 1.4900414970445834 -1.4106331783363448 -0.05605776222551636 1.4424798905332965
P 5.005857839976996 0.9413328570721404 8.056901223100162 -0.2949446133675437 1.1250532940131528 0.510025877449541
P 8.67425278017645 1.7918714835499605 12.757627385339791 -0.1530534003159751 0.9796977765620676 -0.18734985960499992
P 6.4508922641884805 7.902324113861894 1.3458041583605982 1.083066922279038 -0.26666299281403105 -1.0789230753139933
P 1.8722038274914377 3.2708432473914 6.137495878258199 0.7469144672146169 -0.137125416231809 -1.272256663306254
P 7.062639239129315 4.19920810384769 5.718308675778966 0.07911258716245086 0.5291643980512047 0.9627426367649679
P 2.3790858810783786 8.864270897422477 10.17736434502374 1.0000406018844779 -1.326999820485405 0.17274265121478635
