# total energy = -340873.222186177 ev
CRYSTAL
PRIMVEC
9.20301198616035 0.00000000000000 0.00000000000000

0.00000000000000 9.20301198616035 0.00000000000000

0.00000000000000 0.00000000000000 13.46953829645354

PRIMCOORD
 96 1
Ni 9.051079326341855 8.65522097467085 9.993266193715487 0.057516091938597726 3.0622944225274353 0.19327753794334457
Ni 1.5430229816552539 4.849978041388107 6.782370331059668 -0.30591242523295703 0.5439832082315922 0.4063787954808356
Ni 8.728164046585677 5.178074616815247 1.8950694751181176 0.3201758771305066 1.0699998046824346 -0.4936646624826982
Ni 3.0555747910786133 4.858085894827038 1.8781248897018192 -0.7205899703874751 0.25595100571316565 1.1463258302386838
Ni 1.3512690267704006 6.76668931917023 2.7887868399868503 -0.3252967432968398 -1.4237092947940126 0.09878538300102986
Ni 5.806723153205602 6.3005199569732 12.802890493130741 -0.039602187772654375 0.37655117059644183 0.10704505190666082
Ni 3.3075900675504317 1.1205955347763117 13.224257753044684 0.3221276015402388 -0.700281083626794 -0.6824484263207473
Ni 2.056164516329358 1.469058375425192 4.515959327836164 -0.28788127876285907 -1.1890339106301715 1.0726503549314041
Ni 2.455124282993461 0.09346118683207544 6.62376654515594 -1.541564292831984 2.201258713285667 -1.437718721699227
Ni 7.104264996801796 3.7397727069892674 2.825154381910371 0.8223534621802224 -0.03283401581088539 0.5089848377795363
Ni 2.168726554253942 8.126968094540759 1.049357780957096 1.13050660381824 0.9840946200781827 -0.02819188905318371
Ni 1.8724447907886437 2.7200329790656674 6.837784426305788 0.9679642901752232 -3.2301802598705533 1.4338304423884143
Ni 5.474899357979634 7.628422536659101 3.8448665007984233 -0.15283074278220776 -0.06375795908325148 0.08685289322950204
Ni 8.658285577616553 3.609375232101406 7.210512848296811 -0.6479215961884712 0.10715535223227997 -0.5078898049431446
Ni 3.5964450004536226 3.7957730340901663 8.077130104173923 0.5316807367151553 -2.7112794485288854 0.5587781071525797
Ni 6.924714235628659 2.9614555888993377 5.18109780620763 0.33572719460154443 -0.015359770285521934 0.13046934436787208
Ni 1.4997596229533103 5.885096002111314 0.5282363147087621 -0.7811438207111322 -0.5390924557981941 -1.6211347934674596
Ni -0.009983427253747765 4.866764335000604 4.16333948673511 0.15603947952749256 -0.10637090865777164 1.0321631934506352
Ni 8.127989628855994 1.0697304882871304 12.91065960248439 0.567660497243874 -0.1485280016417958 0.5992935507681227
Ni 1.9055848364567352 3.1348587381573716 12.518871742954179 1.4387235088146575 1.9229275401050885 2.4759206651447747
Ni 5.456806236684587 0.6053704382196041 7.343295743855922 -0.40342999726515677 1.2820186277890244 0.7889404339374155
Ni 8.657503321609392 1.807103406661054 8.83258233932512 0.31137062013405087 -0.1868505513710782 1.8253482615970176
Ni -0.6703078101270246 0.8128679854744665 4.87694286610555 1.4724070171100319 0.7235053442620571 0.28935349243301134
Ni 5.76653360046121 5.4991124821542385 8.295861767992806 -1.4163664812756962 0.8092601193313741 0.9828100969388041
P 7.4900092384507975 6.366284679645841 4.019822198155377 0.4171694583384363 0.3230187458959405 -0.5997357805118639
P 2.614511245205535 0.18689292402623423 11.073442100451182 -1.1902950367307823 -0.23621444651618675 0.4769915727023914
P -0.04160497596676153 7.4249807567260735 1.0221417140161775 0.5510018056412704 -0.3151408858097605 0.7788776503847747
P 9.003490552070902 5.1367622966252835 8.693927001905191 1.4918574125251598 0.3037071900515221 -0.5608545300656341
P 1.2977074978094751 3.641972300070409 1.3156763784445624 1.2228781128731263 -0.014791299376561625 0.8499195447239491
P 6.906602708309913 6.046700890178986 10.941911734804714 0.13561952111024383 -0.5766827553471423 -0.38898296860189135
P 0.3824173528656045 8.526249966619577 6.624211050628245 0.6484604994110768 -0.2118571007177448 -0.23320342760400486
P 6.061904265753461 8.329627618466626 9.03962249689109 1.5341939685098416 -1.6033638426372838 -1.477334022098004
Ni 6.506354519986956 -0.01521073798395493 5.337937374739912 -0.6457639264155202 0.08639729374932216 -0.09081162076693393
Ni 2.9187996289794254 7.872891343414775 4.1539386101314015 0.8144596612544426 0.9854537052092384 0.24739848815746426
Ni 7.350528390868017 8.332839469601911 0.3386616330297419 -0.45110236364045536 -0.7029285485519701 1.0452825044414127
Ni 4.007810427090119 2.922968593347002 5.680144928235057 1.1066884183527197 -1.2573905448276987 0.2331566335264694
Ni 2.0951576775333853 6.944684771340894 6.3035817990153475 1.0051807513245206 1.2955485439546592 -0.5737452699853732
Ni 1.9501918348886262 0.32791711669608553 8.841997020446602 -0.08862849707268607 1.6172657974303568 1.9278002948163573
Ni 6.609768764133678 1.420015525282104 3.3308009837346844 0.039081796492810114 0.1065539712028552 -0.6764947798404737
Ni 5.565125686146802 2.4593944804913765 9.538682503135105 0.4462278091569734 -0.8679949141684212 0.18936020516680938
Ni 6.394942858543491 6.397492092825652 1.7217436311596148 -0.17463909690655086 0.24374649322717373 1.1207721501392958
Ni 2.375039673883844 7.211875814351641 10.411347058098166 0.16516303909531554 1.0615539879079265 -0.6877893789176864
Ni 0.8504908182141846 9.135112027534674 3.0142265791424374 -1.4014224583713542 0.3813308513732723 -0.5355021673437745
Ni 7.140791750830304 3.790600941431053 11.985639113112619 -0.33452546098395936 -1.46444559617111 0.692229416966911
Ni 5.363202403168852 8.94030267271597 1.7171099146936653 -0.6273856810186486 0.016222632506449477 0.27792159644698583
Ni 8.352579930017923 5.7199295484580945 12.698528338763579 0.1840943287821797 1.5794669814150282 0.49362635304559505
Ni 6.241353793796259 7.251614419515435 6.771877977250672 -0.9334631710745601 0.11947582147084584 -0.5892875885953465
Ni 6.011876693342535 3.4517460451524826 7.448748455127188 0.37114851152363176 -1.6998059222171176 -0.7027097476729446
Ni 3.8144275391080007 8.194343344286969 8.008260285303443 0.6284236353648597 -2.923133978143469 0.9996775621181043
Ni 3.6621176930077746 5.225267661576695 12.847972366974039 -0.5473904341409283 -0.32498178315958226 0.18612961404465364
Ni 0.30532464290808276 2.4416234646110424 3.115814025437141 0.4081153185559681 2.0275341577735855 0.2836829244107953
Ni 7.682977990899714 6.973453386380731 8.741756895086585 0.28286119984044833 -2.5264855225765195 1.2778693815073412
Ni 2.4630204671598652 3.6344350333661137 4.072999961522201 -0.34872720640563815 2.035607421700023 -0.5815459969767146
Ni 8.737735178908592 3.4308460052435032 0.23723247853884016 0.033890739210173895 -1.1057257973291343 -0.4101215503527195
Ni 9.508551842341621 4.07445863890026 11.319719299035176 -1.6651909032464094 0.7559125569481692 -0.23801678983224817
Ni 4.727900089211703 6.811968137467096 10.387828761318158 0.8575361807289426 -0.06113311986589471 -0.6192368266592689
P 6.872201850018515 4.576022784668377 0.6428819145159499 1.1458735731926135 -0.4891305220577705 -0.8211419583706245
P 0.5125553028193255 2.9878958419413886 5.353818091986472 -0.7721989528130184 -0.03075090802961155 -1.695793458623615
P 5.115236451910574 8.87776820720231 13.045800309679203 0.6534098729965522 -1.523633676495492 0.5700271977038377
P 4.196996741669113 8.420268082166995 5.863882139498284 2.561063003441073 -0.315609855026379 -1.0865733927703995
P 3.7332569746002067 1.6708252072017094 8.468271912272337 -0.09768443662736725 -0.5227083580132159 -1.3282925711548994
P 3.4270635673735823 5.722156677325543 8.399617443879123 -0.35660043850612777 4.194296122833963 0.5150202453403387
P 8.341517909775478 1.1647147735802081 2.025010480618271 -1.390852910385624 -1.1061238040985015 -1.7499185226027927
P 7.822716522814265 1.4014806594183062 10.932887261385627 -0.7325841666348738 0.20569262377824574 -2.0647562753498376
Ni 0.7622109270530717 1.6479465197452041 11.54619621762614 -0.34036083671881384 -2.4488703458952017 -2.0945299070678445
Ni 4.652085677600001 0.13863325019149242 9.918981322673082 -2.366983024201091 1.8232957499433633 2.1320399881981604
Ni 1.0652486215166888 1.347652243113761 0.5882353504580324 -0.5367242126763337 0.03582112346366734 1.1650946262057549
Ni 0.2335641580158462 7.576885670304945 4.701151535272711 -0.8482794380173648 -0.1886798912703331 -0.12496384116861059
Ni 5.242385263615754 4.427072037893019 10.829777636931105 -1.460819826493065 0.3553879062552654 -0.06294729025649803
Ni 1.3145121974456693 7.334432323144192 8.358885833736828 -1.3187285816155483 -1.0582835446867709 0.011072969984709963
Ni 7.37333345422973 4.116994959666136 9.700397827344965 0.638471506519165 0.38743619294006176 -0.8281286741011029
Ni 4.383909912321415 0.8337753877929255 3.933428004122115 1.1038941434370342 0.10761737947036304 1.578334924693114
Ni 4.162190950856361 5.164316114101058 6.2105614364508375 -0.353661667592778 1.547929058707747 0.43241712852612624
Ni 7.908516202282085 8.931090457855163 7.87015712859445 -0.4810505732631135 1.5798248789750793 -1.487967076331818
Ni 8.612868714141953 6.129831696210608 6.448648874790446 -0.6898215788563667 -0.08001555859269445 0.5026846065931214
Ni 7.705295294633432 8.413651116647596 2.914646309731991 -0.24673488643153635 -0.5985407317624982 -0.05282305733830257
Ni 3.1491786245943474 2.304029234457297 1.8786098884262594 0.04132842643514173 0.5841631228845875 0.5375485083498419
Ni 6.988509513765624 8.378477205360886 11.52165454592853 -0.5894092017748752 0.32929969380864577 -0.9944443387436228
Ni 1.1811145406950483 3.3336529971066757 9.456505129131035 -0.2552156702090379 -0.5608293332546535 -2.5141236585770574
Ni 3.2724713743348146 2.5013049964515233 10.514321398278508 -0.8505031851415611 -2.0150275406661424 -1.563425097460817
Ni 5.41577000685009 1.3664447933093298 11.95360895067351 1.4168354504923149 2.05717846300258 -1.1229565593851243
Ni 3.456016242650399 7.622652248229804 12.397282470706953 0.3111335644225803 0.7075789028397877 1.06366434938271
Ni 5.3773106203333025 5.227890519953648 4.161737242372207 0.3523043822339352 -0.33979005181700833 -1.016063459675295
Ni 5.133320370193774 4.048855859936464 1.6700613572182461 -1.176440390235877 -0.23339883144426257 -0.18298206955460744
Ni 0.6436071118496476 8.350012289712064 12.473626975801155 0.020954233654163913 -0.2477792685356507 -0.11723176263167552
Ni 0.13807646797463058 6.582095307503867 10.421717932150754 -1.614235495244465 -2.398440214269108 0.40533492759735357
Ni 2.721238573617881 4.780633347106223 10.310540947509438 0.8781065486811265 0.9741526783741223 0.5775134787785539
Ni 6.609501876790057 2.112532963904215 0.6968907098527347 -0.7828266077301937 0.45044750366527586 1.2787954928660366
P 4.873353691484456 3.0835243380638935 3.6676339783100387 0.25334802087267977 -0.9317852691515048 -0.6437810916575364
P 4.2118319967696305 6.684929761904103 1.6434591311676532 0.028009083618416277 0.5427182254762395 -0.3970086671198453
P 3.9907020280629095 3.1509456028693474 12.290428140731091 2.292766845898993 0.2865885280933645 1.6936342461887672
P 2.8321992874807465 0.3452132571650139 2.7270557974076057 -0.0333682910478006 -0.009041284266661849 -2.375856929651954
P 6.463431672723424 4.998036096014116 6.008019711076638 0.3911812618047908 0.9672178989275019 1.244634016492979
P 1.4970079224104724 5.7933235679535215 11.823803229447536 1.0563017383700517 0.19334335818427345 1.314215010015911
P 2.628435402133006 5.821300723974348 4.602904782279179 -0.40763143694101417 -1.7518753892188474 -0.7070137743649372
P 7.454467206690129 1.7499987181382803 7.0821888119785195 -1.1894979947507838 -0.5181166248774755 -1.0707919615664268
