# total energy = -381170.32322370925 ev
CRYSTAL
PRIMVEC
9.16619069318941 0.00000000000000 0.00000000000000

0.00000000000000 9.16619069318941 0.00000000000000

0.00000000000000 0.00000000000000 13.41564661223143

PRIMCOORD
 96 1
Ni 8.794822426647006 6.3950312212628395 10.137533695850664 -0.41304103799235964 -4.145481415324105 -0.39815023692345625
Ni 2.7449716125220283 7.292850428303749 2.513394222324644 -1.1762740398613418 -0.1325478241634556 0.360693891849211
Ni 2.7184171582366603 6.872067280763499 13.278874307142118 0.8045349459415628 -1.5886247366548965 -1.0025163171184799
Ni 2.8406483104269893 3.9002874470343087 9.423525942960717 -0.7213021659631512 -0.010989409131968173 0.10391833335222103
Ni 3.414910154050845 2.167923246943478 13.152498203544178 -2.7026351425903266 0.5962781609805666 -0.2121221814536734
Ni 4.853607938403111 1.2516616643339935 1.335866874652438 0.8146360389313066 0.971812974497352 0.0978052784759477
Ni 8.948108632727159 2.8403183275639337 6.086290088396999 1.4728880705115086 0.750353831913469 0.32252509408897356
Ni 6.704784301575385 0.5137200710627827 11.578400200908458 -1.1148562988754929 1.0977522922053546 0.11771872957042306
Ni 3.2867851412787097 8.69639587154991 5.0559277646952605 -0.1904218136621043 0.6748166208071024 -1.032080146818526
Ni 6.771147521812203 -0.25765611918851394 7.666263619233247 -0.45191688912195066 1.1159449039539815 -1.1938290180259699
Ni 3.6939931604804626 1.7590744796170863 8.56542109010766 -1.5353638204482267 -1.125497580639423 1.4235110627402774
Ni 1.9065218222592786 3.373313980924507 4.470884647640114 -0.4412732933651755 0.08403007906872624 0.4302548307674848
Ni 4.079431476911158 6.937944692896374 10.84896483255158 -0.7004016683650583 0.04336011215318984 -0.036474183666633964
Ni 3.5720736587719086 5.005986691609862 4.482422131799241 2.3652218185356104 1.188029123514741 -0.8741424218270558
Ni 4.826338521247789 6.13816706094566 2.1899028554802005 -0.5567729037970928 -0.03079615944525019 0.020363137037384283
Ni 0.7322017246921644 1.1008778282986795 12.212276198600573 -1.5233747664071506 1.5984818319546341 -0.7683304709965478
Ni 2.639010448718489 9.418444206869655 0.8228727658883785 0.9570239891136356 -1.422213941195409 -0.0943106350591279
Ni 3.410932027312892 4.6958669636716985 11.595814129887174 0.208646307089931 -0.011579220197167155 0.7207005278234104
Ni 3.3097831135955857 6.934269050449556 6.4469558580028306 2.0440838346021506 -0.5729248309666068 -0.6945740059396877
Ni 4.094363201464443 1.7007500085719371 4.356932398836235 0.16882326155572214 0.4717632344239166 2.131363530956426
Ni 0.16953969532379176 3.422893906098672 2.189876273527343 -0.1808061449492112 0.1438838180015651 0.1260061663901959
Ni 5.045052996119438 7.139903371277291 8.53977042221944 0.17527158828422718 -1.0114354739849807 -0.5910493084814595
Ni 2.800234575893269 8.484134394889134 9.143487819466365 0.38638923973278616 0.6120516217647395 0.6167569976602088
Ni 9.26848532799198 0.5149547569420506 7.549923577767531 -1.7952956651860115 2.574022906035851 0.4228801355699685
P 4.17430155003976 8.94297556596851 7.500177744542775 0.5404926785798304 -0.067671949425677 -0.2509880052809355
Ni 0.6565870682419446 1.3776876194494665 1.0890552756106342 -0.09501537443563636 1.3569691131539854 -0.3617673274190479
P 2.161726902070537 2.7390410871776605 11.426414677280182 -0.3059625617446021 0.5990984040381812 -0.7154935297011742
Ni 4.696462766063329 7.846039199645222 0.37422256556304817 0.09636314671278244 1.9534280226867906 1.6885748293879885
P 8.403105269627604 2.684208934766521 13.093134286480405 -0.4478882275785319 0.5554063624668693 0.8267608472192987
P 1.4820172013190072 0.26589835781240173 2.7183722439025226 1.0284749459657705 -0.5278433652469361 1.3424516362641008
P 6.409541301046663 8.859728222571993 1.7814234856366182 -0.6474294870434011 -0.14575995197835542 0.308079865197921
Ni 1.792631903551754 8.477763892394025 6.938787065816231 1.0448410460286202 1.7227753865290978 -1.1411363156179444
Ni 6.252084478225107 1.2051707454056586 3.3749208141437768 -1.1473781827625982 -0.04426694023817538 1.9511870491714138
Ni 0.06846686098880107 5.9174635227050345 12.498364924536682 1.5228916561231451 0.441692126070149 1.381579198393182
Ni 1.654259089643602 2.691303566322225 7.850004493716279 0.20943897819455543 -1.442531312596522 -1.6818534515037549
Ni 2.743862503454535 2.14445779890394 2.6560027329277447 -0.6859829218365671 0.03369790647307745 -1.7489453600562461
Ni 7.097225587655381 5.607032144285097 12.748567097496386 0.29390691613164865 -1.3484687889924585 -2.8392401675422905
Ni 1.6695849603944255 7.015059854754435 10.80563258291794 0.42299506388127794 -0.8103165856203463 0.43645350337902894
Ni 0.5574904646090338 7.841721923853573 8.75087879209765 -0.06402303981918005 0.4776708581576032 1.4032564262562994
Ni 7.189125815016479 1.6058616030620545 5.772282979008224 -1.116664041508193 0.13940804161839862 -0.5915128783814393
Ni 7.345097714954283 7.142103257030997 0.7892676777623805 -0.4698361926045328 -0.010130403565782552 1.0661223240048994
Ni 6.932774961375164 8.182135911858404 3.983172725900529 -0.5407721574934622 -1.375628637236702 -2.377773687058692
Ni 2.6476633326830687 6.184859636068085 8.558980924563684 -0.5679582309899509 -0.32713842449126884 1.2341616562067454
Ni 6.085635622385272 6.78982821833743 6.247706705575229 0.4162919408294895 -0.3365494333925236 -0.5884617502599414
Ni 5.087052481633955 -0.09624866820092468 9.859038242241098 -0.5906549012565182 0.4637717315780078 0.3001441552906121
Ni 8.832972112092536 1.352773913288738 3.626047855739102 0.947441487631523 -0.514171009966166 1.4326575051262358
Ni 4.334389069575125 2.2223154222038763 10.901420191729652 -1.5229860156091641 -0.551752824874682 -0.679838756612042
Ni 5.583649191961322 -0.2695547512588751 5.609135785037079 -1.1610291978871294 1.6694203679467248 -0.0030408437088528277
Ni 2.1759619961351477 4.738462251577846 2.2294659675224873 0.6179510179683099 0.5823841766072938 0.08448979231396417
Ni 7.801729834089313 0.17110619730424373 13.520288853134828 -0.3647423508869718 1.2767085284300206 -1.9327674090136457
Ni 5.087070814015235 3.7008219725075935 8.966602338963321 -0.40503616541001214 0.8895975800398614 -0.31879725161542516
Ni 5.99837348748824 7.590439973636425 11.995573702574502 0.9720572292976744 -0.6455343269032173 -0.4949784961981153
Ni 8.288307898046675 8.820634419490496 5.617238697563232 0.27557777880515766 -0.4160708259576189 1.2054036102374466
Ni 5.859423203569739 3.7901739988706478 11.340634715409708 -0.10606777559505604 2.3851183003492213 -0.5697862853376251
Ni 2.6510089922668305 4.794760994491456 6.643763137243817 -2.0164069375121727 -2.4617847399640245 0.5445123412621848
Ni 6.350437703797076 1.9204544320327543 9.633950515017148 1.059069530923176 -0.09020715441371562 -0.7214723729924284
P 1.0904008723966514 6.591691841453579 1.2611871696475436 -0.7654811744732107 -2.1606633083618076 1.1069334444839904
Ni 8.684855637533591 8.666504923871422 1.9357170560681587 1.2922837571604582 -1.4248421228468753 3.240664961451961
P 9.099405775438338 4.316395837347932 4.184326612743215 0.44008415815308083 0.5423675270050402 1.1278321423098705
Ni 8.617997443002187 5.758723433193814 2.607102939099101 0.13632657447959745 0.7356113834969719 -0.8190786480836926
P 3.1860395399495833 2.644684320724924 6.396352069334128 0.6246081182735115 0.04627882846188158 -1.2328696768681993
P 4.71257692920923 7.047407341524564 4.419288160525052 -0.7352488579512305 0.3490344532334118 -0.45643071783190425
P 3.892597013086976 3.663873058035961 1.2435972498085304 -0.14647728976035418 0.7905214052712901 -0.9867161168614298
Ni 8.070363383188825 3.986715458583061 11.202467224171905 0.8679722884606019 -1.117496050491185 1.7848135347077647
Ni 6.254925997323643 5.647400047865615 3.9184016729779554 0.8787300411977381 -0.39353510674894804 0.6009272297168038
Ni 5.052780094829332 5.575005474187384 13.351385291441483 -2.1298303821413516 -1.2946684553425507 0.035022024601139685
Ni 1.403811262774734 1.321911349402361 5.498805098155239 0.8957736269435862 -1.0831106310327796 0.26516506811226587
Ni 0.8670455552037453 8.12015413074772 -0.06867859999259535 -1.6107107699206582 1.362290268256583 -0.6437893191876526
Ni 1.336751412049241 3.8532190580956254 -0.024775296682057756 -0.17511963608739517 -0.3649035590551845 -0.4115549403651364
Ni 5.2231062493100735 1.8178480940036172 7.038814037799147 0.9351253892683314 0.17923391536608488 -1.3390960895283066
Ni 7.594702252284231 1.8191130283119985 1.760307332258226 -0.6964051456111555 0.8256563013012104 -1.9840298067330477
Ni 8.026411499067892 6.6156064328344995 7.525426016661879 -0.48369520997481213 -0.5847956142622638 0.24677268164800722
Ni 7.299083437939252 3.275419064884559 3.745259664732469 0.20830666436232514 0.4672008118642147 -0.07383025571758897
Ni 8.264613295241126 6.435518285321684 4.937897477675447 1.4197960757825354 0.6405546143004387 0.364520721794469
Ni 5.617664925428012 2.357672559391322 13.053182527954963 2.64896953474607 0.24445174682431448 -1.0545001663849387
Ni 8.484171059651697 7.9901408827036535 11.574013262067941 -0.2563109601557456 1.4784447386636796 0.5470608187156514
Ni 4.160158117881554 9.092842782939782 2.7989467261082868 0.1367664902304935 -1.9743290345055158 1.9012757661632678
Ni 6.841021393064313 3.9660090339262966 0.9175439326800827 0.4053740083654051 0.14446128777158992 0.7753318420150453
Ni 0.9960899368971167 8.202943164612215 4.519637782418511 0.38037080145284813 0.09224192545555727 -0.9783939701489794
Ni 7.328992717999022 7.828311786946602 9.448720134555044 -1.4400985347853135 0.8042043020750214 1.591571735098362
Ni 8.673819544002496 2.5384940021553732 9.102355455586434 -1.3641332350025925 -0.030164953619154503 -0.32971312719698054
Ni 1.0134232033981976 4.618009340371763 10.940795396863809 1.7954255058956563 -0.7812487217201126 -1.0057579639842291
Ni 0.35447492444727424 4.371292153093555 8.086186978091423 -0.5088809652118204 3.369287225308765 -0.1931114446791255
Ni 4.802992233686576 5.1259354623307205 7.067979939797978 0.901505387221041 -0.8653042547101356 0.5791013920909639
Ni 1.3838472995598454 1.432263118522674 9.724532644164148 0.7640457275782647 -1.2170375949319492 1.5006726968239448
Ni 5.092002224579795 3.720465119050066 2.9415277381394667 -0.3344753244723143 -0.7011413747445602 -1.0520527332857106
Ni 7.475541773958451 4.58333364117896 5.974913539163086 -1.318758406412219 0.06683042736098814 0.8060693803082182
Ni 7.278862821386431 4.594140579944045 9.230501550597042 -0.29688631047494674 1.2732439669201878 -0.923825647984796
P 0.8647585906389543 6.636881161310971 7.012036845081217 0.9464487847009507 -2.510555224499509 -1.3316907982031712
Ni 1.549608691101646 5.821108526692681 4.7971799522014695 -1.9845322002907628 1.0096382728752418 -0.18199707993351882
P 8.327750016372509 0.8075615610425799 10.406772213532443 1.7200885837255537 -0.08432781281480316 -1.4805160193704114
Ni 5.367822067141414 3.630058980763361 5.173113845557089 0.443183623014011 -0.6345762852298168 1.6493847894520886
P 4.549647890575327 0.43639133696279975 12.11589828711162 -0.024422394708422453 -1.1512181253339786 0.7080203612525807
P 6.03486409242785 6.071409694511302 10.38148361017452 0.23592185497643242 -0.5262333404473389 0.006987229951110547
P 6.8706373550235895 3.198111413023049 7.630578722450932 0.5053791227061489 -0.5824631094743452 -0.5053513547920071
Ni 2.4021102516161976 -0.16543965825032086 11.602683273153124 2.6032370657059616 -0.24075064382364347 -0.038721584939913956
