# total energy = -381171.93521602126 ev
CRYSTAL
PRIMVEC
9.23756191897160 0.00000000000000 0.00000000000000
0.00000000000000 9.23756191897160 0.00000000000000
0.00000000000000 0.00000000000000 13.52010561548026
PRIMCOORD
 96 1
Ni 4.859945941111661 5.509097123513225 3.38488005944418 0.4715318351394008 -1.029509300767556 -0.299624021121084
Ni 5.794620922082376 7.210702200203848 10.82349323260276 -0.010684733407355792 -0.4579124445837533 0.11332265738525643
Ni 0.48616179398026904 6.320681593113985 3.0327220323785165 0.03909053824355849 -0.3505071811241963 1.1787248153946797
Ni 3.499105282726949 4.931361531610808 0.8501577565296549 1.5459948177995118 -0.36363266276256084 -0.4791926941187682
Ni 5.608169974128067 4.6463642740659035 9.102722062629557 -0.0862643677158837 1.3374860647287095 0.9369315892391349
Ni 0.13815235593195954 1.0163627402235866 7.80235787402622 1.1571560880849683 -0.7202302730552111 -1.7527588202650652
Ni 8.741227631823433 4.441586003443077 9.924554683323286 -0.1154294193156141 1.2964026644248383 1.0104396857306146
Ni 7.360923430665252 6.010789106440224 13.475124270511346 1.1258410800217706 0.17531272593480776 -0.5778176402825339
Ni 3.9283285931063086 6.340717864720847 5.516689475580389 0.8625097226841338 -0.5718920188267183 -0.63850570219121
Ni 3.8616888220726984 5.3129190229530945 10.731435386440777 1.297371970316643 1.0306914940011151 -0.8326304186261982
Ni 5.798038819959065 8.282176234298591 13.036801961730532 -3.1128999033891294 -0.6877996633303316 0.6141828091751292
Ni 3.906001406165882 7.686187220222286 3.004991795524372 0.010603229437143029 0.18862024167699132 0.16512961475421886
Ni 4.551586889701495 3.337706602452589 7.622472985019885 -0.6609174942275069 0.10752250576371161 0.19319114887712535
Ni 0.03239890060246476 4.013120173133687 4.237079317138019 0.489715190916647 -0.11946682260978135 -0.7249554464450224
Ni 6.175541021658471 7.5004013767196565 3.53844159226291 -0.09105021914030124 1.4407963321832864 0.7864922295072391
Ni 0.7604942863937202 4.911029658025421 8.049235408928027 -0.4069225837994476 -0.053657894534772106 -1.7065679235312996
Ni 0.3767151614315841 1.3334974753711983 0.9061798739971393 0.4200922884121862 1.109346167690541 -0.044875520356451745
Ni 1.6380691264315197 5.357120756304332 10.092907400142435 -0.27587756943376357 0.9927265847215677 1.2307791128877579
Ni 0.5089212988142874 2.8454276950292297 11.450123239265492 1.454981879655049 1.879130854635112 -0.23352558683011398
Ni 6.68629505273961 1.2749128582523799 13.286018447287415 -0.021212886632189273 1.192709559709546 -0.1588358113257071
Ni 2.2336054999782085 1.0774322614743763 10.116351408307974 -1.1934428383311446 -0.7776260373658607 0.8999084750475664
Ni 5.624150956092047 6.660910232833822 1.4523433270807782 -0.6614615396564351 0.4920757207290235 -0.9909044439111643
Ni 6.902213822928077 4.809721317447988 11.293641713152649 0.013791911577769796 -0.5548211793873605 -0.568266249148673
Ni 0.21142007757779804 7.7123387577598725 8.297288885450653 0.5837489181653043 -0.3707875286397872 -0.4913236730543474
P 7.414307300474405 8.716932844213455 11.810082387295651 0.3159587537253655 0.11672525530890221 -3.5205264552341364
Ni 5.250038939583843 8.8319312514213 5.599107925973926 1.3009555739028433 -0.777818355882325 -1.5754630024619576
P 1.8670220963605504 1.5817292368371214 12.492280023383886 3.0366790359521763 0.5082955250219956 1.6265852750590697
Ni 7.91943565640175 4.117051981270524 6.314267953936187 0.8137163553305148 -0.14770370596828755 -0.8794463505384725
P 2.3473568363391557 7.649033746546492 8.782620222622505 -0.897630477646667 -0.30720054791676127 1.6286964078648014
P 0.4660562406596906 8.109267551985434 6.061333349743176 -2.9559962760891283 -0.48554846113346695 -0.0680694419744118
P 3.6514142021616824 7.684487508845771 0.23241058932158404 1.9730666228533245 -0.42511853798218396 0.21972904726665382
Ni 2.0299357367748487 7.889311967277742 4.428212785183393 -0.4661967960797326 0.09572782712162868 -1.9592299740805486
Ni 8.698559333735792 4.635935066761086 1.6663526932392139 -1.328007435814313 0.36348508144110303 1.3296876517302132
Ni 1.9467514925056972 8.658514503207556 13.07403672595042 -0.24323458658776173 0.36293255137174263 0.4984122044700126
Ni 2.64375324518091 0.3464630701981533 2.094967248294049 1.020389597854475 0.5020875964390707 -0.048465037479922986
Ni 5.924731980442287 0.27599894856738283 9.888659365568587 -0.07783937687698207 0.02479880421123471 -0.16903820578000567
Ni 7.164311164699164 7.820390518472395 8.910493019751277 -1.0900032443875551 0.16827458814110371 -1.5263423336759068
Ni 2.2526625900312074 2.6924629087046448 4.166382408949161 -0.2720209146918347 0.3213971511321174 -0.5727895909403232
Ni 3.052607731727567 3.440640753911907 9.743385773222736 0.22229860776604296 -0.48854585319889404 -1.2536717012152152
Ni 6.188030205251129 4.314449439992067 1.1941497789385802 -0.560758370807402 -0.27199854609433155 -1.0083023276726375
Ni 4.438075729948098 7.719544055986407 8.77360159100896 1.3023467978234151 -0.08121266422458917 0.23039166918682255
Ni 7.360710966743187 3.2169993820344875 8.72052256074016 -0.38901613583267197 -1.3281125939336096 -1.8237600911742915
Ni 0.8944398566688034 7.915232565769606 10.899841681118533 1.5204470512373944 -0.14348221168777223 -0.8311165530848331
Ni 4.135065226836859 1.2744232674754485 13.482709232529048 0.08039942429467445 -0.7859412420997755 -0.6424019519218227
Ni 2.5465371444936746 4.664109630339199 2.9440571426762845 -0.888540599530257 0.7602829181017229 0.33641830713129806
Ni 0.4778609209208287 2.6104518347877623 6.183609108159823 0.08615458161089679 0.6243790329818408 -0.7086281700399086
Ni 2.415400716770757 2.1998606866172743 7.593445794484966 -0.12518495604048116 0.04261474934673306 0.3180547170224458
Ni 3.580035561909852 0.08208312689914787 7.009796315499692 -0.2095932443842326 0.43217210239485565 1.9761231502914611
Ni 1.5986247374221607 0.5899938364493547 5.895063703116442 1.0549840479998929 0.8785240958345194 -0.45351894350174804
Ni 8.597112429730926 0.4717336461597262 9.653314926610147 -0.982195860393573 -0.9019386181037176 2.712228442705716
Ni 7.087694826890353 3.64968677809968 3.178739248451592 -0.5504762721551035 -2.092416460269267 0.9410677228946954
Ni 2.4729507269647395 6.064995119252148 12.439254570973693 -0.4430424694504564 0.5947288142155757 0.31922739717430826
Ni 7.805471856118739 1.6130168587515707 4.625443967792017 0.47267494760490847 0.634852421709339 1.333364072140536
Ni 5.0343695835647555 2.035838538783509 11.040382870539444 -0.3425043654243779 1.1496798343125811 0.9083231814738228
Ni 2.081388956161764 4.332388785063771 6.051003908106113 1.9749741242886825 -0.4379537420736393 0.13685262218639657
Ni 5.388824068501082 0.06136235196076545 1.8810521052662679 -0.11094670095391215 -0.00276702122217588 -0.35264042541711527
P 5.742354797254519 3.5524244896033004 12.660835042807086 0.22247909920796524 -1.627485675386152 -0.7477300211373767
Ni 0.5934163531069584 8.481393492700425 1.9445160025431056 -0.14509275070800173 0.7758378351171864 1.0139410140156537
P 0.2630451156147309 5.323911721529473 11.974054652295541 -0.370953107683374 0.14586845253176167 0.04468063073682628
Ni 8.315052716847608 8.442808196941153 4.277923196764455 0.8958173356973281 -0.2336358871557331 0.5764292445754394
P 7.980191100550358 7.442334063063257 2.3140609684831057 -0.9010898969501772 -0.42161283882177064 -0.6116034784837273
P 5.775443743725601 7.278505904027898 7.064701611742064 -0.051734195149497994 0.10200980347559852 0.4819208916832087
P 3.9822759541870236 1.4999213892804744 9.074127189988229 1.9725228345347126 0.02882566598244068 -0.9367220443314899
Ni 7.901773438184914 0.8118412738196035 2.5709159939162975 -1.071006391570078 -0.18082028601659828 -1.9623062990130271
Ni 2.2413927645999623 6.694063842237706 1.5967781488125659 1.4210818844734945 0.43279893734557723 -0.07862793421654846
Ni 0.7454546119801049 2.7060790748404284 9.074113333645485 -0.4074748567584918 0.7680036837847483 0.607827813491379
Ni 5.793512414662909 5.107337084451156 6.574529792171874 -1.5358872970518644 0.31923691025600504 0.08692359856643739
Ni 5.593371400078186 1.287041776933712 7.245464992878326 0.6660440168207948 0.1494785384805232 1.2400469113429289
Ni 5.367531488485491 1.786756921629328 3.908852117746277 0.105241937259651 -3.2518389757909096 -1.3191728682418185
Ni 7.630346158966648 2.308734590332568 10.844017247474188 -1.4078995814552657 -0.408061068279265 0.7588251026092738
Ni 8.167750555924133 3.3505191007092585 13.182211346235267 -0.8073852709061643 0.34550355726201787 -0.20055144589693846
Ni 3.1083933676122317 5.6480485285433835 8.184611877530406 0.6122369983026682 -0.5916555746068907 -0.18559688146963518
Ni 0.5887430705777231 5.917092516809795 5.681012767929777 -1.4745729144130992 0.9751638932474559 -0.34350221056127295
Ni 3.06239954726619 3.342556322412756 12.016913244156857 0.28422799828098794 0.329216132955904 1.3928097770016787
Ni 4.354882248117118 3.059554378222892 2.3755775877264136 -0.5753121002518607 1.419797618444432 -0.07839139272571016
Ni 7.949781047009654 8.507794444407393 0.258834634933123 1.2093723650772075 0.24497393787637167 2.223591315344596
Ni 7.349006975905984 6.673879769641582 5.702997241326351 0.42970204358780834 1.7223120737394335 1.7908491993788835
Ni 3.781516022959764 2.1549568985670415 5.677930193547476 0.6668765400244192 -1.0049370107448308 1.1946039485187814
Ni 1.1414023771394373 4.318393878893004 0.3168068017026859 0.8916207811174773 0.7788514251325296 -1.8482786451409456
Ni 2.352890135874661 7.445659585321657 6.580289411972187 -0.20320508146970165 -0.9691961056997954 2.6841113727545256
Ni 7.600601209877624 5.670597416967704 7.84220224946277 0.6727450829900543 0.9659904542783041 2.427598581000619
Ni 0.14645230523521693 0.6389482953615555 12.055580754216408 -3.0363972430457 -1.0602584090249547 -0.6100502750639946
Ni 0.8998770855612879 0.967015684933658 3.7154462094909966 -1.469420166567566 -0.28216957309006246 -1.1656708104241988
Ni 7.665236429994365 9.073779857663462 6.735608852806955 -0.5372628587886231 -1.8337511409487322 -0.43293829113691884
Ni 7.529111718883846 5.720027610314093 3.870427555562828 0.5836291047579885 -1.0520108243041817 -2.0265951908990836
Ni 5.23292173751491 5.601435791554807 12.616489203491321 -1.9355827669752537 1.1612827086588322 1.1049881478321615
Ni 3.6259370066376047 8.323985439136145 11.098803059057706 -0.27019568855763787 -0.3360467827244922 0.036260010773298844
Ni 2.5963737905605346 2.682634142918707 0.9677620799294323 -1.1556519927356164 -0.6795803607443328 0.29528657008799464
P 0.8447473165664743 3.0806344943164183 2.3950051040087517 0.19677912333869982 -0.6597216741471928 -0.25159041475162475
Ni 6.016839709438146 3.0785468053430893 5.4641231299930935 0.007847778179192934 1.0394831241508162 1.2574422240012408
P 6.119838523830266 2.096455419504683 1.765590896210793 1.2248270090693807 -0.39881229598748735 0.08759979869785559
Ni 0.3223391774820079 6.836119068042372 0.4473455591752746 -0.25928135563797927 -1.961676635848828 -1.7266382119186134
P 4.0306438279230905 4.090429328079664 4.783967918825226 -0.2848018685065869 1.1046780727909102 0.15214374401751218
P 7.631971969848532 1.9466498793255793 6.809523203780815 -0.013387734160815654 1.155461731101681 0.3261246385147738
P 3.5526000032780494 0.39165137515271586 4.356435082260554 -0.7793772157290126 -0.6050139981916677 -0.9339334258427593
Ni 8.130162916842382 6.8035381874718786 10.642418545632864 0.5517975620696884 -0.4946663642743352 0.9248265784454847
