# total energy = -340897.0313913992 ev
CRYSTAL
PRIMVEC
9.01362699640649 0.00000000000000 0.00000000000000

0.00000000000000 9.01362699640649 0.00000000000000

0.00000000000000 0.00000000000000 13.19235422062616

PRIMCOORD
 96 1
Ni 6.384712361163513 1.9528473001777125 11.261138506324915 0.20439961599843506 -0.4455986602134068 1.5821334725035976
Ni 4.483846646364051 0.3637404000601025 6.0473746765343055 -0.04689255078648053 -0.44692072145893996 -0.5243615773459227
Ni 2.5925173486497615 1.7246673393921375 4.745830411492275 0.40178654812446285 -0.011287657098677335 0.6992505854797505
Ni 3.4467207270312503 4.44177103676709 4.833638459052411 -0.37978716103523624 -0.2729663093242396 0.22441076901303933
Ni 5.014902492684562 4.411809741501388 2.8228073994538985 -0.21375791728488347 0.3797650495480492 -0.4014011397605861
Ni 7.000352080761205 6.016163191240519 2.6081154297139304 -0.09197118829267387 -0.3747166884908643 -0.1422066874094583
Ni 4.9847789521376376 4.437814054630615 11.579047318527763 0.5714631588194158 0.36606106969839536 -0.2231954085486995
Ni 5.64981334624076 7.841512741257775 12.28977268791108 -0.6578637950028476 0.28940285761370804 0.7558745046213821
Ni 1.8780432119075374 6.31099892172822 0.5033623795412259 -0.004306854905470002 0.7965161894021444 -0.2923066615240643
Ni 2.829233213952972 1.647114094967919 0.2940812899300182 -0.9796790075089902 -0.351860095607665 1.2235525132323315
Ni 0.45618866266319363 9.168120296797943 4.819338340238019 0.14959603789499398 0.09807935807294076 -0.09637523089764047
Ni 8.536877989322715 2.1924385124092503 1.2680541349097456 0.4863105361104721 1.0890141410014083 0.11163807059398194
Ni 6.782510749840179 0.8027914542128629 4.911579289426215 0.1508545928924434 -0.6335817825270313 -0.640479023867497
Ni 0.8968684791668905 7.463571372277361 2.6699480077503894 -0.19356601571804086 -0.42767755695861187 0.16122436616254168
Ni 7.364818077773441 3.8374884868549533 3.784358565430719 0.8241941149333871 -0.15595026224779593 0.3383281225595012
Ni 7.413960370730302 3.7618821858054012 12.460666543985113 0.6067926873586453 -0.11709292306096607 0.8344340474938403
Ni 7.94830619080893 8.739765713491094 6.831792754011427 -0.11386953102766195 0.08547735303821408 0.34267791488776467
Ni 7.047664607490949 0.5620762427275248 0.33686807467633656 -1.165209040296432 -0.006977716869413789 -0.32564847020930365
Ni 1.9109249222352394 6.423335751721134 9.215162414725652 0.8741938438902815 0.5730598138825743 0.09507065315360401
Ni 0.08769717995130062 4.724303166762107 1.2628460613825128 -0.6632764813779868 0.1970891983799509 1.3220859281235553
Ni 6.206440851607238 2.0222251851536783 6.941315529737809 0.17445114926546085 -0.4644631012180775 0.7557444068014211
Ni 3.534630628573487 4.212266072851533 0.5565166377576436 -0.1001300699543824 0.2540828421561753 -0.05282202889703806
Ni 5.88276151556892 5.493075390953366 4.990997453221815 0.22949769661764347 1.084828642165151 -1.3052742558828554
Ni 5.206838660370442 2.703348902978003 9.404486433383854 -0.7600155233729491 0.5643070073906088 -1.0991113773364103
P 0.017690143829262095 5.480239986483341 12.414968357803527 1.4247109965856497 0.14091727917407346 -0.05230652271320024
P 3.925650769945758 6.159705196988506 12.697231881721855 0.4606815226884582 -0.10448731848181358 -0.21820978240865
P 2.379705621446624 8.509494591303099 1.5321335682537562 0.6521209789817994 0.2912126571289372 -0.9596002344812442
P 6.311891270774943 7.555095738140159 5.815941697860225 -0.07114268158309683 1.0653167973844686 -0.5891698320705595
P 4.622944934131896 0.9112055538508934 12.447830238152415 0.7984267761612959 0.3284314322710795 0.8402331706741206
P 4.079810827987065 6.084946176852003 8.125236472707101 -0.6006459510309591 1.0339673365389097 0.7475978664348867
P 4.827256811324337 1.0741448843316694 3.82999095213714 -0.419604035921858 -0.5876189426436718 -0.10779478558849177
P -0.07326456082391121 5.574892080823035 3.3851711768742563 1.5332794271153722 -0.23637334069155425 0.8814600385343917
Ni 1.3486458729061868 1.2235367338303904 2.646148427720438 0.2883337929192454 -0.05306216993230216 -0.4171440044171396
Ni 1.8262779535709162 6.456307598316182 4.78443126798306 0.4562885358270852 1.1398744181863851 -0.0025127391195247047
Ni 5.965308309204089 5.504630860427081 9.032356149559215 0.17103852403948608 0.41437826874654443 0.3145199643963099
Ni 8.580143397648639 2.3660409633170194 10.065765750589353 -0.13918101320925708 0.6241877429066411 -0.06578475970529316
Ni 2.2939950448276214 5.309377678102881 7.0216702093511305 0.5838314505767817 -0.4016024571381148 -0.19308959030225456
Ni 0.4995333909043816 -0.0013844930664295614 9.000510104943315 -0.08885501126119535 -0.39798748609334683 0.9686865130532285
Ni 1.2751848150194618 1.112750247635822 11.144161461289046 0.6093625049683505 -0.3172257933632472 1.6196564091497205
Ni 4.215321692314552 6.972833478340571 1.6791620448226736 -0.4209402382347783 -0.2742202363359987 -0.6655292819679054
Ni 5.933823711020246 7.770422267202242 8.00237623350158 -1.2978329691134618 0.247346037652974 -0.009087307013248865
Ni 5.218628484139256 2.900774369345234 4.855406367616391 0.03855343479316586 -0.08758437207888786 0.07296302262128725
Ni 0.9712182806496436 7.475640618474947 6.9941371851277205 -0.40934559141864335 -0.224656052254626 -0.3093325066580995
Ni 4.951410505966268 4.464692689553095 6.9648104491841325 -0.41490251668113065 -0.5377621670225448 0.38386184532524215
Ni 8.175999415750839 7.014476433854273 9.072738098692751 -0.43296117395505435 0.3136527313000082 0.4498749189912574
Ni 4.661117643352789 0.3839768934418799 10.370892338719912 -0.973336353120414 -1.133180036885345 -0.21723199187641298
Ni 8.083609741721522 7.247848243638958 4.477339709224367 -0.2511307015063869 0.025710003171594432 0.7143905264449826
Ni 7.520375247958605 6.016767104231735 6.811120001095696 -0.5738404008023407 -0.04265794387984266 0.9123711262909512
Ni 2.326164678643293 5.37295980108852 2.680739121677014 0.10687793020117721 -0.8121374408791692 -0.6027203170614845
Ni 2.3390271239935205 5.3411416987154965 11.42543619035459 0.028940080073117904 -1.1182974633465579 0.07497311107278055
Ni 0.9750400583851002 3.5270952366233885 3.7172494103038436 -0.2611574896147696 -0.09262142028216307 -0.38085956816380856
Ni 3.691431679248022 2.47574581430344 2.6101993802149623 -0.4249084788539069 0.15501052404234594 -0.4179353899701835
Ni 1.239716193818939 3.271450755177586 8.229073452689319 -0.6911932623929129 0.6459878695008682 -0.550111175506201
Ni 3.5188567817879934 2.523572117757055 7.231098221078112 -0.04153822845310265 0.5980249684683443 -0.6728836654504476
Ni 4.10200237700757 6.834203899162923 6.039275031550623 -0.09361129499925813 0.7379886254798967 -0.30776439084003127
Ni 0.7831967310545869 7.241664895699046 11.254713593188516 -0.46124048051572175 0.21660669958758824 0.3970258935110259
P 0.333816060664012 5.531924122179351 7.957310803916762 -0.3836651559334038 -0.5189306361383386 -0.09202492434874474
P 8.46481404357985 1.5904814781946317 7.867827123146672 -0.5716436502613381 0.5290039612139406 0.7396634420791585
P 1.786960513754733 3.2789230517405423 10.42962422915968 -0.013356880922880222 0.06962753049015104 -0.2632956190036949
P 4.097062909557026 6.197841851702461 3.75391053432135 -0.669707324604995 0.5223694866165584 0.04859359263798728
P 6.815149092246048 3.9998689724781857 10.285814518697675 0.4677044909735107 -0.6031442919727805 0.6046393884610684
P 6.396105585356007 7.938886950871307 10.210222639450901 0.08557711184087197 -1.3668539763678653 -0.3488411062756831
P 2.408495145236832 8.548902167386629 5.701273943993752 -0.29108127375739545 -0.1762637769941674 0.5332874190806428
P 6.70381277482067 3.9203327301723627 1.5607211868051103 1.1001053658185633 0.16772437206458854 -0.2962517622147414
Ni 5.395016145708006 2.607191532973637 0.47911752635058635 -0.7339473655309876 0.12199318857606085 -0.9813196284362069
Ni 1.3992123188871102 1.0471310450081708 7.084359983290047 0.6443125386809742 0.29847628066988596 -1.2224893620751398
Ni 6.766799998441828 0.8768699455309056 9.181126058813252 0.5625162340387732 -0.8845826433237733 -1.0815538280686212
Ni 2.6122121230647912 1.5500463486633622 9.303155241633846 0.9551936207731163 -0.43196178615626246 -0.5781472557078108
Ni 6.46792616317704 1.875447287407982 2.5197530441096188 -0.31428445134673616 0.00277242053881458 0.5955981041944066
Ni 4.301942645233745 6.7348827461747245 10.49814581959586 -0.27837745303748185 0.48446268426845607 -0.49406472613459423
Ni 8.085358385308028 7.18456357033556 0.26801748686434296 1.1002688879796212 0.05465599678198328 -0.14760163317278452
Ni 7.521916578130217 3.742304588537921 8.179734662669643 1.0632786839085173 -0.10675605991133227 0.009551134023544842
Ni 2.8890746818437654 8.337803029263059 12.435851128222174 1.030077257455884 -0.3773034753814341 -0.011449122377206088
Ni 0.24828485521702792 4.8627344461515944 10.110487760995584 -0.736885365113389 -0.4332133991751765 0.2642587542479127
Ni 8.665349211170506 2.550640038840961 5.833962641790646 -0.17902591312033683 -0.5941958245302411 -0.12880738328441688
Ni 3.567539379781392 2.6144565161216984 11.480764535339386 -0.005487762587448613 0.17306455333057938 -0.6286365227066142
Ni 0.9448263815708301 3.3712045622490443 12.60970055250247 0.7575143542176502 -0.05546332317462706 -0.7116733846241357
Ni 3.0455782828360602 8.353576876048553 8.124616335187763 0.7238660700355856 -0.6404733674405422 -0.5141342431909597
Ni 5.609684680018465 7.9609162546105905 3.553057185706963 0.18226010378691837 -0.18283808777757543 0.5880938253975614
Ni 3.110494422578415 8.508782514791069 3.604890046244093 0.544416696224585 -0.3258377034019743 0.23977285329140643
Ni 3.5151611948268213 4.314904240478053 9.263103191238795 -0.5487783156273904 -0.021485423567285576 0.25743736045070503
Ni 7.2698775473782415 5.9404937948038254 11.345252769649225 -0.9909952038527579 0.9915001685136343 -0.9721755000430935
Ni 0.7231173034180008 0.03858373059998946 0.24471816311815958 -0.5712093909373969 -0.20643875791565094 0.09062958666311488
Ni 4.721535983354595 0.40922406192540334 1.4975167347796496 -0.30766206093421206 -0.7399421496618417 0.10873349535267725
Ni 6.052190657298585 5.677178717006906 0.3651906926016944 -0.8687551893732135 -0.24650425847796903 -0.21281715063816894
Ni 7.97080420313841 8.8245388729297 11.370410703228076 0.2701370674055606 -0.5425721868166784 -0.714173268227854
Ni 0.22559665536344817 4.921025570244042 5.63983706417094 -0.49864668907832194 0.08714419921767573 -0.12246807132995037
Ni 8.088152609595744 8.879720295798723 2.394688973167495 -0.48638406966088493 0.17008284499443613 0.6432660996943308
P 8.377066387318836 1.7606317100630615 3.6427121253850117 0.5831429091501893 -0.4052583087231472 0.09582270082828014
P 1.8088546130929974 3.2834478923612953 1.5898234834430083 -0.04089365289056828 -0.3773757233802662 0.023963195683816794
P 4.597715792901842 0.8599053986537762 8.192412328671812 1.0098048803600934 1.1297625265633637 -0.1196930796879745
P 8.564775164066202 1.617567426532007 12.311025017025843 -1.0122929368892695 0.9934696335351794 0.36111889520177165
P 6.365152791149502 7.693337731368221 1.387308022058767 -0.5971055419778685 0.8773344464017923 0.19606255688764943
P 1.8282068696921139 3.4447106882694416 5.907073970960069 0.07187467465311492 -1.1565099698605374 0.2887325710195608
P 6.868176258325508 3.9286793485285725 6.082545848052589 0.597394533973197 0.14543882119351081 -0.5956050461729421
P 2.3911078592658512 8.4213593490925 10.259060271824133 -0.037553275663425645 -0.050708067877828805 -0.4337929258277303
