# total energy = -340862.53251212643 ev
CRYSTAL
PRIMVEC
9.31301130827447 0.00000000000000 0.00000000000000

0.00000000000000 9.31301130827447 0.00000000000000

0.00000000000000 0.00000000000000 13.63053342327041

PRIMCOORD
 96 1
Ni 8.556562036245207 7.984156417422602 12.488540588578722 0.275088497873565 1.039596766910545 -0.4869090889264195
Ni 6.235629216674787 7.968678192498938 11.227238479311874 -0.9872141395437709 3.848619530329192 -0.5519770250703462
Ni 5.4836314862830235 2.5423869173200053 12.200540367969905 0.27437604518757264 -1.7068273478402736 0.263559671298359
Ni 4.167293204929001 7.840503216792326 6.9364826824376165 -0.7035890649541043 -0.8989538244437808 -1.1317852134203477
Ni 5.914041620502075 2.9784221104162483 6.8952642253439675 0.301213734205707 0.6937111437187601 0.7928834777455634
Ni 7.240810474608508 1.5391893308115199 13.560226992121574 -0.9796445547266289 -2.3546252739666866 0.014513877345458875
Ni 6.59643390379428 5.493372896192864 6.6560893295289505 -2.69275002226613 1.4909408142481613 0.15658712450084644
Ni 2.2404497751719217 3.5294916201533457 1.142710222276511 -0.7423127067765474 -0.40818165301752923 -0.5021166499047933
Ni 3.098690339456079 5.870223901930571 1.5111897620792718 -0.22547006351548912 -0.4397185472835459 -0.23800599119897073
Ni 8.285264701557326 4.529411026653931 7.538175859467165 2.490026765528854 -0.7423787841277925 1.3659651460050088
Ni 7.271981123717715 2.336448296539629 3.341989036712852 0.6121022724970168 -1.1580793712301862 0.5807294146126902
Ni 5.181247319588408 8.502639700319808 8.843122465293735 0.3568225818192629 -0.14809734186228043 2.437273642196538
Ni 0.6932056208125813 5.501382085984892 9.772193137674721 2.216743696295144 3.7532632276143687 -0.6402388828322328
Ni 0.1434399326695353 7.008786108935722 7.619209302838581 -1.0309676304806372 0.17114136816593753 0.22050732019357508
Ni 4.993878843511874 1.8580854666936546 8.702890865046705 -0.46919804479990157 -1.2400124585605676 -0.11430533301349992
Ni 7.786152482343166 5.8515606271128675 3.5517357478489964 -0.6384267693241586 -0.9483645136664248 -0.46787726910594907
Ni 5.022870247956741 8.923885831334955 4.1490937180783245 0.7073685866011946 -1.1488447400057955 0.39933834369428645
Ni 0.12128055337749771 3.357284726613349 4.430782510870794 0.4265835525634846 0.12211891552064774 0.6838100825549643
Ni 5.224916029977735 2.107273712350984 0.9838395610413806 -0.8206493350049221 -1.5459853047178147 -1.2412381034375526
Ni 1.4821843881173271 2.148223023415576 6.299119740498246 -0.19109132892530317 -0.7789966924611422 0.46273763388653855
Ni 4.167963741748799 4.503157647556573 9.255650686350375 -0.5294909281526882 0.1980335645710912 -0.37621589874421013
Ni 7.2448523215500655 7.910481184347327 5.98558976177677 1.9349338205373452 1.3957781156013833 1.3091849037911711
Ni 0.9804552127036793 5.71596318133155 0.18444046529675037 -0.5075902714248548 -0.8193666116377566 -1.5993511219334648
Ni 0.0832601843938281 1.3415951682330707 9.217906913804873 -0.1711010018463053 -1.747169756213062 -1.5381429258552606
P 3.3954401342621168 2.088033030827344 13.425380175057976 -0.5305844183271831 0.2432577265162133 -0.5094754042627097
P 6.767811939320915 4.560358163489873 11.047669650271182 1.4613589868259864 0.619308817547785 1.5741316852450438
P 4.023192979752193 7.092137560841135 3.1102561682964516 1.1534318451558458 -0.04441683555247835 1.0158803971302117
P 0.18191757051226146 3.3053088100676393 13.505133079363807 0.43634011772961623 -0.170620462665461 0.17913364234279472
P 4.819632400478326 1.662894061052814 5.5289802639264 -0.8587533409654953 -0.480297754257489 -0.798729137893063
P 6.731211804573622 8.503235733048516 -0.019887935814972807 -0.2996407332916323 0.18758074466888341 0.10942563632369542
P 1.1474095678219267 4.258206822079909 7.017734981576606 0.3240438447263451 -0.990541661255107 -0.23623990043748344
P 1.9341913957406967 3.617508890763183 10.041382006584794 -0.18463246067383687 0.9968202951749671 0.483057062170181
Ni 0.5849027488015854 8.076988514919043 4.040853243243615 -1.7872437414158124 -0.9348420536999578 1.6383334167339332
Ni 7.892283560098927 2.8388480087730743 12.02838655859481 0.8291468309529721 0.008604968060191632 -2.388578233873364
Ni 5.690156826780724 3.6754171955618253 4.657580414553712 1.0216597228161501 -0.23252954146543178 0.32542529845490403
Ni 2.770276305937371 2.9392143324808537 8.22023380565061 -0.2321256211587938 -0.4880773982029078 -0.9242231405335309
Ni 4.384519195509306 4.38493828102168 0.3512169418975238 -0.34899280136219896 -0.8307350013756982 -0.23540352057911718
Ni 6.7681565207422 0.9876076054481884 10.363471574071216 0.7582412050813457 0.45653741861309766 -0.4572673548005867
Ni 8.941096276376431 3.7112722893982317 2.1393663495874145 0.21342393098423243 0.736121747474487 -1.3932131830876844
Ni 5.990808773357529 6.778112129913919 4.755325125556309 -2.7298407564708405 -1.2523131303047916 -2.2402412651964516
Ni 1.0526124249230233 1.9414741706446106 11.18949563806751 1.948376833416128 2.1663436465760366 1.5366588851105663
Ni 9.06182084297418 3.660497751321326 9.727906974630496 -2.34236728253494 -3.023979328997321 -0.505986931493477
Ni 1.7486668959186062 8.96894218042081 11.313969623049294 -0.750357688568211 -1.3038727475496383 -0.16336712353715735
Ni 2.1527212079150524 1.9223359322462172 3.535269412417269 0.29446278863511866 0.7769629498605651 -0.6966663696923421
Ni 1.7951667617693017 7.915910669985411 9.082406323341969 0.8522422793198549 0.2527386694234551 0.17592233449434863
Ni 6.73162157707461 4.138292487472749 0.15295410510155413 1.622305416736793 -0.7085538651585475 -0.3141211862959945
Ni 3.9711332461040083 8.893776865523762 12.916347736115364 -0.12355076287116785 1.7948750327088248 -2.519215214167352
Ni 5.9474287663211705 5.691106753942104 1.5951540101338875 -1.2260400555408755 -1.2173389282224518 0.8632609990278618
Ni 3.956763269535288 4.249731981718577 3.3580316301265127 -1.282100131759237 0.5129278815876844 -1.8526623760309384
Ni 3.2788691707425595 0.6661038263779514 9.628840747312214 -0.43692118704406685 -2.74068464116388 0.0797389078925401
Ni 5.895648423014569 6.239782819752978 9.639486450627643 0.5268450058894089 -1.0101046709886992 0.05949095627678141
Ni 8.857130165719537 8.185997313193104 1.2058664089912094 0.8374175556021964 -0.2468271890350265 0.020821050510409302
Ni 6.403868767364313 6.311334686232228 12.427203232987724 1.88674054866157 -2.6590426027113563 1.8493438531806667
Ni 2.9149725638428885 3.818465050452007 5.455634711454192 0.3408609162836839 -0.8868950935070339 1.2575530385474922
Ni 2.375572257372549 4.140080585658877 12.1672277262419 -0.6971147700836704 -0.5337941835137323 0.7230613147461031
Ni 6.311474381403019 3.4341636356054357 9.42351026617535 1.1914474051676707 0.3243816876817381 -0.4676394420635301
P 7.85339242455066 2.3833579348913116 8.160709693376482 -1.0382183985057796 -0.23177080892253632 -0.4874163675801411
P 1.9636018856979356 0.7049288395453781 8.10177136951854 -1.880458829417916 0.2662043080100577 -2.2481414938801345
P 7.739382539162275 4.16271120332705 5.439128330073505 -0.24178191330163523 -0.7179576749709505 -1.2159595313764222
P 1.6443984204400601 4.159721726672119 3.104394558930053 0.8772493428871537 0.7176825669326931 0.8357558516290573
P 7.565638998743575 -0.012187006699823656 4.27208227774403 -0.02290312985041862 0.1777503888420229 -0.11911072482194325
P 7.412682099738605 6.931441549374332 8.22632730900052 -0.8434318801170764 -0.8337051397476158 -0.6969335073107997
P 0.7435731802919151 6.591889154237872 11.755912990568865 1.6048782223992815 2.1278935701299546 -0.6449031210771216
P 3.807270810765939 6.629886240693077 9.149263500781496 -0.6286838310047818 -0.41193572074332285 -3.900309759614631
Ni 2.80572162727279 9.169488567608646 5.169611643162641 -0.296652854307902 0.6159882378149844 -0.0832911440201727
Ni 3.3646233795855798 0.44884896546234976 1.5852719737521184 -1.6917195456645573 1.010876001937085 -0.2715223777888614
Ni 7.634881238399076 8.999600613903782 8.257772691945618 0.5241211792003425 1.0844573748686615 0.44125760963589167
Ni 3.6403909597387805 7.486282828722792 10.90227305390943 -0.13168496194252804 1.3400720802883308 2.4276214638187548
Ni 0.5263704722400756 6.087608213704439 2.3558063220067336 0.22517387243130896 -1.346768775582216 2.4605228425324657
Ni 2.4939313190782335 5.906712280541231 4.6836149378834975 -0.28378576853724674 1.7750844803454588 -1.0138106590853766
Ni 9.109773538601102 5.919322097957982 5.399054442079205 1.0747280633960394 -0.058125443387822474 0.722033387702221
Ni 0.0917173300335269 9.416385812465 6.5605117562758934 0.8687451620708846 -1.0504625059804553 1.338096701729515
Ni 8.655689729438638 1.4327043586230868 1.5462886393911284 0.8167410010894515 0.2185144581332624 0.4397630273682362
Ni 4.4720521895270675 1.5734612127122924 3.288120716253491 0.7221061499216854 2.1294627143892875 0.6159265313391135
Ni 6.510847329156209 0.24677710700947364 1.8771966973590284 -0.8480850626183717 3.73290369012141 0.8974134765398544
Ni 5.747059326349669 0.40476210086178793 7.031078664290581 0.0931847489848008 0.4385420104769415 -1.8778280766632889
Ni 2.0332538978544243 7.632087334983252 2.508141111851114 1.8664311476802564 2.5136850283777417 -0.9529163947031652
Ni 7.7806484926139925 1.8217740352993308 5.856590584562489 -0.027761486383984447 0.16528259539231535 0.24984900658048584
Ni 8.24061812497246 7.3921375966209135 10.17749725579918 1.0939630003662513 -0.16240553095483642 -0.3164367218030486
Ni 4.691764754147455 4.574150733352657 11.703108216009795 -0.11483960825041511 1.6284207856059114 -1.3674401878886386
Ni 0.38451188890389665 0.9773446669007287 4.525132629223166 -1.4302509525672724 0.1880581985259342 -1.4977030726726592
Ni 6.833515234649705 7.567166332610891 2.110156089374976 0.9004147252600234 -1.8977289293522737 1.546515466189672
Ni 2.0256172285178393 7.8753059403421055 0.05821656547552166 -0.4674399244582143 -0.8124799118202524 0.1851932182733133
Ni 4.44235299621686 7.874179065964389 1.0642015362918607 1.865053036385807 -2.697850319607173 1.7836575667264507
Ni 1.4923169445053817 0.7727527075667795 13.285163475629162 -0.1891869128137387 1.6244641149510088 1.5186673336291523
Ni 3.7209298822055956 2.4805857737619816 10.648118179279905 -0.30701234316535514 2.2476717533325674 1.369564690430809
Ni 9.013244175584388 4.84528043383559 11.792169475196012 -0.8810813150387342 -0.5258872699618298 1.1085730369699425
Ni 2.250740652753539 6.0813405570416075 7.383836909572501 1.9777504014822391 -1.3151619473102125 0.5960537036745864
P 5.744079162706124 3.4093258342387616 2.3775605853034767 0.10475497032090346 2.663494210724806 0.8582836004179284
P 4.382069873514767 6.4663218217193625 12.764217832521478 -1.9362437975980202 0.32010465757293904 1.4953325155579538
P 4.611365526851431 5.291382992240185 5.733819949363219 -1.196520963035836 0.4455639503207294 -0.17366207770526218
P 8.210071447626119 5.770760940327242 1.099358154274311 -1.6391456282225834 -0.383557683821262 0.13699840373564146
P 8.780865915478932 0.6932261094376306 11.255290200907885 -1.5481843692516628 -1.9697010488152014 0.7612900192099985
P 0.9820849896962432 0.2588607392829118 2.063635734899232 2.2029872659409997 0.09873318960685576 0.8874170274487749
P 4.839254915468796 0.5508906999184844 11.20548421601513 0.3769167814659767 -0.11707106868409517 -0.6089881523480674
P 1.5922362436666289 7.593019252218649 6.080621592562602 -0.3239682542934033 1.0530634339384122 -1.1865481680938401
