# total energy = -381180.6124193879 ev
CRYSTAL
PRIMVEC
9.10439680947311 0.00000000000000 0.00000000000000
0.00000000000000 9.10439680947311 0.00000000000000
0.00000000000000 0.00000000000000 13.32520501720816
PRIMCOORD
 96 1
Ni 3.3318358391520353 8.379067440665406 7.996695533773622 -0.643520381796982 1.4540994770500957 0.07898428911470268
Ni 8.669798134135554 9.132620130269805 5.423064730838053 0.36580010272752483 -1.3018503178029708 2.000098944380768
Ni 1.1851921277223232 0.29604219838889945 7.377392633216084 0.28481755223587074 0.2799681945633694 -0.05304520065143767
Ni 4.7270481853621105 6.10941422810911 2.826275984962246 0.47326990087643006 1.6604701007319724 -0.44024305232844824
Ni 0.8201203950619597 4.803297506058961 8.5604843766656 0.3615356710242161 -0.5329480334633532 0.04352466275551213
Ni 7.064483629869217 5.275988668000419 3.562373725594703 -0.6189753454677662 -0.23991400685496098 0.5224376208503324
Ni 5.559708976164709 4.408512664977553 1.746480903335096 1.345579126149489 -2.3139090271942475 0.22784704838809788
Ni 3.307062776272498 5.396667443622716 0.9645051982938636 -0.23203177589340687 1.0177308200753892 0.5720851086741309
Ni 4.305924325202974 8.88995154592905 5.666915976284303 1.4582124707772048 -0.8076534369658864 2.0676834762989618
Ni 3.4495010595324636 3.6475125790352423 2.3509654881474153 -0.229186850245444 -0.9361443174511491 1.5446822696356752
Ni 6.902061196289302 7.665992897904972 6.593431259297959 0.7107824973787501 -0.42894356815522905 -0.6049170676024873
Ni 3.2637986840991933 4.1463242545384045 9.646781818273848 0.02593060382283276 0.9379885697487393 0.31734946342530507
Ni 7.80087453206901 6.904000432744039 12.523866708789873 0.7054405163405464 1.1403829823916876 -0.27218212286004734
Ni 3.914708407550005 7.231667662819217 11.926751222505558 -0.03466541259266933 0.12257322944924696 0.6371270766761287
Ni 5.5524618765498195 3.347577340702466 10.58690180097912 0.4329192649735254 0.008051923770199036 -0.08297669810354741
Ni 2.214608031310546 6.188713521633834 10.578600412249404 -0.5312696173196657 -0.4956734653826109 -0.6886165028046721
Ni -0.0026721403730776464 4.208388925486515 4.1705756354984285 0.892073809494496 0.1799078015046579 1.2802340250847757
Ni 1.9531934945739924 1.1000569160403844 2.9109978570430344 0.4130261255940242 0.2074116633518815 0.2715827987131516
Ni 3.6910042811210757 3.8568226545959075 7.106304675197095 -0.8197497060087882 2.2300707524213528 -0.10974985243233357
Ni 7.059230393088073 2.682583115864427 0.5083767544672351 -0.9704556891385093 -2.8132496570158003 0.23047882958399019
Ni 0.9780488985289242 3.297348385205807 10.798865808119862 1.0599820154351163 0.926880632761036 -0.38277195469517306
Ni 7.986549594312777 2.4863287448863627 11.408386945076598 -0.44116170748797573 -1.4798069091185289 0.6937949616818181
Ni 7.969342284925667 3.308291869800149 2.4017215882014886 -0.7062247028047385 0.2112822020508813 0.22542815453396015
Ni 4.428378458142989 0.5097788315284069 10.043312882604168 0.1644973804868586 -0.8931228195843006 0.9949361907783769
P 5.9522268225173365 1.9980326473419903 2.6422551915627324 0.7105937784067117 0.263631662186875 0.18952835531355747
Ni 2.659266756425068 5.98299057829461 7.812247744178205 0.16318226121986087 0.07496231243950316 1.2643176109648355
P 6.623075174305593 7.1998204838583115 1.9326740057397762 -1.369584487925151 2.2760536469093706 0.8443104260672878
Ni 6.490296655733313 3.0549438283635846 8.133251466454215 1.6685184249577458 -0.2642191592592288 -0.2093135083602847
P 8.475246285303198 6.093599891386671 5.257046060640197 -0.02985847812232922 -0.00794753698185083 0.7978901869315356
P 4.443245937629312 5.099081139587228 11.438661794761762 -0.5488348798969386 -0.05287807894595409 0.11774906858772624
P 2.0667344233394145 7.27875560152299 2.155645228250366 -0.3419981152119207 -0.6099867688159107 -1.3295562683586715
Ni 1.2511079583904057 6.5456513864601 -0.02766006701004156 0.004714631866849945 -0.10413276335587227 -0.05343086612563056
Ni 5.649997276266279 0.2738402170812771 7.755535547933101 -1.2589576322045029 0.8307098045647178 -0.22895930761567024
Ni 0.5724489448438413 5.410196576823376 2.316120231418693 0.8002052082179574 0.7517160023683183 -0.9938429577141981
Ni 4.4439924981424035 2.237869764370898 8.653427518786897 -0.17437298772935775 -0.013160705751674108 0.36217021928442145
Ni 9.076828388510963 2.3603876280864204 8.695668276793477 0.14317187953620503 -0.15924564516961606 -0.09605769965722166
Ni 6.389001140261892 5.92305633612776 10.820372213534798 -0.22413386120256884 0.7022577477371906 0.48303160824888425
Ni 4.362225913165878 7.035731945718692 9.513929554089907 -0.45710254708794823 -0.20599369995843236 1.1678423641542208
Ni 4.880402640026914 3.486273717000472 13.101314877752477 -1.7689405722312503 0.7094480948380427 -0.5880794272198582
Ni 1.770368108435075 8.363753845750528 11.50089034484689 0.11272667567247038 0.35647136912743127 0.6617579878509313
Ni 5.16067238191728 2.6200905382807647 6.108100463693999 1.4968630932698672 -1.1927501831394942 -0.7867778790684579
Ni 4.868475880610451 4.214998717346325 4.222610903260909 0.3304605468859664 0.04223602585107565 0.8817942819453588
Ni 5.714174167202647 1.4838436461484426 12.15838345740766 -0.4647783184656511 0.9711848539950501 0.3063132602158015
Ni 4.13877670983898 1.3704028657445328 4.008114963453208 0.2800396712312532 1.8281867594870773 -0.5857158120836881
Ni 4.071886708745278 7.71230696290615 1.1293694310153786 -0.3745310548426195 1.0955969364252487 0.31056200818982643
Ni 7.222217299251058 7.523490883869499 4.029981902969589 1.2524044044670173 0.28295838753994496 0.9287932764027165
Ni 8.819392473045397 6.647110781068541 9.908528665482692 0.25484440291254823 -0.8226841060467638 1.2967132536867216
Ni 7.035030907188106 4.42968949123915 12.639582677879412 0.10774079242210477 1.315810636637805 -1.7972972689970725
Ni 6.487273996094943 0.7066586745460975 5.368231682030779 -0.3355726713015511 0.06198621189480937 -0.28845566320909033
Ni 0.09269459209681583 1.8106459585560137 4.280655072714126 0.7446444402335176 1.0030971293226143 -0.8827625593958991
Ni 1.929458332895582 0.983821085910632 9.81658518609722 0.019522386303643797 0.38731252287800394 -0.5980139127247508
Ni 1.5107744509987449 4.985704089958825 5.71068991466167 -1.2657615425002136 0.5885106012200059 1.8462130208611687
Ni 9.026599433014303 7.932687984612173 1.5547049849959313 -0.5986322630350399 0.33885982669325515 -0.448608393574008
Ni 2.043336124331545 7.288205965091149 6.004683623837819 -0.14359534022686885 1.920919508536124 -0.5704151771708756
Ni 0.40076369826368996 3.8769433708633745 0.3004824125624939 -0.721439462871964 0.07911335849339923 -0.1570558366071489
Ni 7.983372159933888 0.24636770063915855 7.981824412528698 -0.21893200528665518 0.757997721611972 -0.29872464923526615
P 2.2410471987497877 0.509004957825812 5.10587210893741 -1.5410523861925718 -0.1946695331948647 -0.33961033170603444
Ni 5.445649096798723 8.880929088996442 2.9574621445864815 -0.0626950650363759 -1.009544684720171 0.46908723025365023
P 3.5423567994473486 5.659292865093919 5.750558977379709 0.9680823038103261 -0.5562656251433711 0.07040117543138197
Ni 7.746839938834885 0.36819909285849706 3.0747640995465146 0.3413021175861606 1.5723337128043566 -0.7365603776738023
P 8.04749442449125 2.017479638268375 6.553682374613735 -0.6874381662258549 -1.0766921291009457 -0.6316976781304412
P 6.980413632577909 1.480502332632533 9.764216697422798 -0.5018448843006453 -0.32195996561412293 -0.39812426878152724
P 1.5473832293297336 7.858487153128074 9.225052515747386 0.07438330000758157 0.23419741608615796 0.2604933736682094
Ni 4.8283345964370294 6.791033080958187 7.174729677540885 0.245706445167022 -0.07642424169701031 1.350539555478558
Ni 2.488759618752161 2.701848018860789 0.5857359010975705 -0.4314671059080311 -1.139511892640644 -0.4003804118055556
Ni 0.9217837281520253 7.995644886417392 3.9163845269458606 -1.074900841528478 -0.28853845273088374 -0.3538033353769649
Ni 8.531912049126147 4.071067313060177 6.691824293164823 -1.146332257996587 1.8546737500340122 0.18221356681969908
Ni 2.433541453972891 4.573584477939294 12.43444150547661 0.2502238734214013 -0.17861170840105367 -1.7366446883120221
Ni 4.448380817255941 1.2153276801410182 1.1612912660275925 -0.9646439675527386 0.9392869768451888 0.5099991379766635
Ni 5.493419865240079 6.2099631830674396 0.1818330069202956 0.3854695561319942 -0.15690105619683947 -1.3830874075075923
Ni 1.031628271937994 1.5259514799661058 12.349426471828483 0.0009865322829853977 -0.6890829009181294 -0.2312308772586663
Ni 3.2211810040774673 2.4356627783576505 11.411545260222836 0.5327042928836632 -0.9837390365109767 0.47787886040335126
Ni 7.531357082446463 5.9078610983673965 8.129480425423452 -0.08137875748880823 -0.837994511151589 -0.15143849042037147
Ni 2.620190686642277 5.8837708652254435 3.775976524105644 -0.746340854099334 -1.708895543223212 -0.32800180093282866
Ni 6.257169478925728 4.9457448937154265 6.38963571669802 -0.39454606451196567 -0.22147199809968957 -0.8708259558593132
Ni 6.523673373306405 7.8562292627957975 9.272437257777097 0.6894042888132901 -0.13690404424962227 0.0740058620635048
Ni 2.183480099673229 0.01177107423629332 0.8477959395460531 -0.8176164617158693 -0.019246249824121694 -0.9801580040279377
Ni 8.736706344022258 8.895614480552743 10.30887083018838 -0.5840163128940781 1.6661681795580143 0.7990312425145142
Ni 3.2083984313899006 1.5096364014361052 6.733305744503209 0.13561129358012775 -0.03351278704546486 -0.005557953703751718
Ni 3.2890178624072854 8.050699172059643 3.894717884152504 0.6414555288481534 0.6433362908106339 -1.8467244132799487
Ni 2.704415458674104 3.3497077694837274 4.658731525336684 -0.22409735153767854 -0.9558878186266635 -0.20353623955687525
Ni 7.0806348292621974 3.0367168265683495 4.622007121170131 -0.9591873153135415 -0.5132482410415806 0.6043804783727269
Ni 0.13062897055836717 7.287550448543069 7.611050596339685 0.7063897676276931 -0.3461653592157329 -0.6378932654181918
Ni 1.085553612414106 2.5895179748300157 6.3535905005104505 1.039550744163958 -0.5477087367122954 0.36096000102640413
Ni 8.085304983160386 4.290756400632114 9.903971915033884 -1.4520027424220672 0.23073439723822198 -0.36670847347440716
Ni 7.512947992721206 5.607070046763515 1.229817327172545 2.8831219565269053 -1.7361101559647907 -0.3179678137355943
Ni 6.420475038966251 9.120875458783363 0.7351636295514427 1.6547195714014402 -0.6280667662460733 -0.7360124755901324
Ni 0.027068281237468995 1.474802980422834 1.2403447408467858 0.037532963948451493 -0.8106680554224941 0.009502797284112666
P -0.17034143765658655 5.050618437011786 11.757160897560315 0.8013699179500199 0.8381138103382726 0.15501000982171367
Ni 5.53469009457964 5.169121261870315 8.83720886655843 -1.2266972295089003 -1.1990987510653413 -0.632489320793801
P 8.343095970089495 0.2708239305204573 12.767838132269938 -0.21116033176103638 -0.5043295983957121 -0.19166339937868926
Ni 5.258599270683288 6.7944017076636 4.997884862037669 -0.13380097984426634 -0.26027431567886783 -1.4354391816364311
P 2.3224222946767656 2.665048048203277 8.373664891781644 -2.1531063219501565 -0.007739791846418928 0.29671816032819864
P 3.645891996458044 0.446867451705693 12.554274482663953 0.00915749812955197 -0.23381894970081668 -1.094897596365379
P 0.9910408723360173 3.0579573836054537 2.5104954549589262 1.6854576239152457 0.5384795048045435 -0.17533895118705287
Ni 5.915335807894814 8.536600813324222 11.544064303494835 1.0524641097915164 -2.4838661452440967 -0.05412274998633259
