# total energy = -340894.9229446678 ev
CRYSTAL
PRIMVEC
9.06524748929069 0.00000000000000 0.00000000000000

0.00000000000000 9.06524748929069 0.00000000000000

0.00000000000000 0.00000000000000 13.26790602984149

PRIMCOORD
 96 1
Ni 6.576211517144757 2.2066625323474964 11.395207311396907 -1.2576080601551436 -1.2562996257563654 0.09401958618127033
Ni 4.813727978963567 0.4506171328996624 6.005093676096698 -1.1061824252505787 -0.2649987177377307 0.030405608875050862
Ni 2.990806436086131 1.856898090290297 4.978145278345047 -0.10102995606083245 -1.1070637994142678 -0.5023938148255799
Ni 3.5015062159823125 4.404015055571992 5.070117652793263 0.37810103158206493 -0.21749064485443834 -0.15333699299466494
Ni 5.037975004937933 4.509344165601346 2.438707484171526 0.5688853707899105 0.36280193933114935 0.17198366156157477
Ni 7.098523879014223 6.320199864133395 2.794831197309334 1.6279857549510222 -0.6915097651920672 -2.070693980990511
Ni 5.396768433447429 4.645649226140238 11.365194996690462 0.387272670779004 0.22025278098060777 -0.23981553360388377
Ni 5.349901104171952 7.888913738240441 12.443265950866897 0.8727571114437549 0.19384652307293712 -0.03971248809827354
Ni 1.8458112926686512 6.332301969468551 0.5658735954028228 -0.017929587895227188 1.1165311154747544 -0.6361487719232592
Ni 2.6834764173052386 1.6023368768696657 0.4425245865081308 -0.2318417713697878 -0.17899428855145302 -0.5291564276314048
Ni 0.3822923629288174 0.09258427865055546 4.923162739559434 0.8372324361745839 -0.1542160531655086 0.1338212915592405
Ni 8.714304517840471 2.222535780618552 1.386655603203308 -0.7322807764618421 1.1444993185529064 -0.09138626232348132
Ni 6.914580943167279 0.7406343421156988 4.8355416838834095 0.3257425725850068 0.025040745018711712 -0.5594445370919848
Ni 0.7352930983228338 7.4920915967114805 2.657561594442607 0.47317631272135935 0.4595628357029827 -0.12550428705311287
Ni 7.716284231201194 3.7132975919712803 3.7501070292097856 -0.19639320075419078 0.09657243451011109 -0.6586932328826786
Ni 7.821024100146815 3.7799906174025537 12.593604014446104 0.165471828584986 0.6866951174122432 -0.07426168682805276
Ni 7.880256426933268 8.684643028210035 7.079130595161414 0.6578298564411187 -0.2565940386138032 -0.2752795308384485
Ni 6.583345866881662 0.7169377853021405 0.23257798837362323 1.2414422490285588 -0.04493208462600004 -0.26946883769394236
Ni 1.7459575920943038 6.637483524605675 9.341958681085712 0.6169878827240922 -0.41752992700164865 0.23447689499978971
Ni 0.0793109433458837 4.698680923676318 1.344569285428776 -0.35133173390802075 0.376455525558842 0.6558333948363801
Ni 6.488795336060922 1.9121689039445682 7.1025488488785 -0.5910549649084142 0.16553739171559878 0.10577724093783072
Ni 3.3528180274375603 4.504856868117525 0.6678304333837293 0.6157200717552622 -0.4709880468207889 -1.419477258990536
Ni 6.035034375348352 5.408770821060723 4.512322099386065 -1.1524751376695312 0.4770537933988945 1.8049635272930786
Ni 5.235289180761923 2.873357090226735 9.351047498171129 0.45087456390036545 -0.679582674737178 -0.36898801353720323
P 0.2638857269395394 5.543607311514001 12.349475087781801 0.19579413371761117 -0.032920661987420725 0.7056071238253977
P 3.988998962426807 6.0430208583448115 12.40254667240663 -0.043642933500931284 -0.008272267311121236 1.8543726738538258
P 2.3833804659831137 8.520172243868647 1.4953995919440888 0.2308755508017766 -0.5266092357295189 -0.5879601280331745
P 6.321532455507378 7.885786227872928 5.769840533202922 0.8638618658366541 -1.3406135546140976 0.20684679198734698
P 4.541462337288583 1.1791983220163913 12.462928472568736 0.9068895343510898 -0.1454478200545753 -0.1582773677190758
P 3.9307910086013074 6.291372377267628 8.295956946260329 0.751631413074312 -0.9067306401757222 -0.37871732500982513
P 4.648903649971939 0.8903478101461487 3.7455163879051243 0.8111848471579126 1.5522199727736172 -0.10899009144817359
P 0.2831539103776488 5.5915443399876406 3.458823404926093 -0.7546848551886551 -1.0599956422818713 0.6140917921232198
Ni 1.4809350831255295 1.0491301517176406 2.698599063088092 0.501634310951736 0.053981082202145744 0.23893853031556914
Ni 1.784820307878437 6.471199690775873 4.844563418137752 0.8991841952870321 0.014550129900033005 -0.47908136535188456
Ni 6.08173853016987 5.742263143959416 9.135152284665136 -0.5765282320471491 -0.22855872974314184 0.4217701903352413
Ni 8.813822804259463 2.0847712152414886 10.053131875539444 0.2888001910327026 1.1197838180840973 0.9540456232116021
Ni 2.3374649876890543 5.23347613127351 7.152860972181962 -0.24622555089528564 -0.05693836505825678 -0.19535678906987647
Ni 0.5903488569716545 8.869918555430962 9.076840080494051 -0.06838645899419835 -0.3372927393164514 0.7331192132027374
Ni 1.4317017242676735 1.0835418310077198 11.495074609842419 -0.09008708389608357 0.4815365117605964 0.2234951991773054
Ni 4.216201259067286 6.9725441353118445 1.3942976067969686 -0.5614204298714331 -0.058702913157847286 0.5299480702947647
Ni 5.603247574435347 7.965496948631007 7.88375017329744 0.17124858316776312 0.2297023564292818 0.9274987259610091
Ni 5.437380741987881 2.8050867117405422 4.656279135290803 -0.34692229198641544 0.4142312016457188 0.351286225382066
Ni 0.9960259322020231 7.267146546684076 6.961550709738852 -1.3582662346988543 0.66061976048143 0.3551778471269883
Ni 5.089637850110262 4.839808695854389 6.995118414492075 -0.4882946564200365 -0.5666490252602241 0.19953945969265635
Ni 8.1560665803581 7.013945120379756 9.16879976359585 0.19993360980728148 0.5596844210169329 0.1346586998588713
Ni 4.637037241070276 0.4200826599405544 10.209481104697486 0.04473102435878748 -0.39755322676940563 0.5898288058107971
Ni 8.327336300281036 7.045301811281859 4.806325297902378 -0.5790227163342286 0.24162996110480323 0.32334836132121736
Ni 7.366356614690038 6.1168482335129895 6.93841166564298 -0.20709490344241108 0.013491606728531603 -0.15489302462787516
Ni 2.3833623354882296 5.036660544058834 2.725970671214663 -0.48671677040995526 0.6873204097010679 0.4364036239777
Ni 2.198676049351037 5.241535136249506 11.39567145206594 0.7232618607926835 0.5249287627033025 -0.027998799205771134
Ni 1.0859531868273091 3.2056528004630747 3.789764767194588 -0.5159005910627631 0.3186542982796577 -0.13045983128617533
Ni 3.659286847711456 2.5123608065888168 2.4248693839512137 0.32832987369620875 0.40591239736737833 1.3572905010491465
Ni 1.058793705490882 3.2529552616157704 8.236331187734889 -0.061445508899990946 0.3897632984113416 -0.5940736971300801
Ni 3.3179530857753776 2.921702054835268 7.299019956690378 1.1137224423813659 -0.20088877463169919 0.08391155121299097
Ni 4.124977674057784 7.042799802987848 5.96680297742616 -0.044115502261975637 -0.5747737112498875 -0.5088781369983431
Ni 0.7570487856590461 7.646092020257283 11.670728283428337 1.346452787003694 -0.9942913581055264 -0.03303507607809794
P 0.2879675567693854 5.506711754424796 8.128264372978032 -0.3184406396069548 -0.5725301666313495 -1.0910262863354308
P 8.625691724094285 1.3997829880241623 8.028901102290298 -1.1612569976272193 1.3231087129611148 -0.4935114247342855
P 1.966968324731852 3.2096959008222354 10.322351594073893 -0.6835342031857583 0.047801949974627354 0.6180039826934325
P 3.95538502491163 6.1074928981527785 3.80907011814721 0.42346377598758045 0.6217863325540001 -0.569565941796703
P 7.012784768707172 3.879681143522944 10.136999012249708 0.7555919403839567 0.7135865424864485 0.5657830777155031
P 6.34243691610878 7.801588209631028 10.179694514652349 -0.8639479977925572 0.03960475887581566 -0.08881618760345994
P 2.386308540906901 8.557403215113208 5.882750909668077 -0.1132609509093856 0.4078250410090589 -0.5715811724545188
P 6.996004995691909 3.9299842015789634 1.402682960680879 -0.5913344438220461 -0.24314511219774895 0.7418308820441224
Ni 5.222081115238834 2.9491153631000735 0.35512834896866924 0.5291003775824887 0.16332572877626064 0.10772742268566607
Ni 1.4377754400538572 1.0786194016466786 7.136222617026795 0.9324316444862522 -0.129201533399042 -1.6046015716991269
Ni 6.96211910075347 0.8276199239460348 9.351405575445089 -0.9182682085016767 -1.1326053953287978 -0.5609332058223694
Ni 2.5622740590048276 1.4578821588803577 9.232193945482956 0.7043879067063159 -0.21826763222977894 0.0002576245367608467
Ni 6.267159101349872 1.8680936708812474 2.5225211359218833 1.098804901839585 0.8917225968026644 -0.12569763401084158
Ni 4.16582567903173 6.987266097157757 10.496744291740622 -0.30655751501612366 -0.004683778628914515 -1.2845303384672846
Ni 8.394672958280697 7.04258223704924 0.46586669214670434 -0.7391389370342561 -0.10766982997485328 0.37135599954874754
Ni 7.703094296172989 3.8178289602257336 8.108588253405028 0.1809583542563593 0.2890256767799474 -0.47814162714643454
Ni 3.0045765469506276 8.605956680412909 12.544102324263964 0.27225694196204075 -1.1815139481040426 -0.12296737956387209
Ni 0.18405987753894637 4.595355233331661 10.145688958447675 -1.039632762354803 0.4330948713194412 0.7659318888573841
Ni 8.569858865098606 2.3559852882131933 5.971553167085802 0.5917440205556389 0.0551542765746405 -0.6081193765898688
Ni 3.7271764858050824 3.1305018991683546 11.636298473643373 -0.849913116966046 -1.2385343313531443 0.1609916813264453
Ni 1.2461633048709264 3.410318891962579 12.66745405273289 -0.37920120662477924 -0.405369894600347 -0.1428749171210765
Ni 3.1447615333947234 8.213694358347308 7.993900181916485 -0.3636105512753738 1.577582619908122 0.32793932312600943
Ni 5.505451685030348 7.896954612721553 3.7293430799437357 0.03888896375571367 -0.22992295708052016 -0.45535625382080286
Ni 3.1086093265957677 8.454376677934139 3.7615972303426033 -0.6481018305200774 -0.7758087816514638 -0.1606983184557426
Ni 3.6082313741177456 4.439088497925342 9.40949296147961 -0.7164168128463919 1.0057101414654293 -0.09045603719972808
Ni 7.477260851896262 6.257087611441737 11.488002810312862 -0.4654316357789339 -0.6454692779932367 -0.50719277887612
Ni 0.3372970072501271 0.11076735196984973 0.7139671037153758 0.9347343244774998 -0.5016903610006521 -1.7874502009996636
Ni 4.653055533300405 0.47086617611100323 1.5266447803026546 -1.1570388457808136 -1.6829605685250046 -0.07074081815898785
Ni 6.035007179606025 5.637332904817512 0.2152887484521166 0.2774775669310318 -0.08209558105017474 0.8660917836084373
Ni 7.875297736582459 8.68962891430317 11.393575566857335 -0.7645365511717542 0.6594519654255739 -0.015402964818631537
Ni 0.03394028642309188 4.742738026244756 5.706977574815921 -0.11858621977704092 0.650584487732615 0.21659075874798828
Ni 7.825892138023204 8.886226935579238 2.4641554467908913 -0.563653690077326 -0.37876720441115413 0.38283957470831487
P 8.58998371441999 1.5549528284899912 3.542278979402489 -0.9993237783231113 0.5055272182482391 0.8380464474354469
P 1.7559293642805756 3.1734621067963014 1.6382280045422901 -0.12470441685963685 -0.11761074323764904 -0.6039343919742437
P 4.570625238309707 1.2140541984311317 8.090516682629271 0.07048087962938185 -0.5005577900581056 -0.09644490779331132
P 8.4572775571156 1.4613360181557846 12.317074986899117 0.40130138095792817 0.9644218242396037 1.1375632535547053
P 6.336843658437027 7.7059407838697975 1.299447922810641 -0.30399489649527 0.48647020161678795 -0.6354193499564025
P 1.7254520023803526 3.340063224286575 5.858708966926975 -0.2908915263440926 -0.0651448121284491 1.3149449462034
P 6.813231476764992 3.989751377964499 5.962915799323002 1.056805674589664 -0.6080360728474431 0.11635321668146413
P 2.4261774991571037 8.527007440439963 10.288200087385402 -0.21778477905608945 0.16938016250045668 0.5322348094464124
