# total energy = -381170.542011535 ev
CRYSTAL
PRIMVEC
9.24181847525680 0.00000000000000 0.00000000000000

0.00000000000000 9.24181847525680 0.00000000000000

0.00000000000000 0.00000000000000 13.52633551585975

PRIMCOORD
 96 1
Ni 0.4892701906336007 6.661244025760077 3.7436564424567518 -0.46870285033103787 -0.7434411639540358 -3.717077778832747
Ni 3.019828897522775 6.197443362814279 11.297235938778451 0.6270156992737396 -0.22053303122518794 0.49715544924477606
Ni 6.813770998785035 4.99548017021207 0.12119628402520502 0.7782032500255693 0.6070233153122127 1.5181245737518048
Ni 3.46314044878678 8.772445050834069 3.635527165651614 0.1738374269408619 0.1929180977213968 -0.1719749198108264
Ni 4.399447567733971 2.569539773268353 6.33627673332281 -1.3201249477424426 1.284065483015724 1.2737988109823932
Ni 7.348447168040115 7.40761329027144 3.1338221081854223 0.46907720295132116 -0.5062800372538636 0.894471363192395
Ni 8.226179641141925 6.605266330921725 12.409871410193672 0.891076478578233 -0.21636038790473708 0.32722069979243
Ni 2.0659992906420332 3.9986391398910626 10.524733584008807 -0.3404199720915234 0.3647202393997847 1.045625232492812
Ni 8.32118553563396 2.2825350988082196 4.577420039718551 -2.0772711199873966 0.4467651697176822 0.3171622871151634
Ni 0.2521750329647894 5.060311527202501 8.052011101664439 0.2100683842484382 -0.21626859952187916 -0.3161842394726103
Ni 7.397511982617763 4.225840006641278 9.123053768783803 0.005913537270957558 -0.21965885615035072 -0.019695678656714465
Ni 0.3263923808546476 4.870789554600539 0.3983815262968376 -2.3559841019874264 0.030116102659090066 -0.07085883179409086
Ni 6.02633109272478 5.246829908782099 11.192353312823025 0.24578872046818315 0.1635537856266667 0.44603677619208987
Ni 4.31500507182213 2.1860320297142666 13.354442563270705 -2.3928385518116144 0.8201153168783231 1.369014988574926
Ni 8.040335912315044 8.51034707731324 9.444371467083434 2.522823243233584 -2.7215777451311 -1.4692784987833793
Ni 0.4427431794243882 3.1194187340058663 9.060616042792734 -0.7019857250227266 -0.7801601166416241 0.13265889582002316
Ni 6.926096061202953 8.649510380743306 7.47366549148973 -0.4642093333360586 -0.44201402818594193 -1.1719926388771686
Ni 6.330100425998975 2.0056409738202934 0.820905455140518 0.3174947307539177 -0.5470201952857031 1.6812302160974595
Ni 4.306003540573565 1.6870292799863504 10.635487537276566 0.6248809123189237 -0.07653222802978432 0.207860577963842
Ni 3.7839147281568257 6.435983940901236 4.605230520040092 -0.8389514757482197 1.2444805216342503 -0.9110688625397599
Ni 1.015768274671172 8.052867818242202 10.930929067873057 -0.18054286398549552 0.6338692318604632 0.22728860478146662
Ni 4.199657934744786 3.700655185016869 11.574985856162288 -1.410355756305242 2.229228973246348 -1.0940992688337996
Ni 4.676572738185157 0.622103772552227 1.941380761215038 1.3965065091269755 -0.23491552519910514 -0.8452061984086798
Ni 4.866492108983924 6.848538720096225 6.879669785815721 -0.5574077091676143 0.69514633350339 0.23176386694400086
P 1.4224082900067336 8.432152050727916 2.824542802703431 -0.29564266787583277 0.3205211762850673 -0.2736787620102319
Ni 5.359044069377654 4.766190652473996 7.642230716392263 0.06949871822177064 -0.9393656526019242 -0.6852365305888457
P 6.9260128848361795 2.3725596531123947 10.464365101186683 -0.9247851836845881 2.069501246233991 0.6043334271848754
Ni 7.139110736509075 0.17346154035991415 4.629360908222845 -0.08512768300827919 -0.1151327140108017 0.35006880803519713
P 4.251809516711571 7.567080869012693 12.501891273118549 -0.7075616764486071 0.28003478613524674 -0.6154033118457917
P 0.7348437926221585 5.5845074742441625 11.489904750589998 0.38988979668687695 0.28010600569281435 0.051009401168331504
P 4.942016250013975 3.8668600494667493 1.2405838280587025 0.6060437250077627 -0.39179035614369945 0.5496224087952405
Ni 6.139127487887746 3.181477545437191 12.460013820811957 1.6590523944488396 -0.9304616652440749 -1.801209973787917
Ni 3.258692939258296 2.1810876568005275 8.595215621059332 -0.9981665247902165 -1.0463960492205655 -0.42321977829757434
Ni 6.334730577082682 1.6201092720080597 6.414310028083851 2.3736133850334156 -1.3037372504130385 0.23269152096459278
Ni 5.567761299067161 2.571933404267715 8.573059285314661 0.011226207733122601 -0.5193127020681056 0.7285801876818033
Ni 0.44922169421416613 0.4733502340332135 13.019936789928261 -0.16092894640930994 -1.5529285688048673 -0.6569158292672816
Ni 6.275314925751038 3.264238030376508 3.0508111699639326 -0.15804108333855363 0.3673077976213029 -0.7151117208817231
Ni 7.98827674853356 0.6459264081779198 11.01287165187244 1.0908306253848568 1.2076492117385136 3.556725530862513
Ni 4.340660360062391 5.58705821615854 13.50730409012646 -0.18534362780824856 -1.6387023700375776 -0.5206815573911743
Ni 8.047100923479263 4.6664344632573584 4.107650086183996 -0.04341976174653167 0.9202847247110731 0.014019711317859727
Ni 7.41467403962863 9.126388216909556 0.0032401815767419974 0.6851709674582329 0.9473556127859362 0.15658815294211095
Ni 8.525947266992477 3.8542264835357565 6.421884622551329 -0.5543270133597614 -0.9082936137874679 -0.04697842563206747
Ni 8.251918105748961 4.053877489246987 11.667600892200522 0.28441568881176177 0.2808156301653293 -0.7267493051206516
Ni 8.81741573980277 7.463590985109792 1.2533920643599195 0.7756344608571287 0.941942669300481 -0.5635562452675132
Ni 1.92141103973465 7.79070515199166 5.175121714623232 0.7786678483668138 0.4998119130310167 1.4078427600754013
Ni 1.6782680360195752 6.378647698738923 9.377646461476134 0.2871102049247894 -0.9357434824683044 1.1651128810381999
Ni 3.0412884001502563 0.45363466256241 12.523939479586414 -3.250895123820401 -0.13884548424670926 -1.1091597627113479
Ni 7.404156850141088 6.212202547007253 7.074219307698196 0.16575233593988228 -0.8508376856628443 0.24968754130195708
Ni 2.4157189456491466 0.551287413881539 1.3490504312401985 1.5135976324157288 -1.0179766175376082 -0.664680817924681
Ni 8.868310434449429 7.723313811268321 5.328767871872215 -1.7198582128823026 1.4954075917702634 2.301368471525075
Ni 9.078802093296764 0.7857505016329057 6.4225343223940135 -1.0755549301727088 -0.09410520391654115 1.1034562845686673
Ni 2.439747673828066 8.356905164253778 8.40412900858018 -0.17756012720808775 -0.40860897036293503 0.8676706980597831
Ni 6.030878067441714 6.580193277248876 9.298462560308064 0.1818456419573191 1.5928117781530504 -0.9309473466312418
Ni 3.716412485611122 7.444663740759627 1.1589268162519095 -0.3273672526726233 1.5446753276571397 1.3970343566059875
Ni 3.9280224045006302 8.652356860850654 10.333119263691573 -0.993628784820863 -1.5306551021186476 0.753307001004522
Ni 0.7211751430157655 0.8588357267527956 4.368505959294347 2.2238479114400924 -1.2675808550971395 -1.1010957547562907
P 2.219126981871463 0.9646702600168467 10.141465203554656 1.154809699339979 -0.7283891547169198 0.7870208483171994
Ni 4.961784499850402 5.791339372953477 2.677429686973555 0.19613300511426868 -1.2847715079438131 -1.2004344391576294
P 4.457929795394049 5.156260087184633 9.500289090101338 -1.1481142895976744 -0.62541313067331 2.045319506781465
Ni 0.7671938542058085 2.110637274143641 11.232431383061757 -0.1307673352242651 -0.3007306239217014 0.7892597649500472
P 2.917069117283772 1.9560031664937638 5.0648012026445475 -1.177659864465275 -0.24604325968115046 -0.84743765884236
P 2.3475882594433792 6.42798976787248 7.277560571548597 -0.29031225680185485 0.5240396752301297 -0.5193031889864088
P 8.181245919447345 5.577714737624352 2.0055365412709003 -0.17931541933629763 -1.0632048932477884 0.21819127046588876
Ni 8.441874443821849 6.369230285656492 9.815818637455408 0.43602181515824906 -1.4621125771625594 1.0127163975799331
Ni 8.469757010327926 2.4419472266382902 13.491816650633295 0.23494817820925343 0.3824729353975155 -0.39394519770317316
Ni 1.4620464496834207 2.660590169429397 6.93119199994059 0.1775668120763071 -0.08117204079464085 -1.1900785498446018
Ni 3.071860335848666 4.849690482895741 6.047813699898588 1.0736849668435056 -1.1557162703146482 0.6314356827183062
Ni 0.39246121734629297 1.205918690933199 1.9148964818526035 1.507871271454913 0.05766675858384908 0.20706584997668853
Ni 4.545690104158288 0.02852856962134875 7.994348623308003 0.4589773955131579 0.7018008627054301 0.21408778982047644
Ni 2.9045094859010216 2.2544214868388837 2.9580334779195647 0.023522508601972393 -1.0494366358191023 0.21258780823618229
Ni 5.752135578747717 5.415446887868403 4.9956271151267035 2.088120918217707 0.7041855608875227 0.7109892140729175
Ni 4.74279036795514 8.868310434449429 5.762408784226058 0.6940425589162499 0.45675570527149084 -1.4219429469222091
Ni 2.5789294608951923 4.3137666681390625 8.346100554209942 0.8269130565264468 1.2060893234505614 -0.6025179712426914
Ni 8.457465391682556 3.1231893959662504 2.281365084582277 -0.23331552770183692 1.3294205141117557 -0.6884961751767239
Ni 1.7967481495787092 7.820445324022338 13.43276050604248 -0.4742258370317962 -0.4268298642463359 -1.3497232302248496
Ni 4.313258368119893 3.918161384128743 4.186644530072194 -1.5652449242783755 -0.8569569111867046 -0.697568055571005
Ni 6.573086318799033 7.932049524594889 11.66359641223132 -0.3257001493828455 -1.061908543033868 -1.883655739088659
Ni 7.681365196959046 0.7791056341095813 2.4254210067423116 -2.965786265596357 -0.5978074531408994 0.3094433212043509
Ni 2.7440345489399607 4.267067759105185 1.8139222209536656 1.2641782571734936 -0.7788251998802845 0.15964596593182828
Ni 5.16192532194374 0.25493741252351215 12.483238510778738 2.7840627510391984 0.49303165688438955 0.3849208827173758
Ni 1.7429422820949902 6.280721389591295 1.6016394976751476 -0.2804736734448783 0.7545424160735199 0.9048989862836222
Ni 5.112407658258105 1.5009822311518006 4.059253455086093 -0.23322913863561767 -0.1879682099152892 1.0325897394650927
Ni 5.908387004640407 7.398048008092524 0.37001468849977 1.565388134724459 -0.17930410648238798 0.9995227817077946
Ni 0.6726278702758176 0.8206198829479301 8.702168414365554 0.35883112760885943 -0.6241144664665444 -0.3806916751273766
Ni 7.631182122339225 1.421872264531973 8.73333275063176 1.043067499067965 1.2500456744268535 -1.9617733093276923
Ni 0.9601140434813823 3.513785614333118 3.855627543224958 0.25138652627093483 -1.184323906749012 0.5727798207483104
Ni 0.25923578232197964 7.248968233379388 7.763940845527755 -0.23553258995781373 2.424323766904089 -1.128400356108515
Ni 2.622911275281145 0.41249840410195276 6.595928397478656 -0.6694481574063373 1.1291732297187973 -1.224675313982865
P 5.399671103637089 7.839132281090714 2.683110632824163 -1.8968516689536428 1.76020267813762 -0.7589359171555252
Ni 0.895144983394849 5.402905740122712 5.587160800344226 -0.8749165809889189 0.08627182391505142 1.0879628169187585
P 1.474412002877034 2.1884349025321588 0.18146218266164132 0.5535741943541369 1.1932410067329837 -0.35647959665754736
Ni 6.089609824202112 0.0417443701197545 9.733821526726699 -2.200429275405836 0.8277180689262454 0.44923394297314884
P 6.443423604818172 3.6893709245913073 6.01939510791775 0.03785846560867028 -0.0003314151974897518 -0.39125968045121007
P 6.711695113117277 7.500225553764114 5.496534603653725 -1.0485655460680587 -0.32013422525929386 0.15338507262378098
P 2.097689486382616 5.2226717951437545 3.6666110980966056 1.7569841712003225 0.8315968351553613 0.3292870954031554
Ni 2.2504197794152407 4.2334645069288195 13.062206095340539 0.8500653262731941 -0.8420763945304466 -1.251494233947922
