# total energy = -340862.09427945607 ev
CRYSTAL
PRIMVEC
9.33588509390040 0.00000000000000 0.00000000000000

0.00000000000000 9.33588509390040 0.00000000000000

0.00000000000000 0.00000000000000 13.66401152065448

PRIMCOORD
 96 1
Ni 1.298005444948984 5.820821646976977 7.263433416554817 0.05914462868095621 -0.6797032594754423 0.38704255704606894
Ni 7.769360899552083 8.22731406993546 5.044301937495932 0.5674653505139324 -1.7884827560292362 -1.3839243015865907
Ni 3.7400862617977784 1.3741022441619763 9.885597854890433 -0.6363876274069428 0.015170022872219035 -1.5189221299524356
Ni 3.2044118481990695 2.10585825190502 0.4263371955907388 -0.5828336054398865 0.8330654492810878 -1.2615449333157047
Ni 6.094643156106786 3.5722270482228056 3.991558595656333 0.5385306697574532 -0.2167846199263492 0.8379618581414408
Ni 1.0112443991108941 8.2587853385095 4.768521759678247 0.42437240384477876 1.3141000817046014 -0.4427915297819149
Ni 3.6988029780142115 4.297830707704119 4.130521377759823 -1.2242240853780595 -1.4585904229419138 1.7349901834277346
Ni 2.42686332418321 5.433774523707165 1.8800035866810436 1.1765419488107478 0.09235428266370546 -1.1385510713892713
Ni 1.2180529252017056 4.78677901652292 9.382216267752007 -1.1590566475417912 0.06823630656957924 0.09238282190879574
Ni 5.333796530482784 2.0138064251058414 8.075239037249876 -1.32247545025249 -0.5590892106350952 0.0705022197856205
Ni 6.76673352236164 4.889062973359816 6.021511433992314 0.7654379799401011 0.35720619041092677 0.7820776453793111
Ni 0.8239814820045409 3.8852966181907216 0.6609526553652576 -0.30424352217096634 -0.6603770483430046 1.1459363081097491
Ni 7.242788973897512 4.099583188223332 1.8865349718766526 0.5678710705927832 -1.5071176811183398 -0.278789600874236
Ni 5.070085784884773 8.57875412754482 1.3478450674000402 -1.5685999567935371 -0.5760178680696338 1.4602927503450012
Ni 7.629873440707607 2.195949542839307 7.945076260414226 0.8349883773354135 -0.3207386916125121 -1.471751385803904
Ni 7.499927256405603 0.6097294547466924 9.739720916303426 -0.7676537566444973 0.2963605198784638 0.07711098335138977
Ni 3.9872164755098525 1.8138130951167946 4.514439112353865 -0.16965167099428846 0.14940371937852978 0.9186016805816954
Ni 1.3246220532861503 9.250499066052049 12.499018303268636 -0.9107425895485929 0.03639139414484055 -0.2001873776893004
Ni 9.18057328687093 2.653585293130274 2.7053649124990655 -0.8436303692811278 -2.003968968859136 -0.08852745271844753
Ni 8.248963987414902 6.196329616299144 8.053978426177892 0.2085378065365247 -1.532852881100915 0.6481488817079288
Ni 6.305400761582592 4.640308315645403 13.515538411033102 -2.6234652198273785 0.566288813707328 -0.3123316984957395
Ni 0.2092666646299823 7.818056876081953 6.851831981960004 -0.21066745128501782 -0.05820951846119653 0.6594923317452062
Ni 6.897099821491835 0.7463162540996358 12.326810434427633 1.3431280935058352 -1.9537316699701386 -3.7574320142800772
Ni 4.697537291130086 3.674949791658035 11.149505846794932 0.8157349284224402 -0.7748986111323687 1.759790530300866
P 2.230949775970151 2.74356455344371 8.905764974689125 -0.023482142282340204 0.028493479454002543 0.13766380523378227
P 3.164510275405998 9.063893395254688 4.508016957013586 0.6827353614335467 0.04350023727547992 0.47404945935493203
P 4.058169202048773 6.307949458206951 4.192009384013855 -0.7125303333077923 1.2443586513444052 0.538038560612383
P 2.272429113340207 7.709807288684744 7.507718052497278 1.5371011148543074 0.27082792282499807 -0.10222500481019814
P 0.19573896716223285 5.813866412599149 1.315133993288584 0.009652692598415634 -0.002856495612188629 -1.2279539847341367
P 5.778856843583235 6.053499910599283 1.7439237258874507 1.0555175519058597 0.21979769572106017 0.292258067674316
P 8.57948232658035 6.034893491652957 5.191217960091331 0.38821523719793144 1.7673310616522855 0.6922993509728981
P 3.032062073904989 9.083293364432041 0.14561833457054224 1.5006302736217834 0.6300107773463215 0.35352591334586214
Ni 5.384593081153609 9.035932419467311 3.728786106507948 -1.1687167963393743 -0.14847606535793784 1.4029466083253643
Ni 7.617951515472055 6.449668193583373 0.3899459155843293 -0.09365731774584515 0.5026090161601796 -0.424128920375405
Ni 7.31914717789249 1.0366006629634872 4.088969220486214 0.11787916640768731 0.6403867212640069 -0.3646932428165913
Ni 5.253787995425081 8.309012400191 12.848228951523062 -0.8007788213332403 -0.26852601416469885 -0.24091750841881088
Ni 6.358914054809052 3.3779192722419435 9.492853040961846 0.25467059633884526 1.2890189703662576 -0.4531376489029293
Ni 6.265629891180513 6.056282004350414 9.824574775712934 -0.03128004106020419 -0.33061764128912097 -0.8557508066937456
Ni 0.11462319613511905 5.19390762858026 11.643555283216479 -0.8006705778901502 -0.33341474441828384 -0.7064476174488221
Ni 5.992723298787654 6.9484471893818425 5.070550711961304 0.8238591001914715 -2.0903531499823353 -2.1365669295342364
Ni 0.26820130631711964 6.99414634680395 2.970091402392792 -1.0546822004887577 1.0102417107871957 0.9079282600282491
Ni 7.177997931505393 4.3063263631186475 11.437829719793893 0.6011863969154614 0.4985456447240833 -0.4464664075303407
Ni 3.685424654707597 4.665169777589238 9.454963351401556 -0.4606372997140842 0.48221913964991786 -1.6878549205028286
Ni 0.63557211821148 0.8172605783419924 8.35457245292555 -0.5980211118136024 -1.7326265682915645 -0.8531249390351243
Ni 6.166268066370812 0.4625977732061555 6.432825323326944 0.35953818097821305 0.08138672790860821 -0.8628889604004236
Ni 8.845209623353679 7.65870265380658 11.313486933711447 -0.4209062996730493 0.48210961065524705 0.33272106078536895
Ni 6.27082997916501 7.312556043032427 7.382487423744591 0.24052181564228897 0.28226521812766225 1.0698838479298607
Ni 1.0185357253512752 7.959878306194156 9.307063326519684 0.18313864973712976 -0.8402275142471657 0.39437174371763045
Ni 7.459764278830546 5.852180884930166 3.3046820546261713 -0.26493521148964694 0.23830552471726058 0.69080759691872
Ni 4.187825973913579 7.389539751327156 9.007247912586939 -0.9078346718731785 -0.34011915302165296 -0.9522111411060246
Ni 5.423981180267781 8.660965931479257 10.61670501862105 1.139265580957793 0.5764346438920782 -1.4889973173685453
Ni 5.093798932964885 3.2617715260747446 6.192352529258936 -0.15765953162941881 -0.1089522962317027 -0.17024431027296485
Ni 1.2593082013300596 2.559507579270708 12.56411276192556 -1.374659074234581 -2.02904210977768 0.429777376910434
Ni 1.6912982753312347 5.5453196785344065 4.973153157370522 0.2999032429243996 1.3653557945557842 0.7144648313263438
Ni 7.089223000366104 8.156426694592037 2.441772732641454 1.4866007921119107 -0.7791928676323484 0.6947092459659713
Ni 9.05765702402732 8.280528614839652 0.6436121824345483 -2.2147300082992243 1.2521580927841662 0.47854914699749845
P 6.994267713309872 9.226664551466014 0.6177713861467747 -0.4921891063784362 -1.0223042983786845 -0.1594508192018867
P 5.220477557492072 9.237372811642349 8.351443997838288 -0.5558704465874813 -0.7018579411956106 -0.15636395274644685
P 5.09917640276573 4.816028344450083 7.8648819412436115 2.1034400650732805 -0.6303262517042112 0.2205821392955685
P 9.063174532104227 0.1598648951887518 3.1271051182808876 1.0142886271630596 -0.46362543580813054 -0.4653069372756115
P 1.9590607950500216 6.705872887584373 10.936497359428529 -0.741731894572413 -0.9347682630392288 0.16376513030652443
P 4.052446304500305 4.431100467091368 13.050839130097485 -0.8894965356856229 -1.746295838248541 -0.6061429695897883
P 7.6350735286921045 2.4987869827695053 5.666861699095577 -1.3533543992195338 -0.5262009445475067 1.5217030351316825
P 8.144747502368327 8.348353819879817 8.50386632544851 0.5751681184748288 -0.5684027747265372 -0.5015358377006588
Ni 8.931482537293963 3.9517307763553213 4.965091620611791 0.5073431884110553 -0.19242238903190087 -0.04981923751497226
Ni 4.2569582028636725 6.187665914953339 11.29601109044721 -0.407457373256995 0.014577897814174892 0.7302853432983681
Ni 3.1826312283286358 0.8383531434827007 7.277329881482867 1.9112657874964438 -0.6536898661308161 2.004797635408018
Ni 0.5096431652554883 2.791093544339716 7.426349278984743 0.436133658145765 2.2494406723075326 -0.9095202871057174
Ni 1.6496695638000445 1.1466240685241686 5.866725260282138 -0.9580588581360532 0.37772925006494307 -1.9193747897568234
Ni 1.6810754811785877 7.43592042835944 0.6521713218675591 2.0215655988949766 -0.3313352361814358 -0.1602316632319692
Ni 5.689335041638272 2.0875039018556096 13.461197024800853 0.019789009701469143 2.9120440388778945 3.2705378377519936
Ni 1.9496595587836145 5.510347453058775 12.873083878347346 1.4020040419064372 0.7833128033379929 1.0501912545969396
Ni 4.130391608957337 1.177815260546081 2.2820534772598084 0.7693488849587331 0.5147032283205524 -0.24861076329801055
Ni 8.202237882634995 1.5574870346098733 0.2735713074099074 1.6996200314585568 1.5675015815230358 0.8023297107601279
Ni 1.3551877410083115 1.3578111247132374 10.424438067116688 1.059637230501188 0.231926103553478 0.7827767283288648
Ni 3.7690741849429554 5.726706589577128 6.599334567920662 0.08503229508099548 2.201581643842725 -1.1253255738379329
Ni 0.9354836917604546 4.575872036885979 3.164516810525548 -1.0406537474201496 -1.0865458819665739 -0.7177982665749508
Ni 2.299027049907231 3.8961262448729777 11.272099088015088 1.141803516888298 -0.03779547358121878 -0.8895122194149068
Ni 3.1772444226427203 8.527117347217613 11.179607541029068 -0.6918846320329827 -0.46255997065809373 -0.24111214092812028
Ni 1.9190098480958153 0.9581138771723419 3.2967437515503755 -1.0802312526024556 0.6803714891870605 0.16527976717883794
Ni 1.0639734779913972 0.8929867429176696 1.121110028213877 0.48458661144083 0.052974752424818444 0.018855442143606235
Ni 2.579103602034549 7.500141981762234 2.942380628325315 1.510074706864135 0.8470054564009477 0.7380104798567677
Ni 2.7456277840443817 3.8357230684641865 6.92236552725924 0.46360512409315646 -1.5673025781383523 2.5641282726299583
Ni 4.216477805196204 1.2035262880313689 12.147934876468987 -2.28075568037073 -1.515665313578035 0.1367124970641065
Ni 4.428084976213464 7.917017257833605 6.015513127834254 -3.252001726621019 2.6729185893625 1.2349653830549634
Ni 8.760570489300802 0.46816289429692537 6.120589447895861 -0.5332928183972815 3.1169473339856255 1.0352310337426818
Ni 4.082181098451155 6.200894864098819 0.404696613996368 0.6115186320794048 1.7076218187171108 0.2376275248136295
Ni 4.580007833972392 4.104596558506412 2.10483130454722 1.9954154228621699 -0.1594312788178609 -2.03891231770354
P 8.913277561405689 0.6703809656983702 11.321589548364491 0.3895624952544452 -0.43827692974101295 1.394492306910424
P 2.663061216477248 3.170559928931948 2.1791776253094164 -1.644317145121194 -0.5886581825414637 0.9803654920530535
P 5.694973916221103 1.7146473238935822 10.735363184283816 0.8647645801565818 0.24355160360754832 -0.3791436139139664
P 1.7965883871609645 3.2631345652950974 5.268746884074201 -1.239653789669568 -0.5001713532529644 -2.160935073965956
P 8.191062828205114 3.6575290301157155 13.303691307769519 0.6359076024467306 -0.13550613546083115 -0.47077027438302793
P 6.258553290296763 2.0768609928747717 2.5023178145033236 -0.8153996565702086 0.20734841421411387 -1.225914585706605
P 6.372815187679637 6.832215420249006 11.837297304562043 1.2981695265172741 -0.832185874889612 -0.0848911415174409
P 8.391466937137281 4.047040827044248 8.991889448056783 0.4029486867533641 1.1748064541768801 0.10807117917833002
