# total energy = -340874.28822030366 ev
CRYSTAL
PRIMVEC
9.22555075469007 0.00000000000000 0.00000000000000

0.00000000000000 9.22555075469007 0.00000000000000

0.00000000000000 0.00000000000000 13.50252606244984

PRIMCOORD
 96 1
Ni 1.38419238116419 3.4321723510029556 3.453419716508319 -1.2493033969441902 0.016150641617933476 -3.2505359407087693
Ni 6.300229961631431 6.35359054609716 10.535210645322193 0.3763493389982809 -1.2833638289630092 -0.3591106065224912
Ni 5.481840596595045 3.8677567209112276 10.600198191164507 -0.845308528314499 0.43027128582771706 -2.9042944768394627
Ni 1.3693023425529023 6.330139196561911 2.8518815302684795 -0.19068869417024578 1.6486360842115217 0.321294307005666
Ni 6.985430053166477 3.4382058610722135 4.783054036743493 -1.0542417705172296 -1.1163526809153612 0.5096407261959803
Ni 7.188816540913966 5.367637506155683 6.361161032890483 -0.45583602167069887 0.5033834324323588 0.2191747174250806
Ni -0.09583501926521508 0.543030667114111 13.402026496844671 2.863684159517268 -0.327748547271442 -0.5863598734255902
Ni 7.638506777635534 4.600219307988794 1.200205381143971 2.1262904873088933 -1.7093310880987336 -0.5217058848906305
Ni 4.153951750526698 1.7185447847269477 1.7408134186798139 -0.36586489452718923 -1.2149480593927722 -0.08990196446847097
Ni 0.7117512260600061 5.925137526775335 10.718088734164548 -1.3179130276927882 -0.21678076327160728 -0.2770685044180712
Ni 3.261112192433874 2.2869125039117155 7.519259156147441 -0.4876063721037603 -1.1815730834767522 -2.32726307990365
Ni 5.136122314736683 3.8045063462402307 7.690930968718956 1.3997134461000473 -0.08100543330978952 0.5242291655331165
Ni 1.133580300076438 3.03938531016393 7.139717238254032 -1.5096666727924388 0.7984316612573024 0.9988949183158089
Ni 1.819684495566816 8.296150149634077 1.2666339579844774 -0.7753398124348453 -1.2220059946808182 1.0110948028161102
Ni 2.0131719675584754 7.985202967853747 9.96505316932789 0.20221752074545174 -1.6500746164302613 0.34902879680645693
Ni 4.798042788745822 6.651529701581385 3.5161525377926415 0.4707250229673894 -0.521760649387966 -0.07984380890152055
Ni 8.562934620861597 1.8815787143048144 3.0635747037443495 0.6739648143297683 -0.022544975180051496 1.07216184533076
Ni 2.6351309099730886 5.447844442764441 4.547987930912172 0.2574671852473759 1.294180202852223 0.008750235388804284
Ni 7.832132632885663 7.385671338861711 4.359236856580385 -1.039572341430513 -0.8011135789648396 -0.7335419025624528
Ni 4.793227051351093 5.205194011813952 5.589829356174084 1.7320424136533201 -0.7817446875199247 -0.5983029047200793
Ni 8.356208483809716 1.3037086780384934 11.22622929159834 -0.45502792394710667 -0.4259865424094341 0.21826788934009506
Ni 6.037827626922102 8.131704710819823 6.01883221830956 -0.09637445956669208 0.0008551489114436884 -0.6280752508865054
Ni 4.547873534085171 4.2928424142769686 12.857401654592994 -1.5156146628457576 -2.09206961845281 0.4342158722977619
Ni 5.580055807905932 6.327888162224145 13.161127997946403 0.5747449148944811 0.6633111912706641 -0.46399567466335573
P 2.635490706445109 1.161441462781574 3.977776946724594 0.9834808977535837 0.7261520378562848 -0.8112568380464286
P -0.23785037699172082 3.0620617134517527 5.467820527402001 0.8932282348139133 0.34548607376052115 -0.9067830906802126
P 8.486860730905788 4.164782546889556 10.997658895919566 0.7240216217768435 -0.021741248331833524 -0.3029464006260976
P 0.7578946623190382 8.976709789235121 11.39133804749819 -0.5529712706628155 0.23106504110476336 0.7649348150514375
P 3.969293130425375 7.226087765195009 5.657679590356597 -0.661479537378564 0.5468466458223162 -0.7198682617301021
P 7.29174600856337 0.29323504725132726 3.8211068019261982 -0.45469008099171365 -0.3489346944307539 0.5815516534036694
P 8.958314041409281 6.8021644912004104 1.2676496911016415 -0.3251854145299561 -1.2470989330937037 -0.1967277012754741
P 3.8964758598188722 9.111827202804465 8.690631001556765 -0.8588901236536756 0.6250179521174204 -0.4664122545246483
Ni 4.253864463141473 3.2381497970785484 3.7119796094074866 0.6599561587555022 -1.0871809444474116 0.7843160477915266
Ni 9.032616625656685 2.4319197076863257 9.294544767066993 -0.21821209640149514 -2.1309102454690914 0.0025579905351633364
Ni 3.467561562968817 6.087414961206903 0.7821098874410384 -0.5109782140604814 0.08875833778233101 1.0348703079691532
Ni 4.457730679518323 7.013853974456054 7.861656239802541 -0.6621241129410984 1.0555954563316468 -0.5566376637708091
Ni 8.767114505957645 4.479014024670889 8.6134500455332 0.04587362260366293 2.3095186114360353 1.8318888909290127
Ni 5.442798066605597 4.371527135042565 1.7052470761431122 -0.8592475069930943 0.42195608109380234 0.5926001979083472
Ni 0.5893106415214994 8.78581469695212 3.918540609104261 0.8863428205479896 0.01804220221369151 0.42548620573424784
Ni 1.0148843665121083 4.9399594330812855 1.1664915291606437 -0.9183615395464313 -0.8900387813423382 -1.5330701393180437
Ni 3.8537892373564016 0.5519573098404319 11.394214574164238 -1.444266550120074 1.5423883313951758 -1.0570396449773407
Ni 1.6921781612132796 3.583434478060375 10.227704593902464 -0.4763518822358635 0.11938480441893633 0.4857497785109957
Ni 9.00329782596234 8.926421313107408 9.142654380016124 0.41056815097183486 1.4626743632033004 -0.18233003779290533
Ni 1.4155684786344438 1.0429392657791008 5.660082846278679 -0.40243395190047465 -0.18436815126885667 0.9106106919564189
Ni 5.028330981939727 0.22915437302951522 -0.2580183530810245 0.8298921937594288 -0.36677300816375547 2.4704329025573264
Ni 0.2962490346207869 5.3551553362417605 6.652681050291848 1.3482852122267426 0.3783550565744 -1.0843439892192488
Ni 2.406051263903147 3.335054980209259 5.2347803524746706 1.982570448578702 -1.717377612552294 3.0010623151898312
Ni 8.702618681960425 4.837555821814065 3.63540661716613 0.8685546433266332 0.2618668569769683 0.6854435043933292
Ni 2.290095318856508 5.071672618492286 12.38385506666639 -0.03407303042430906 0.009650635715886605 -0.45790550260521784
Ni 5.940737932780098 8.830798481505179 2.223636297699138 -0.7899102540498525 -0.43568474353380443 -0.36808529921727573
Ni 1.6738654433425195 1.3642836430457521 2.0151711443658273 -1.1706381817318032 0.13986518376047527 0.9942322227328166
Ni 7.225294367846452 1.0734112592940224 0.7345687802714671 -1.3730899299752481 1.2937551994996623 0.18664049224280113
Ni 8.090189733279058 1.0029003763286741 5.884076446322349 -0.42978509021991784 -0.1550794296070684 -0.6035613249055412
Ni 3.014716187954151 4.984343556847646 7.033087402273162 -1.2536051096433378 0.6072801685180251 0.5773473855143347
Ni 4.8538942718639975 0.5953598350267171 4.244978412837636 0.3452022239715152 0.8183181157685843 0.09850230454297229
Ni 7.5561318366440915 2.9168607731152854 7.456607519708088 0.9605772536825328 0.9609940295049771 -2.5619148099184073
P 6.662129859180126 5.227307656517333 3.744669425278141 -1.7937499179654464 1.4981108496340392 -0.13995568659175253
P 3.3315123687924473 3.9048987874843655 8.889198984244358 0.03363157201151627 0.0771760322613703 0.7035700387907109
P 6.144622600258078 8.584882205654816 11.64762937751352 0.29162351941411063 0.08762756661199747 -0.6193682100308108
P 7.376288953937498 8.653501850754418 7.624971049847131 -0.45590441301478896 1.023802480190766 -0.984129072860544
P 6.573702957018297 2.2558777518123527 9.084391337980358 -0.8081098077770148 -0.42499795324391965 2.6799932368210944
P 0.8645161953044006 0.9643744771708441 7.75576998319718 -0.02637951843479328 -0.11387467323398452 -0.1323382792558108
P -0.0336926332170285 2.8680576106284748 1.3064329831202242 0.9031192686753801 0.24032075537507644 -0.9672379535321599
P 2.6414411865592853 2.514386904183415 11.834059303323247 0.7581591868905007 -0.10481282014203239 1.035513855090423
Ni 6.6547678698295645 6.449259505452213 1.9109989950553699 0.5567255954989251 2.102470244960844 0.3184200707816645
Ni 8.1145820889719 5.9633128550117105 12.714518172558359 -0.19724886388626675 -0.8306617249356016 -0.5589521708365986
Ni 8.465199138180072 8.680947863684146 2.023299776968309 -0.16673681134033866 0.37488998084393504 0.298616405792176
Ni 2.102742837990317 8.167213854943025 7.374269480918903 -0.1106962755060029 -0.55090487505209 0.9789935514061913
Ni 0.7149727883171696 7.210118337167661 12.880261646337052 1.4120639972456004 1.0609333236047922 -0.7567592212191806
Ni 9.137418880070705 8.032050313620859 6.442689990895151 -0.016044969278004625 -0.06615345589862155 0.1388673386235802
Ni 2.956788955958937 5.915044774457647 9.56772808016613 -0.19373519430605343 -0.8895327882401971 0.07197443345577283
Ni 4.46018467596851 7.786918209568488 10.385116472966255 -0.6424636583976936 -0.7485170358150462 0.06138148843127492
Ni 5.928726265944971 1.9349854265233677 11.778091578267958 0.3691541068014223 -0.65145814858682 0.15751709251428359
Ni 8.094018336763375 7.777157577071126 10.963524358830494 0.264433332152564 0.501262272324298 1.2444509539478956
Ni 8.120255802569137 6.902501579141157 8.656631157505934 -1.1868397311923302 -2.005182529551263 -0.1449287143263117
Ni 3.145377660600786 7.851321778060061 12.579560361013783 -0.02007774458648155 -1.3920993811982154 -0.02186388995262686
Ni 0.5593848006000031 2.9573240378916843 12.559009524576048 -0.255527802132818 0.2962805585701478 0.37135240000432174
Ni 6.106484174223962 9.123497524268702 9.287968794624534 0.5701580668547471 0.6806381125848858 1.109362108530141
Ni 1.9162206566749418 0.8968480598131484 9.639534230430751 0.6426230667936932 2.8385657671830855 0.48013860297180533
Ni 4.241428420980372 1.9463697559201019 9.51201590286148 1.6159550490387329 0.23293654709586334 1.0730977268814679
Ni 6.197051404116782 2.122753057164966 2.658741861533106 0.8201541405360584 0.19994260866834598 0.5031180945861142
Ni 2.5459290615638315 0.7546223595337695 -0.0034641942370127327 0.37581223554788823 1.5864418700709646 -2.039905534854745
Ni 3.0690546807797303 8.25191363467675 3.658604264060853 -0.5514206383462439 -0.17422026420157738 0.007240740722813336
Ni 7.2803801302677655 7.990904358102678 13.489617564125346 -0.004315596656218374 0.6963128430076653 -0.19035342231801408
Ni 6.781388551328898 4.189645405661191 12.370771390855653 1.1565937878235952 -0.9697018416916204 0.6731790852036793
Ni 5.795915240016781 1.31503765413184 7.222500871135487 -0.37925108602610813 -0.5425089376789107 -0.5263631811569838
Ni 2.731934612047588 3.3019075770305992 0.8203959222841885 -0.4485266324934792 0.07653531335357786 -0.5797526525217176
Ni 3.8045340228919247 0.16580067219219474 6.3855201766012915 0.38124394808642087 -0.5262652221265389 -0.4599518436112853
P 3.4175590789086066 4.6468636916434845 2.452517594431941 -2.2146384770266825 1.554813444532406 -0.007129669066245787
P 0.6268946119666823 6.6494170505020875 4.912529103587517 0.42873299480631966 -0.0025844728977245813 -1.040224887412847
P 4.249814446443606 5.765517050906376 11.36387450602239 -0.2510281144902516 0.40924094751997914 0.012633115382978243
P 3.958683747276068 8.237826218964583 1.2898140763331278 0.22696490289346075 -0.17860322376062143 0.3806561939037509
P 5.759013037758322 2.6544676639565203 0.46344830027857714 0.0628336474967692 -0.5395123169444321 -0.8069037032840554
P 0.9871984892677004 6.340130467823387 8.505551696349697 0.6772450277429368 0.15049052468480534 -0.09981408137586037
P 6.023684857906548 5.680392895846679 8.22811540444027 1.7718484899066647 0.1486519288141698 1.0015984332899008
P 4.934571711551551 2.8583892336367587 5.746377723705026 -0.45748152769392175 -1.21045274262558 0.30815879806497254
