# total energy = -340871.0898580548 ev
CRYSTAL
PRIMVEC
9.26357981179846 0.00000000000000 0.00000000000000

0.00000000000000 9.26357981179846 0.00000000000000

0.00000000000000 0.00000000000000 13.55818543156187

PRIMCOORD
 96 1
Ni 0.6085847758947203 4.758339707151186 2.94596291517851 1.5562779448930746 0.41153025777478797 0.847243797663999
Ni 0.8325262614592378 3.044809017980136 6.358178480397401 -2.5261867603891788 -1.1389894444782707 1.3060250180059507
Ni 3.596881324788288 1.1941310286162095 12.369335847450303 0.5951988118734589 0.6459081653028682 -0.6249860704382204
Ni 3.501781413692032 4.798061937696748 12.584219404603568 0.05356122105590775 -0.5438158294157925 0.6546907965915048
Ni 0.8905829693125845 6.543144379955062 9.337752442471542 -1.4741036880861644 -0.3721568981834881 -0.4177392147989773
Ni 8.09478474706122 0.9755846519765371 3.9844528327200424 -0.7181667056579631 1.0649928383861464 -0.904360854391965
Ni 2.628994707695931 9.013370592007243 4.071645352026724 0.5384571362070404 0.25612044141149437 0.4526874487393881
Ni 7.171594902912506 4.197689325369809 8.66324710575936 0.0026163545769245264 0.3260014826733482 0.1967341290333773
Ni 2.018182040838942 1.213380747616601 0.6536780300574278 0.20462330197346695 -0.9062048495792393 -1.0293627478873628
Ni 6.563542782861156 2.7598242464074474 0.5722409729331049 1.1938801829788794 -0.344198208187033 2.173344246263586
Ni 1.749380743324811 3.591638138573552 0.7776349188524906 -0.8506132283568641 0.21003624545892213 -0.46094866030691584
Ni 8.4401124780028 1.686601462446248 8.151194390411069 1.3606583890801147 1.3218900100626654 -0.6029064649303617
Ni 8.045817463790733 7.590493985298314 0.5369421017824831 -0.6726661501230028 -0.4789386691264332 -1.1654067581295349
Ni 8.812073001112868 5.101471969660092 7.176320255011688 0.6653881284043508 0.4407174208617055 0.18502455390593295
Ni 7.763259750147835 6.501347107515329 8.890685592730348 0.09839328976893377 0.04421783216779482 -0.5164965727755492
Ni 4.871929723697289 4.309093137063124 4.322688366901899 0.31238054945580396 -0.5216997142430435 -2.253708960665583
Ni 3.223447892476552 7.573995549523676 2.2948990673645424 -0.9114092765983143 -1.2019007392905108 -1.0864173268085096
Ni 1.3963549774990534 2.9043916740879627 11.771732119150897 -0.5693378849462969 -0.6868244439012559 0.5745839638365846
Ni 3.015545369124392 8.014413927981625 7.334531083146379 0.9034547976379278 0.6156984744887074 -0.3306351247906177
Ni 5.790700840241005 6.951464454112551 1.4822895026573943 -0.5908999273877887 0.1420043415906651 -0.5234886878226661
Ni 3.735029091608712 5.906866131995053 5.6768940559256 0.926086933215147 0.8700250572245727 2.619841507031863
Ni 7.3154490349419 3.390386865578601 6.1703705145311165 0.8061591118085473 0.10490743673836771 0.18685723623929756
Ni 4.490029379370943 5.0390447048171465 8.257273496386663 1.7795967663935155 0.37591585100528807 -1.8194802328520148
Ni 9.007599381739078 4.608343821658241 10.473562751207693 -1.3852538190312917 -0.04917980415876046 0.019459908496824548
P 9.171601800017681 2.1108548940054086 0.6313787405589953 -0.4178669986260933 1.8386542346773045 0.9681252412331198
P 8.274424088185183 6.025245419341542 12.278713024512317 -1.2278076889642595 -0.5164019561792139 0.3650922780272229
P 8.114293846298384 8.851471006362466 5.476408880987114 0.5750835291808225 -0.38607222271299957 2.3965851633382402
P 1.3511394440818678 1.4145301212328205 7.633990198288901 0.5376870908102352 -1.5101053029917542 0.8156997043091305
P 1.8294643914279802 4.694439533106575 10.771409077092288 0.1402829880241842 2.244626024527708 -0.0687924361833654
P 8.905533258569534 8.420742332463906 9.266016206202469 -0.09734247990691623 -0.6293183792649871 0.22856490039072894
P 4.065303505237664 2.9483936785402536 8.372139107882889 -0.8736886221190888 -1.3958051121845767 0.3057679292352928
P 0.7192910400227184 7.071381495719899 1.9702346777137603 -0.2749293465878814 -0.9669343062488122 0.2733200931192325
Ni 6.45760448329981 4.808177766930833 13.313867126937373 -2.2810739829420976 3.46755093147837 0.5337749002400227
Ni 3.154100733459742 1.0848578402963733 6.423841513694069 0.33186514054297683 0.37165707572893414 0.16701320493017688
Ni 0.989276223046113 7.973885765986095 13.497905742148577 1.775536737391529 -0.5029820832288822 0.18620623291885996
Ni 2.4135979482170535 4.3454897424300825 7.1709788748501735 1.3875950655699587 0.5313912304991946 0.7421697534407798
Ni 5.923003288154188 0.2777239776590669 5.862505627001225 -0.5787784615339064 0.4948008329696703 -0.780723959564894
Ni 7.396523886092733 8.86162388991609 7.698107140102813 -0.8910664512759041 -1.0327123810858858 -1.0301021971565485
Ni 8.29457237443439 3.8647006828346413 12.704887722539564 2.291916582083556 -2.4693106160274247 -0.6884236700675757
Ni 6.225440644229638 7.676182099231722 10.074504404218919 -1.183768034245542 0.414687315346531 0.9536563581929834
Ni 7.9300782967113825 5.04197199606071 4.329643462679327 -0.1990938875148055 -2.321112486921222 0.4620642619685978
Ni 4.235012288725236 5.068919749945281 1.964934057303739 -0.07831888761656189 0.196281614876991 -1.231097415459125
Ni 8.671322168344846 5.053505153017153 1.1636242073399392 -0.830510544069718 0.2549793858285157 -1.6103852682604394
Ni 2.1276775550760108 7.074901656076083 11.3559974756537 -0.17897680504995628 0.9643680881835327 1.554929144174664
Ni 0.4911642690662967 8.449487220846107 7.240274157819631 -0.19366577452069872 0.3073257606407159 -0.7699425526786741
Ni 2.58469626868733 1.5504731560406873 10.098421114765218 0.8517164887233719 0.9102178273933742 -0.07039191946000134
Ni 6.137279154467017 2.3387389591688517 7.992075731447678 -1.1716329415449047 -2.1207852412199477 0.6392806326840217
Ni 8.750748102276203 7.917933743482551 11.429523435556494 0.043122542221087024 0.013698066312382861 -0.6265215332461403
Ni 1.0551310124463942 3.213026365106273 8.90387693048615 -0.23913419126614296 0.011267088273387049 0.7864158677433488
Ni 4.2183934264120975 1.7473242285904094 4.238139673294309 -1.342843729496197 -1.5151865741694033 -1.0141428456138146
Ni 5.579046567035545 6.467636940314931 4.028245480266939 0.15938011386495132 0.4662911555657518 -0.19102113780900007
Ni 1.0052003168678998 5.5241598562187395 12.828022931798856 0.9859208746536439 -0.5802182793042265 0.20511566822885322
Ni 1.8871487033699623 8.881994502082529 9.185657429776725 -1.009652413942629 -0.618634931409212 0.39961602283570535
Ni 5.320842804909502 7.468603801175527 7.235122681045752 1.5907885770754346 -3.841509401646971 -2.3586896738440473
Ni 8.162723841935557 3.03459128936732 2.652631658129713 -0.49906937843803734 0.25143074924530895 -1.4820558530537058
Ni 1.6323632022213717 7.353096223593292 5.364431653698935 0.22576651170998535 -0.18424679519964396 -0.4549603039339649
P 6.008154114454284 2.4329310394364074 4.7867983509149505 2.2033338506471405 -0.6841070449700928 -0.4964669078181837
P 1.8577738915556015 9.293593883519199 11.856470716146125 0.6923759698471044 -0.3049348918110361 -1.1709865662101575
P 6.257761274447331 5.2642330682341445 6.76543972737407 0.355621105311994 0.22111050099521273 0.24982278132824076
P 4.934810903954584 -0.2566382171255292 8.315722980027122 -0.32243202015453504 3.2792271379958753 2.787048316030084
P 2.6072160313870176 3.7765021387524813 2.7048041400403022 0.4960182503165393 0.019493589948237394 0.21373837690085773
P 5.640575264629674 9.015677223398532 12.14462270568139 -0.5414267603583256 -0.37921303369932113 -0.8806611967821801
P 6.367664386199326 4.818840147378115 2.281896706638388 1.2086329158080218 -0.19370614084033091 -0.04894943331550925
P 5.038331409166026 2.8775180288424687 12.722256008465374 -1.0503722602594943 0.6816318439567228 -1.2758587788352158
Ni 7.552059392356724 6.834752611145307 5.5753967165609755 -0.3556087640168198 0.08017136744426838 1.3305955082564633
Ni 2.787411187304062 5.696230852576908 3.7825985006745975 -0.8318277202192448 0.11251147433787073 -1.6737976710788143
Ni 6.718309411994718 0.45881028996101864 0.33241152150835085 0.6932334327513932 -1.5349719843264469 1.181095115399069
Ni 4.339950121659036 8.920317932065505 0.4626639391930509 -0.04984417721563674 -0.6896022637567092 0.22672321919629987
Ni 7.097477000255079 1.7445636817847707 12.019317966013105 0.4665271828359579 -0.10689849902646752 -0.25809273464651683
Ni -0.0030338224122368903 0.17904739836933084 1.6793842073580838 -0.4962146825980615 0.43374895996367235 0.12277763215056918
Ni 4.155780889971458 2.6244462899725467 1.2066544622623259 -0.5172869298873285 -0.5594612492625333 0.06450280766907601
Ni 5.35544227577883 1.3502779311525912 10.566557976954144 -1.9861072580873664 0.21990028273719547 -0.6369144464446902
Ni 4.947715070733961 6.86346044520797 12.606685438539923 -0.24974976199846022 0.5819080083018237 -0.6422682545574357
Ni 0.9702025120635306 0.8838613157482513 5.255966249545044 -0.6965979783482519 -0.20792716953571933 0.7534206437642509
Ni 5.109688765017815 8.754194153993307 3.087741078955745 0.49241202102251974 -0.5954605501752777 0.6926150824411039
Ni 3.7225603130839153 3.9826538455064346 10.297265709706126 0.6703860958395745 -1.229066243961709 0.012264933410282102
Ni 4.685213007541421 3.352387660891591 6.312189438059844 -0.26831132705073146 -0.060872667115656455 1.1724937468833032
Ni 3.136972374252945 6.4493784243622025 9.465172983785491 1.4146983495446537 -0.2609227478961442 -0.8628979592614882
Ni 3.8873593992326 8.585513627872936 10.458092572800254 0.41620889419737994 0.578887733418261 0.3363548008832143
Ni 1.6098434395216834 1.7458420558088583 2.9857296109075193 -0.4294696158620281 0.35936694550767145 0.08025441407637791
Ni 9.267470588244366 0.7962982532461812 12.553713509685284 -0.5331362382147592 0.18859864441043647 -0.39663765693367176
Ni 7.343313883235056 0.5507985645740066 9.775791007257114 -0.1057024218358373 -0.22593029098135928 1.2179400521415604
Ni 0.1950567171260569 8.20562348038157 3.7533265145969565 -0.19191768148134045 -0.27268914440345293 0.056680997631812065
Ni 6.237010855505619 3.744431625191675 11.05900525183447 0.05547360758727221 0.8180345230898944 -0.719713995540425
Ni 2.5454742714555403 3.200946656936633 4.799475559987154 0.2657368814553359 0.6601194238062438 0.040933504989568215
Ni 6.119187382952212 1.4717883085001067 2.622003483956953 0.4023529621508941 0.9193311025485523 -0.11608839305585168
Ni 7.778720664975387 6.547794697057178 2.694119527001298 0.35698147599463037 1.1826228648975052 0.6800457304165255
Ni 1.0545474069136584 5.0205545993673 5.264806483829006 -0.7285344220455323 1.3367278464064463 0.13487133009030966
P 1.6727431469387475 6.3894430625082395 7.276013975372764 -0.7661044098795063 -1.4325436052561908 0.24378223156111564
P 3.0660040887563134 6.527692728707395 0.3481929561999135 0.7259898012468077 0.19800965331169124 -0.8323352559832827
P 7.23508747944219 8.684967421515 2.3852374984000666 -0.41864501444269836 0.2913689802011434 -0.3237389118914166
P 4.34207148145263 8.044159282991375 5.011932059210628 -0.2096526368672583 -0.6750061111100891 1.3577440436467971
P 3.476714166524053 0.6163411713321736 2.248177275858106 -0.560588677998757 1.017274449264261 -0.407881091057975
P 5.286076589602249 5.614498287254264 10.199294088845615 0.6480501513465355 0.7432974392873198 0.8410135004835709
P 0.04589825925468739 2.851422524307289 4.438190386336203 0.10794390957184635 0.6441109641931294 -0.30799373324201795
P 8.578065709645644 2.109187449626164 10.475108842690448 1.0120173146303797 2.1119110786587694 0.16786115475276897
