# total energy = -340893.97568278934 ev
CRYSTAL
PRIMVEC
9.05677036604356 0.00000000000000 0.00000000000000

0.00000000000000 9.05677036604356 0.00000000000000

0.00000000000000 0.00000000000000 13.25549890308454

PRIMCOORD
 96 1
Ni 6.313166821854527 2.158898623649341 11.626650027170225 0.23405883362576466 0.10773307911262091 -0.38096498339342133
Ni 4.763861310543739 0.32020574558706866 6.010666157020277 -0.008059379969366764 -0.382314041222148 -0.4652550009917536
Ni 2.897885816869524 1.3590137052350584 4.893412979232982 -0.2556247327219985 0.5951026526152267 -0.9210473139087105
Ni 3.4577663156461464 4.389644608090589 5.0397278245375965 0.10639507702748775 -0.38498953117178214 -1.1872318244244262
Ni 5.0800060002151275 4.5207594753771705 2.7077271453209124 0.5641332008169058 -0.4970567188833827 0.045167340565257695
Ni 7.150302237550686 5.878287870241641 2.677809915155287 1.2507668688635942 0.2538936089635047 -2.2503827245058274
Ni 5.157305536879559 4.687947459773819 11.418233811865104 -0.5421176157777631 -0.048631130744142055 0.34013483675093675
Ni 5.611946361837705 7.736746244357393 12.542048619917585 -0.11647174453719941 0.5170213349307676 -0.4517842201988284
Ni 1.9286211755849203 6.365940623863156 0.4695944588171557 0.7580594280878429 1.5379344093888805 -0.5155609483351573
Ni 2.3028922186613845 1.4914236907106275 0.3624863732337272 1.6913320804181518 -0.739710750377326 0.21847357759299793
Ni 0.4921648367107033 0.13656160909677323 4.760526607626358 -0.08627516634916109 -0.05866331816916349 0.45416326195396617
Ni 8.690786454343472 2.3349260161050975 1.4345236240383423 0.4845940676399976 0.6101243228350396 -0.03876349392144292
Ni 6.948553616726213 0.4644157974153137 4.936109312647994 0.2864597158249841 1.3378642740037345 -0.9056335504568016
Ni 0.8422226037154207 7.523776284818542 2.6534191263807143 0.11114544722827956 -0.7174917910781256 -0.24515777175240358
Ni 7.590796386906039 3.680227770723876 3.721282111637745 0.7025657658959127 0.8871835712817301 0.8534499264747109
Ni 7.6253207962516525 4.126672218332133 12.429866931470723 1.2593594956286118 -0.6733246096426081 0.1424008056981354
Ni 7.601175445959049 -0.3051108261074427 7.301035881207799 1.0592559359023692 0.16855098173094196 -0.3095610777291379
Ni 6.804677759731351 0.6294908372420961 0.38291301353753016 -0.6410276972821154 0.1096945737143659 0.34419923662829754
Ni 1.9021663488014635 6.37036032789271 9.38208341086607 0.1606119293895234 1.1101352392507398 -0.3540697016644741
Ni 0.13864194929265133 4.979303768443386 1.1925538851908195 -0.3502356726303646 -1.1078459289959308 1.1974457888429506
Ni 6.374689464216741 2.0846602754316086 6.902284387328294 0.3670036361173228 -0.5811806432174959 1.2659104093732523
Ni 3.5260543656109746 4.4533952160086825 0.802473343438148 0.4390577737710954 -0.899278297662735 -1.518704871735307
Ni 6.233412900370406 5.6310470909326416 4.710036923151036 -0.7357335108971329 -0.25225401647755263 2.108125129253776
Ni 5.082016603277752 2.7364307682325215 9.22870428453061 0.5501129752784139 1.2710816691615465 0.8142598865388105
P 0.5036741807286482 5.4948785456778415 12.33668091358039 -0.8832279290680919 0.6623441993717045 -1.234117176122055
P 3.869215401840066 6.095704704121704 12.59589202652845 1.6000437771251153 0.6137248957021043 0.5429884484184907
P 2.4286545345515176 8.380474324907807 1.4337284395838448 -0.5230737117724347 0.5778772898758756 -1.2868319900172678
P 6.389832384580294 7.639204825508427 5.808320695016404 -0.10315522993395139 -0.23822993428431874 0.39468464697235894
P 4.4845957905615785 1.1742465291962696 12.82432461043135 0.5999643515829022 -0.13641450620771345 -0.636596143873323
P 3.8858526893447602 6.2002198362959895 8.198141608793494 0.15991773153597622 0.054067728378681075 0.1738407693749716
P 4.894070500775084 0.7743846752470447 3.6190827956936973 -0.5918013561561356 1.939722757285556 1.7638911827328008
P 0.2952099645395978 5.542852259293716 3.5662066521778275 0.06337563604316827 0.3263740355214186 -0.29169756718515566
Ni 1.4220759985911724 0.9692646412846035 2.665323345594742 -0.030545476887024817 0.4490434242288976 -0.18739562524127082
Ni 2.1499505343436045 6.580097020344368 4.770455545182916 -1.2367224749553862 -0.5607455152915957 -0.03202103299128679
Ni 5.8765399135250345 5.5570442187492715 9.22853130021306 0.7683422980710896 -0.7191951469224774 -0.58308840176317
Ni 8.545434343748573 2.3548961951730614 10.139569057939458 0.6368676523671548 0.3260336214628643 0.3285391614935374
Ni 2.376886034074202 5.291671784794438 6.884852821046158 -0.6902147005297274 -0.08157518977033049 1.0049344396416693
Ni 0.4611417748606339 0.01358606150560202 9.19365639384707 0.6967712707013226 0.670675087834903 0.26313698193864354
Ni 1.2943393067206235 1.0996096830742337 11.436898004619415 -0.02570460385495573 -0.26124336446035656 -0.31880445070427677
Ni 4.344243017311586 6.66502235781389 1.6121069696749954 -0.3866041839570697 0.9118196246628554 0.08570181034419434
Ni 5.600480490318412 7.668367626687041 8.025806661691934 -0.9378296755733718 0.8633520160797712 -0.3243138105582802
Ni 5.4107230337052705 3.0099271253728257 5.0290571374728 -0.1988912845856962 -0.39855852810546843 -1.7005291735363874
Ni 0.7818537939215797 7.489197534849614 6.846252864951979 -0.29017187456924864 0.3246745363318086 0.16390396987723382
Ni 5.054194204140888 4.609470542937581 7.024327993229626 0.5642260176410283 0.15931506495497078 0.01051015550270448
Ni 8.256188262617707 7.175498173227363 9.238512767038822 -0.24924762555106106 -0.855957523387913 -0.021998872868594373
Ni 4.830854242319579 0.5363338010175298 10.682526980938986 -0.6146373802140447 -1.0632208340873883 0.03843902070248864
Ni 8.11482113106585 7.268927818245556 4.376037716012717 0.5984736259699887 -0.31618655346545543 1.2870158238932996
Ni 7.349179862110058 6.158305102179647 7.140737382170334 -0.09777133991421871 -0.6225435224349988 -0.17135091307358233
Ni 2.3647952453867958 5.238001362501126 2.6021342574508948 -0.677937168713955 0.23208731172169061 1.4041802236221494
Ni 2.532662487574872 4.981649472016448 11.38497553904271 -0.913166368498737 0.2980487062141641 0.09054602581037309
Ni 1.121454613646537 3.328263553517886 3.8297786001468506 -0.6964180011269618 0.1317870347380311 -0.20999407936707704
Ni 3.445005325937865 2.792483121181106 3.002198077383438 1.1356318408599475 -0.6784848136873088 0.06911228141662935
Ni 1.1153865773764529 3.4271725447202592 7.992589144337028 -0.04367532940076349 -0.4318160046070176 0.5536132751221885
Ni 3.65438880433798 2.688194408270628 6.842025164458136 -0.4123573816617737 0.2328064492759023 0.5969736443856944
Ni 4.149431882730225 7.004832388938607 6.158027965000745 0.11167715136203346 -0.395066712902126 -0.9936861204213595
Ni 0.5978935761390067 7.601220729811811 11.402486804905708 0.46545066194232737 -0.5517276280637013 0.09014441949658024
P 0.36970824207218267 5.614971323202195 7.961372267597137 -0.32710217193669466 0.0442168037265303 0.7281076189207589
P 8.531043135340866 1.6133006520337971 7.8770012044854205 -0.5807240152960516 -0.18737968440167085 1.6651070852833518
P 1.78157544889673 3.0694391646724126 10.487989360828307 0.10886796404801251 -0.040131320803247016 -1.0318598032776036
P 4.199751299919162 6.123617670964091 3.970552513227528 -0.4927822598777449 0.20441838505151247 -1.1756664881843302
P 6.839772745621763 3.879666915057495 10.327239834617332 0.5444321228435526 0.40018809328909144 -0.7131543400450363
P 6.315467241574829 7.8287992602516265 10.026963512630742 0.16166942411976026 0.48691140291926466 0.7751354097335231
P 2.4264084554545318 8.526741169328494 5.6961661768811975 -0.031239674740572005 -0.5863434183653579 0.9961116991437167
P 7.164249664201328 3.972381075202051 1.457468952232758 -1.1924329090093915 0.23447920899263486 0.42354245174431576
Ni 5.416872580910326 2.971897745823447 0.5086952543228791 -0.2167689361970654 0.1673435916864021 -0.13947566163154046
Ni 1.4259432396170322 0.9772074290590271 7.097908819905257 0.17805480745631916 0.7839650922100112 -0.7349431537853537
Ni 6.7713579008692015 0.9979293200828373 9.273653036781996 -0.14801892321586121 -0.8487088122452997 -0.8136214816238633
Ni 2.8337457678176787 1.5055160256901068 9.30134411274585 -0.24868044019368138 -0.37027922154480103 -0.06407471899272191
Ni 6.4105633323746565 1.9794024880720282 2.5896078380999192 -0.5345128068473117 -0.4440873657752029 -0.10317117077355134
Ni 4.305806083087351 6.924498834139133 10.315628149092149 -1.1490113474906472 0.7966306034928217 0.7230034649249742
Ni 8.182592945109194 6.975017500280223 13.317402369613733 0.3251926136188077 0.8417051272339569 0.5674720353821517
Ni 7.654492654200819 3.8365748007693448 8.221060672353307 0.11657741687712825 -0.14643332389629618 0.09135592330617814
Ni 3.2665326054329697 8.261423075996975 12.373676915609744 -0.9354881719243888 0.542523335856614 1.0400240842559507
Ni 0.0849896405404439 4.830727447531847 10.091066428923325 -0.2053036158699432 -0.12949798159353829 0.8482100182320101
Ni 8.583898448284465 2.415449763086171 5.8866345899827 0.9918326121523886 0.36156446737962245 -1.06098063190296
Ni 3.80530177205203 2.79269142690381 11.538713313492043 -1.0814643536786084 -0.7089711552016241 0.21419834725641174
Ni 1.1326487820492597 3.36742502938631 12.635738194250631 -0.6795914164879264 -0.256989474280009 0.3159785512197074
Ni 2.981045084081335 8.349907724293576 8.048911389048072 0.6989181418409963 -0.034835105401314195 0.2965278986942635
Ni 5.782032512811111 7.855534846922206 3.5371507208917317 -0.7233647049191347 -0.7478194955273896 -0.1070998164039962
Ni 3.2320715934812223 8.1914323531683 3.418473516604713 0.7394348710081201 0.5638771189420417 0.5979015555166026
Ni 3.3717541657103403 4.388775158117562 9.223003953144953 0.023760849865023595 -0.9117399204648555 -0.28197108392601117
Ni 7.095019710099053 6.228649039059862 11.305018745898215 0.8233808750034722 0.07674717225406782 -0.5789782362495384
Ni 0.24900413253554446 0.19792485229726378 0.4105732964815066 0.4552770638434353 -1.3503256396955388 -0.11995430376916115
Ni 4.582970432301362 0.26183214234591357 1.5707365474688497 -0.3133290294120023 -0.47030130516640933 -0.9547750451784589
Ni 6.1339242758526815 5.61227240557759 0.2976643493592886 -0.771056354568143 -0.6893963183934901 0.6829649609458496
Ni 7.598721061139358 9.002121998851555 11.38048247517168 0.4708913733419245 -0.5280146007174776 -0.10604849232134639
Ni 0.070576695883411 5.3011723371038695 5.767175786397012 0.04182696333811506 -1.3289654288522081 -0.7870830690137025
Ni 7.863214988350612 8.707804126211364 2.492617070900537 0.46509250727196033 1.3507719832043381 0.11837821753129289
P 8.395662529124122 1.6724957043640516 3.590079393676805 0.7839041570650886 -1.1455732683433755 0.3573661130275587
P 1.8869419175029387 3.178573249828405 1.6707097092111252 -1.0000645131438777 0.27309203626882644 -0.759523414227879
P 4.635961596803248 1.1510340262705596 7.957024112054947 -0.08594580803420038 -1.466898685697293 1.2112117322787914
P 8.331305117579019 1.7423324620933345 12.474564811177807 0.7156035729164772 0.490896869929574 -0.1743421344914223
P 6.459134792846987 7.617921414710371 1.3268621697741643 -0.5703187608023275 -0.15822594565585008 -0.050755890396628714
P 1.748355214510657 3.1235805390344478 5.878416476383484 0.3888341017288529 0.03971325942922192 0.5468085934955292
P 7.125441402384445 4.062477828656973 6.061726418040398 -1.2049989185998602 0.667915779922211 -0.4161327895438059
P 2.444331804377661 8.430621663456249 10.375967071543165 -0.6283079357226018 0.5975891664825064 -1.1351381890529806
