# total energy = -340871.08903613494 ev
CRYSTAL
PRIMVEC
9.22996716545266 0.00000000000000 0.00000000000000
0.00000000000000 9.22996716545266 0.00000000000000
0.00000000000000 0.00000000000000 13.50898992602090
PRIMCOORD
 96 1
Ni 4.297315761888093 8.754725302737077 4.695522385523375 -1.251915894866373 0.3453107245249214 -0.5342538967589703
Ni 1.8708497168590417 5.233428252864894 12.449358365336378 -1.3384453433181853 0.543916873770031 -2.222710969622172
Ni 5.739055079342648 7.080021616244015 6.974988282887811 -0.8014061705045941 -0.993656809845321 1.374857306288316
Ni 5.7719229921059645 2.3378768210182908 8.380355992076392 0.6195389312807201 -0.17232150451696776 -0.8164656359408777
Ni 3.5187588089258446 7.062955407117542 2.715374167521572 -0.10788760241261419 -0.7141979508182023 1.2792433790367324
Ni 7.971756425511738 8.403469675632108 10.336066026246847 0.808528640481988 1.0108011828350913 2.3191720753653993
Ni 5.19767136040629 0.20979069069678882 6.899865580843262 -0.7925302081712029 0.882478709606893 -0.8099550885158696
Ni 3.4638681947153844 3.35264709143036 12.21236973065204 -0.8578981920540516 0.9369544720572701 -0.013350710275293137
Ni 3.3880255552387832 8.22815568096026 10.682855272282968 -0.656735080715043 -1.0177290203031764 -2.280783448284872
Ni 1.8843900785618741 0.9178454631335327 0.890952108059543 -0.15993984302316328 -2.075396014451871 -0.8971280840889516
Ni 7.62614030829118 8.66301634985409 7.122020735437197 0.9355228818170663 -0.26502931386535 -0.9389226515272346
Ni 1.1780022381793438 6.914546766476885 3.834000027490745 1.0526474294469161 0.21624674514500825 0.18064108012625663
Ni 0.5292398512523652 5.0070356203856345 5.268505819746588 1.5872620519794147 0.2248671398241676 0.3117154050679793
Ni 0.6003825914930548 1.1862076789113263 6.115222387590047 1.2466261072223435 -0.48480695498175214 -0.7546059223216036
Ni 0.6108835250372352 7.104693318242428 6.25851208848947 0.0963780591111179 0.3936436073023543 0.3252990572896849
Ni 7.099764515822992 6.616621889146262 9.463520318533446 1.3260132882024196 -1.3006436990893793 -1.2661940020519418
Ni 4.746676709060823 6.298981802137893 9.466032715571966 -0.481771510589538 -0.8042104727226084 -0.9028521310569225
Ni 0.7102302756769331 5.076518812545773 9.411982951362276 0.36801407965970817 -0.4384031709062321 0.6671858437347219
Ni 8.661225736241036 5.193074836801648 7.524331925431887 -0.15248107275227288 2.4220660812181642 -1.7934493560058917
Ni 0.5800563579947743 2.6937843515303688 1.7522104890337538 -1.0726776086249137 -0.09321020290609754 -0.1155209505881559
Ni 6.081376098316506 8.563231175778206 3.141015945298299 0.35368455041091346 -0.5052019736983364 0.4887042331536294
Ni 1.871412744850775 8.589850400829992 7.743731011856452 1.0771143042400286 1.3991799421940805 -0.6119482634176557
Ni 0.40696124740838147 9.294853746150883 12.444914136188515 0.5916303777959102 -0.7599209067766138 -1.7814785567972606
Ni 6.851367641830745 2.9018001195581355 0.5427036042284535 1.0988653227638754 -0.9210496279015556 0.6796397532273586
P 7.130084957672893 5.084567343837437 3.6957221987144573 -0.5146734035238814 -0.5022351777605285 0.7886095329605579
P 1.464675785642379 7.485632519468945 11.843669465770413 0.4783216043677246 -0.38204458961084525 -0.5248626853520574
P 4.189011328199588 8.072695345472322 8.352230436397544 -1.9401541883960203 0.15125928453002982 -0.6547661299141304
P 6.511787923078933 1.5695559015450955 10.370351661953281 -0.8612547672311103 0.06989801054271833 -0.9634985410943858
P 8.715774841669624 1.5019925425370972 0.07499809748900133 -1.6143961891920455 0.9806480562904789 1.238003398550339
P 3.313124372404097 5.496565384280061 4.280566140632381 0.1365271205261778 -0.11271947658361878 0.4129736750895339
P 8.794820279722153 3.9478415184290987 10.924071231888847 -1.0487799760717098 3.0671468655237306 0.44356003251682324
P 3.8429244826580717 1.2726463205930072 13.263058417946572 0.1483678219148477 0.046140246001488285 0.8052689958941098
Ni 5.138294982196118 3.988554903208372 10.207068929367082 -0.9835613732825319 -0.16682397173750624 -1.2024956925620323
Ni 8.171326773663505 6.82593908253197 2.8675394047628093 -0.28741179532560823 1.5349516726114727 0.01189752276853435
Ni 7.107019269945981 2.8003166315399746 2.9948889525192244 1.0032714501169495 -0.3697701431188664 0.38654916234941816
Ni 6.525392894551309 0.4827586600463025 1.191401381385889 0.29986030550160614 0.7567556216747547 -0.6199626490817
Ni 3.3054450397955377 6.891102650099793 6.134824068672736 -1.2525473578027846 0.7804804760955203 -0.26500565971626616
Ni 1.1395963451694695 9.059184996758638 10.102414024661059 -0.36872010458779725 0.12003323663621261 -0.5931812672227977
Ni 0.3767709480942747 2.6791917735806905 4.0233011142719795 0.8073826998030031 0.16089217963410354 1.6163725961921258
Ni 0.0634006438560027 4.775132697561051 2.9075937698927423 -1.528391760005768 0.24630911174802744 -0.10985578188257855
Ni 1.8286687673144306 0.707209307452436 3.2725937409729595 0.3570745499290689 -0.7613715231802113 1.1579374463356833
Ni 1.0914251469914993 2.780647571697619 13.013722856302534 0.49451724029098054 0.2689037092190917 -0.5001793236727644
Ni 7.272447969877724 4.875407059892047 1.5980054290683676 -0.7369529851265307 1.8365752406610887 -0.6046653566029974
Ni 3.1628328184796106 2.80179342627239 1.3802677367177694 0.8636497498258481 -1.6533365750109847 -0.2479880421123471
Ni 5.538127926030473 2.49095582500021 12.309607433814506 -0.03954048129678351 -0.7674406121924267 -1.7133980590792557
Ni 7.476688681370755 7.776754911063382 12.827515654485708 -1.1171844327880374 -0.6969702740860061 -0.3917803288413705
Ni 1.1703044456366294 2.9907954621203108 7.836673088341007 -1.3863460236542058 -0.05409472496187458 -0.3120851297025722
Ni 3.4402671688979733 3.3724915206471904 8.38128821875123 0.5096736363164448 1.0363222099243312 -0.07266477465457809
Ni 0.2448073397957702 6.6039583743158 0.05746485202840112 0.9502295918996216 1.2599112543670237 1.275117786904133
Ni 4.391313746606325 5.080810747236854 6.88749096398233 0.9148866936239534 -1.696039770306466 0.5142280884563467
Ni 2.3334556667881223 6.821222569355318 9.249983184199861 -0.749144127876084 -0.3840891308446998 -1.4845549653264756
Ni 3.9006579267284307 0.07973491659322325 2.0388581925889717 0.9018594281263499 1.1005913043160465 -0.287251358488344
Ni 5.4401610554688755 6.313906658902365 4.438729933477347 -1.3933707917114713 0.2652213752714981 -0.4423264172200381
Ni 6.078127149905192 8.925295094331041 8.915487331314388 -0.09989327135322795 0.5284871694785221 2.159173354079843
Ni 5.392866704163277 3.8229046840667675 4.6872274141107395 0.9239063806240605 2.638513372409753 -0.3435765154426341
Ni 8.354929278771033 0.8357467519717373 8.906611794972571 0.35983411495207707 1.2748511635063078 -1.0457833553372313
P 1.6488505487087173 7.777401008758812 1.8589449053223592 -1.1577186454566577 1.0808542308984355 0.6215647034614973
P 6.35780438232341 8.263571064636995 5.302724076693357 0.8464734951568776 0.6022359212258982 -0.775982845335483
P 8.001273860225888 1.667744291316555 6.919304814505385 -1.3889729197540917 1.2316489170872207 0.21282563527860118
P 2.222280713338486 1.6566591008563631 9.21518436232391 -0.20196555263564572 -2.068786479555153 -1.3514571821968209
P 6.756594339877996 7.464265145684311 1.3096631035577033 0.9527826973387785 0.37912535908152123 0.6617685293738925
P 5.195206959196572 4.399574567140772 13.474082232244928 0.5364066814359149 0.5102662755951213 -0.5010699538078338
P 5.899804185966048 7.23189149453877 11.066267181689573 0.5731364327567807 0.6223594314486508 1.5678723345988934
P 2.139386379014602 8.789162309903586 5.355287816203555 -0.5595970035094492 0.057507607298165474 0.6188010246734311
Ni 2.919937004865611 1.383922803680497 7.004708776877668 0.5216092114117662 0.016864894076138698 -0.46196398894530766
Ni 7.525912095795571 6.340082845534426 5.550046582517772 1.3641715444396958 0.011411070050419057 -0.357438618136707
Ni 4.943930335476115 6.492211162907354 1.0563623480571298 1.9093276899334666 -0.6929940630470776 -0.9673310274665986
Ni 4.027117705658566 6.204134660448524 11.850194129497567 0.8572849839500848 -0.6008182149427652 0.9441558749017159
Ni 2.751748544777668 0.9619194789257585 11.479993994965831 -1.9293301011973223 0.03535755356368749 2.0915183739350303
Ni 2.2715410476316125 3.3064787961082285 5.5031574267668795 0.09640042770862108 0.9049984879759639 0.7962097139053191
Ni 4.759478673397449 8.675255286198981 12.215950034881438 2.083980670797088 1.0936637239582776 2.7191981891553296
Ni 8.679104182470338 6.3407566331310905 11.37483974904091 0.5802259926137104 -1.0644364516620441 -0.8304400958430987
Ni 3.836057387152341 2.397742387483574 4.0715692271042645 -0.8486319362607772 -1.9161012612118746 -1.0958504471969515
Ni 6.3352094229174565 1.8235645955205204 5.390573057344494 0.5439287008445729 -0.926814812520107 0.4732393047488107
Ni 7.068114958713918 0.7254061875459153 12.292559684622189 0.04549155667389585 0.15403041951726376 -0.18238223118707944
Ni 4.134111484022051 1.9321643881555077 10.121488674623617 1.9477620826502648 -0.559564864719933 -0.08953815337114902
Ni 5.041029589132418 4.1509930938069735 2.1953725903171724 -0.37874972090965736 0.29169602452325893 0.42118500725573266
Ni 3.1994850177447423 5.032205740606237 0.7170355304032441 0.6920324704647566 0.15484340233686236 0.8728203605815227
Ni 3.0827074742790055 7.6005548395520846 0.37755364930245483 -0.9120785347511969 0.4524483361453885 -1.9487550426911535
Ni 8.07489207763679 3.3973755118883875 8.531210573992611 -1.1289256324843655 -1.774138571492422 1.3253905670167563
Ni 2.1577632434660945 4.18014132983802 2.9316396801232942 2.044646906194472 0.5013856852760397 1.3720861713010821
Ni 1.4045333201647676 2.824591444954051 10.756330425204167 1.5984643484531373 1.8724477861879818 -1.1480106741402742
Ni 8.764287548629467 8.672310926701229 4.588085568740165 -0.6516828630031164 0.10225868626161098 -0.23910770890358174
Ni 8.602089337174883 1.941948153257759 10.95375111402356 -0.7511850695655128 -2.02718320219207 0.7908057692809284
Ni 8.952449657473327 8.609131802055089 1.0527857358145618 -0.5380215913315185 1.14926151582824 2.382781938906561
Ni 6.450427101947079 5.071783839434966 11.554185393332252 1.2895306198953531 0.7279083584257593 1.887800357384652
Ni 8.582152608287277 4.519453379544581 13.213966992050963 -0.8980351692842535 -1.1067023023097906 -1.843019967845168
Ni 7.964132472705645 3.754510628021786 5.1729978124144615 -1.5577378172680525 -0.8196998266074593 1.1660965851077079
P 9.295315244504762 7.649519814898729 8.380936557005574 -0.858238863222922 -0.18444734124622428 1.2601089722001269
P 6.503250203532157 5.210436404874605 8.063556755068795 -1.123322170254659 -1.7935380590649563 -1.0219767398359365
P 2.7652889064805004 5.096972419589725 10.415823094761056 1.2478062435733737 -1.6675959131434763 -0.2910977288176277
P 5.20956878796931 1.9502182037592843 2.466701317513705 -0.1697951385506882 -1.0228046350538706 -0.4624956930790615
P 8.915151360512763 0.9927567989320045 3.055463380456067 -1.439338259580521 -0.8435141554182376 -0.4603832747217491
P 1.7358337584479764 5.068350291682101 7.324993249453767 0.6365609197600134 0.35524006782349143 -0.788473521603326
P 1.070971539947548 4.757678829817318 0.9002069960482479 0.041539514004683295 -1.0076556952275741 1.3697971181565893
P 4.522776167692515 2.8009811891695615 6.328745676973016 -0.6314133141208029 -0.6376605805820954 0.9441005961837483
