# total energy = -381164.66862331075 ev
CRYSTAL
PRIMVEC
9.24318193551366 0.00000000000000 0.00000000000000

0.00000000000000 9.24318193551366 0.00000000000000

0.00000000000000 0.00000000000000 13.52833107778165

PRIMCOORD
 96 1
Ni 1.467863468414226 4.53232943983273 9.43242566846253 -2.0107173433265633 0.5116348738078736 -0.11231118540160658
Ni 5.804662642758877 0.16794953564077533 2.0292499570438767 0.40376166957296267 -0.09092526352666276 0.18413700909465708
Ni 2.7780197708192986 6.034984244131287 8.1554727233273 0.12811755630624386 0.109826728416856 -0.20991206117623204
Ni 1.6962255152681782 7.928856713494747 13.255829877834552 2.506657689217315 2.0147359775676525 -0.656009001182296
Ni 3.0328542900358237 9.209434834489127 11.12450838969687 -0.13698837643331246 -1.4344937870040262 -1.6052263497673194
Ni 6.6432410584788615 9.180503675796789 10.806390427033994 0.09066429655579225 0.020755487379796513 -0.32478072289236964
Ni 6.754353345584478 2.079253721354996 3.6607121954769988 1.7063552932998611 1.1216134150936685 0.6088410852472418
Ni 6.139182631332154 6.535493289508713 3.7496205115248733 -0.535687029661071 0.2527522962702099 -0.8377194031133315
Ni 2.7466206826155073 6.001117226416041 11.838181842592165 0.1383888563252649 1.5191722982900289 -0.13212770590690148
Ni 8.253246174934862 0.8528387964326167 1.9133524747769113 -0.7344993813797157 0.011598246360560671 0.6797263994038938
Ni 5.211518430475829 4.681412717324328 0.9676058375787923 -2.3631502807185623 -0.5957256309112062 0.1398402440598108
Ni 5.299504276990959 5.648434385820258 11.45263856676727 -0.03196858248679656 0.11708238153800482 0.6311780581815452
Ni 2.012619624545713 3.764618498136434 4.758076590586343 -0.5733143530955417 -1.7390113887719856 -0.8095611955115607
Ni 7.831387362564816 4.442347066072379 7.970405739513255 -0.19175055977585687 -2.7725359813465222 0.6159748680785456
Ni 8.208490689187803 3.1256558342118814 11.517181855878084 1.1698447392962303 -1.0478849750612662 -0.7451722877125295
Ni 3.820271695096996 0.3714594398825595 -0.09182176691682832 -1.2481006348853407 -1.8544094406290321 1.3891192155239689
Ni 2.536467703692515 1.445448752813933 8.421386120118468 -1.2634434358899982 2.4628504622243774 1.1175173906474236
Ni 1.93742634149071 8.703176530099997 8.290702320100662 0.060365902682567 -3.18326328360404 0.22543561073312787
Ni 0.25227323356999226 5.3145336904202685 6.7306824815924005 0.9091284509839375 -0.3109659284964644 -0.3446905744424193
Ni 4.326982915388976 7.585796025039133 6.550958981113829 0.18560510899975133 1.5555323249763016 0.8382469934820274
Ni 6.423040741057924 3.7878281273621397 9.896893699791022 1.6972849555674767 1.341028016443697 -0.01335199582687378
Ni 9.147145033074539 2.2994910115026976 0.030580142305982966 -0.716572878808282 -1.6847814237838274 -0.03766640420252223
Ni 4.81685305864024 7.966384031159569 12.147371816059858 0.5485453736809779 -0.22447838902618114 -0.9101651197785681
Ni 4.9166609345379575 1.2766220392306968 11.596133416608582 0.5319571303049936 -1.6104451749640971 -1.4202102805018186
P 4.31978247685181 5.742354354980908 2.8161654573392365 0.0003080181587220502 0.5970811164978362 -0.8711401446656224
Ni 6.1121832976132024 3.2295214668718772 12.088632320732723 -1.4761297173772578 0.3910647908315846 1.4396627327994753
P 6.6772559671011615 3.3620132332284123 5.794806638121931 -0.6620310390066598 0.015993032994146648 -0.07546753421069584
Ni 6.789209383740645 9.296145121930918 4.49488253784862 0.47961641191974824 -1.958695184623001 0.6938913780503663
P 2.641913920421645 4.895031889381387 6.285262799092396 0.2960985244663288 1.3303062591508186 0.5154406207072091
P 1.7357308738148385 1.5192463154336189 3.4602765734655887 0.34861819163159957 -0.010439964386401374 1.4261893809033892
P 1.5510151309050442 6.856980391897901 10.335563086702203 -0.3371446437743613 0.8102849610514625 0.01131028280649665
Ni 4.595164588967077 8.422544290784332 3.8386637780254347 1.1086370574386584 -0.8794692333566079 0.6159309022144877
Ni 5.577150968620482 0.9103443270040236 6.647591824100742 -1.3334633167225616 -1.061890802422055 -0.6203130904425833
Ni 3.594969141382713 2.288676488924412 6.615163969774759 1.8028022579757015 1.8524170927893515 -4.211284172751528
Ni 3.1128910002968277 3.6909041241519662 8.003806900871282 -1.2722250387373704 2.0046641951539472 2.1229506243023826
Ni 3.5475885920354546 0.9607732776729214 2.260002290683081 0.1124821637618321 0.6711093471588442 0.21596469512821515
Ni 8.72560048888198 3.6392717112269204 4.825771804653735 0.27415441609506974 0.24407893686592802 -0.2794804562936736
Ni 4.928935879823396 3.749265573347945 4.365795035308824 0.3688052081024358 1.017024538036984 0.9434596201656398
Ni 0.6952573376944594 3.101410968636802 2.398208191960894 -1.3120293152185016 -0.9412165897677339 0.7720392873067027
Ni 6.525482923737529 6.282072977090887 0.7020972921456826 5.203170263849671 1.741405600035775 -0.057280064668391674
Ni 8.739918177321096 5.203587780585087 10.492708267264552 -1.5237946275533887 0.12188648779486752 -0.9835012094685578
Ni 5.17597839687454 2.77320407315837 2.255889999148825 -0.286281538375907 -1.4202622167856767 -0.22109918814130308
Ni 0.44842926245854225 8.249086743173983 3.0691457943085783 -0.1283690101954176 0.2656929155912779 0.6725481364878998
Ni 4.619594318175974 7.1282030722522896 0.7551864305052051 -1.7377770021442525 1.063428322112504 0.011481004056406034
Ni 1.0455979560497821 4.12644284542446 12.022397529372485 0.7947657823699409 -0.10427006026468495 0.3585205383469761
Ni 4.547164746446533 0.6144026058538155 9.059002976788834 -0.391813496072151 -2.199558956985741 -0.05981234417194215
Ni 8.562846545669627 7.9371755770165064 10.151172703787925 -0.4076756599153883 -0.25570649380252736 -0.43411611349510393
Ni 8.814288817205613 4.466425554377024 0.5625714645224168 -0.16395050684445311 1.2165724823700725 0.23327079050683053
Ni 5.430018002465653 3.555306648747308 7.742669456059772 0.6668274319540387 -0.9410674657843793 -1.3608782184004047
Ni 6.219783175676299 0.5497973874256725 13.185224910170882 0.8950174655038521 0.2466909205674784 1.0751844342071677
Ni 0.9322118462482185 2.8762193331028088 6.759281810062036 0.47368282004413265 -0.16541860674954736 -0.8963423549628627
Ni 3.0418479058210135 3.97426310206643 2.772239084989846 0.3776860555318334 0.17033275622171307 -1.528770226391109
Ni 6.301640792730399 8.339836301014673 8.327174990734557 -1.5085780677139504 0.5299632398034163 0.8765052656322775
Ni 9.297993758269087 2.6267551024486635 8.755900562782731 -1.134847397285439 -0.7627393500620153 1.018964178261858
Ni 2.109968814113665 3.0658986645805855 0.5445001199986508 0.2177032750858767 0.5830310661626733 -0.31563993693336606
Ni 1.7783234550462403 2.495843920161262 10.377933831573024 -0.952752101211159 -0.055399302705911035 -0.7033972606582726
P 3.1607891678187734 9.680384184819236 6.503108878136676 -0.7400475648914545 -4.661271963171567 -0.08340632944179828
Ni 1.9392195187387335 7.154823435521916 6.397371501184285 -1.1000356889228926 1.47065918118099 -0.21326992190487137
P 6.380808643912465 7.3777042756331985 5.810877758127798 -0.7209211284746487 0.8932883986278873 0.1912533084244642
Ni 3.0429478444422235 7.870051591577608 2.2463251547351413 -1.3437227896670407 -0.20275976640216692 -0.017751153335833946
P 1.0793078396762843 5.1717450196601344 2.299504876275234 -0.5295379793405396 1.1216933764019843 0.19569951712127587
P 6.8166986060892105 6.270315649980135 9.977847333675758 0.6243270966979828 0.18728043981964523 -0.2754857333119836
P 8.400915245627761 0.8736082256919395 11.792361542314321 -0.01981549206403039 0.707343389790214 0.07964480551683703
Ni 4.042884482939244 7.322845992298049 9.446359764861475 -0.2939963905216614 2.2177076028703095 1.912118365304726
Ni 6.5998258340769755 1.6906426335269091 8.581331060414975 1.5326947582564958 0.1857701738227059 1.3515530843447368
Ni 0.7509410371546011 0.5077926725498084 10.37365886004101 -0.17922183118122684 -0.19034108102283995 -0.583258094571815
Ni 7.76615822937254 1.5845771236244928 6.47323861218455 0.6033299256210254 1.4814534435830164 -0.3499803620864489
Ni 1.0104461360795085 6.043774509919278 4.663715721659041 0.0387732641134558 -1.1153610064260533 -2.5792833831038418
Ni 0.4838287996981305 6.706806418966785 8.57748959410426 -0.6489209839872631 -0.1448955470955311 -1.3286486689427375
Ni 8.985463298938324 1.4135690191622179 4.481746128029595 1.0225961185874906 -1.1200944073459806 -1.2052639993357888
Ni 1.3344196543435343 0.6447978845259816 1.6174070563540268 -0.15895253940922946 -0.035982331631879964 -2.267228849528889
Ni 7.378757998345955 5.408102418676665 5.386845873742235 -0.6257514878493352 -1.752746221859575 0.2959946518986128
Ni 5.089545404883473 5.375002585041758 6.21671443935494 -0.5582983393026836 -0.2382088512383962 0.23402489506403565
Ni 8.500898741977602 7.266397881712074 5.286113679675435 0.6108887118048898 2.97583825051572 0.38087345212087953
Ni 7.265575238541589 6.486874153814881 7.683320835059211 0.8318531741405415 0.43393382228096883 -0.688088398215344
Ni 2.5067323881930745 8.929190808804476 4.566055036868107 -1.2819571784234696 0.35297826837250823 0.34959083995751405
Ni 7.301041326689352 7.094456215899024 12.032421759916204 -1.7377407495896782 -0.766081527061371 -0.35082574080587964
Ni 8.428182631615746 6.216187577998562 3.0509358020594495 0.14256998428614803 -0.7724586342323084 -0.38383870539679055
Ni 3.305731499912873 6.3967993482376215 4.590974654706619 0.8008461842360659 -0.48878162335878395 -0.3900286362575863
Ni 0.140481572610099 6.947147629292068 0.8237052120612506 -0.6110522339659477 -1.5630350611112502 3.520184498513686
Ni 4.314273540564068 2.520440026640594 13.685123905556713 0.897978347904389 0.3927897439424913 0.1556568993770932
Ni 8.229934870710558 8.65382718305259 13.384051294249918 1.0591021839333243 0.5704964240307723 -0.08932423758813005
Ni 2.567876035077997 5.848419864883324 0.7856926273576613 -0.6789658670887855 -0.4701095008705775 0.47263895216065055
Ni 3.6145554433856075 4.702903114755537 9.990307142595011 0.27835122778523674 -0.767559140048162 1.2907850611277447
Ni 3.5008827949516284 2.874768153577346 11.511973322995294 -0.43405492123986533 2.0246861468018293 1.1703669303482878
Ni 0.22104514422748126 6.453570970182776 12.25887231679649 0.8995816878357669 -0.36474775020361055 -1.3687591638103782
Ni 6.947175358837142 4.261171461750179 2.6851978916435213 0.8229453301279505 0.6014455641141189 -0.08735965766259149
Ni 1.8439962609596754 1.2292137603383662 12.483578685291715 -1.464898881658445 0.6734189691286273 1.0062277045317962
P 8.066071745695304 0.15642975829947844 8.087844984486251 1.6768050904465701 -0.14992462487900632 0.6847750175713949
Ni 5.153415790367194 5.5820868276433915 8.740573518902975 2.000888273051283 0.6448077331498379 -1.3571529470300177
P 6.8385772171514345 3.281264797977213 0.5983730801655566 1.2155854358664548 -0.4717992298681745 0.702488375690758
Ni 4.697107639835378 1.419891355438754 4.371058102963589 -1.1638604966883375 -0.17441772492436414 0.2292092188429472
P 4.8427154810112185 2.46981512051985 9.786164080407405 -0.8036000928321193 1.5116603061837 0.17523456439870466
P 3.7349386417271395 4.570891993846925 12.948263007071771 0.06374253246428377 -1.2215655647092898 -0.0588432953904535
P 7.577911591056844 7.934005165696547 1.9176681163083655 -0.16300485510173218 0.22172602309202458 0.41842698489462127
Ni 0.27491533143987984 0.06158916824242102 6.455976046058733 1.073502161408738 -0.6033921463175286 0.20514549302552415
