# total energy = -340884.9835676556 ev
CRYSTAL
PRIMVEC
9.15858745441528 0.00000000000000 0.00000000000000

0.00000000000000 9.15858745441528 0.00000000000000

0.00000000000000 0.00000000000000 13.40451850374208

PRIMCOORD
 96 1
Ni 0.42772160222072814 7.609687117453082 11.90063827321761 -1.7868341646822197 0.9980773075105197 0.1368230545000418
Ni 4.611376242897867 5.713813728096767 11.738175922650647 1.2536845567310215 0.7716086275271873 0.4979198382146264
Ni 2.3193206788270495 2.784228893558603 8.422112436771926 0.007657259434941653 0.5571385146666276 -0.3756266018996434
Ni 2.011005991842237 2.765279776181833 -0.7317445751394434 1.1729958833307026 1.0403269602083505 0.9225789200618886
Ni 3.138785288438683 6.888072855861462 8.565755721903512 -0.051518736704582235 0.3919518214222282 -0.44554672392954875
Ni 8.577649063530131 5.16790696620226 6.016778884168205 -0.7005168537866839 -0.32045304205129327 1.261779417924014
Ni 5.149342509497227 5.674807304265127 7.227488274014971 -0.49727320576956296 -0.018372846080232874 0.8658765822738377
Ni 2.5235022268201397 7.085064912728035 12.959528506940886 1.2948713153819764 -0.6081044641915334 -0.39301137303499406
Ni 2.047347266733983 6.500527229086203 10.622558314292295 -0.13960807344434667 -1.7000920859989688 0.6224951856955666
Ni 5.343348866864125 0.27957046035987637 1.5550713610670677 1.1389709325355093 2.1205816098495736 -0.15338841505789066
Ni 2.6904724341163644 1.415771078091141 6.4165951863718815 -0.26004394483561666 -0.367715831692999 -0.6196240347953587
Ni 3.522621687307905 5.041481825424623 0.7975435306163232 -0.8280736524934513 -1.2237566588233377 -0.2758546866156282
Ni 0.16216194889950927 0.9650220395144864 7.306454530628913 0.4446468378230987 -0.6910307686731195 -1.2041725660438227
Ni 8.206213392030724 5.01432661371746 1.4713334804060996 -0.36187737063435094 0.45159370145457706 0.40499014266342503
Ni 5.917546505306165 8.237554078189886 3.905084298063779 -0.8867737374378213 0.8698916169705019 -0.08548018125169149
Ni 1.0574230280182224 8.505222954194464 0.8868654020286768 1.1127937599195092 2.325079699099086 -1.5898418968914492
Ni 6.253089672697518 2.1864570510915255 3.82315615427746 -0.11462389269518324 -0.9932192080872702 0.16258653661739098
Ni 4.721682269812228 3.2584880260483406 7.165479142013445 -0.47727696515329415 -0.3676975768605539 0.42015862287374733
Ni 3.432968275030863 0.14448770689192583 4.3397133069184175 0.5581422733407936 0.5543555526048517 -0.3637355068890123
Ni 7.09386631524088 6.274007886370086 12.702818796645852 -0.29265273200957337 -0.3058892853045055 -0.31036711857020094
Ni 6.0187305791479 4.174447512741485 0.5020123999555784 -0.7483496569992467 -0.1834086155690648 0.2780874326008888
Ni 0.7781630437719624 5.253787040461307 12.942089640630057 0.2592695285634373 -0.10147527112836716 0.16786655406940768
Ni 3.5555376505037044 8.165824021498317 1.5238387462394891 -0.6792466315539979 -1.5083759790054734 0.2592096218597794
Ni 6.3644306199906024 1.8960840368670286 12.479123962290776 -0.005892197114718885 1.2115598596468296 0.6823147289563604
P 5.054001614430928 6.387510260294836 9.423363100552864 0.8363996558606435 0.06570094174223524 0.8490384276705764
P 2.6978817313410173 4.737911286724571 12.004510392467797 -1.0307580855729925 0.1534292955981551 -0.4131940186304561
P 0.3965091362854786 2.1394460218527827 0.6479059500168296 0.16670724365398387 -0.8479634494388428 1.531263682236924
P 6.85610022717016 4.246397375531192 7.13194131073167 -0.19411211802949796 -0.4497407074062384 0.1282250284183856
P 4.787908015462988 2.3361724796841083 0.7704780730658979 0.010443306820511047 -0.20981050260136125 -0.48242302813060783
P 2.4342701095645247 9.056688978654318 12.053007860445181 -1.6805257338312671 -1.316666556880197 -0.6148808636834184
P 2.5954612481972688 4.79934709115346 2.9684035073276465 -1.0650573730754946 1.127078809083614 -0.058174551458203036
P 7.694715443081855 0.3056953309820299 11.548099515146665 -1.2851656580584383 -1.269533607948136 -0.3945190679287721
Ni 8.413050930376286 3.366385344470633 12.775015025437218 -0.5002759971516287 0.44726807749602965 0.27412690529124406
Ni 1.5312608654865332 6.396018588010166 1.7469978032303584 0.3221299155330839 -1.3960038584589443 0.6649471842121902
Ni 4.25398984450429 3.5049639307576816 2.833071640281809 1.6108501237119999 -0.0501280270046427 -0.8807979794703604
Ni 1.583528923905685 3.8348379325346227 6.14892081521485 -2.0094125084722103 0.4582268905003786 0.8431714273668381
Ni 0.8040003347490553 3.651428060815343 2.3006179274519396 0.5438484824259407 -0.1691652182761732 -0.7635083670175561
Ni 7.444914971138213 2.5352801702452368 1.803510866919753 0.5326068480738504 -0.45423499573216614 -0.7864438927678069
Ni 0.9633185422539358 8.785713852590284 4.9024883551273435 1.4502101692980185 0.4325230579763712 1.3524539988924513
Ni 3.0654066860110953 1.3493072091674012 1.6559541173826096 -0.9069180735961799 0.7175969491974222 0.2315509796022464
Ni 1.4198466494940714 8.579114437517703 9.73298105452787 -0.5734061414783995 0.3457892068232367 -0.8442479482604687
Ni 2.5549619746157917 1.483507990666583 10.450189119710616 -1.4647109340173547 0.5487361495355453 2.067579089510613
Ni 6.640323907500418 7.016192335312226 5.985184505137445 0.19953174638317248 0.8290370448479851 0.37586365761111395
Ni 6.835136220560481 2.229593997850629 8.177841919913877 -3.4162908477518132 -1.9521920933971608 1.086531740899187
Ni 0.9547827387763381 3.5960460826726037 10.402295202644362 0.9932235789626442 -0.595791194041819 0.5062167881160959
Ni 3.5133715140113666 4.705618107473488 5.3739248109735245 0.6027056617734653 0.7496447216615865 -1.4685063965040452
Ni 6.039245814973886 4.081872511076725 9.681064685865737 -0.21726798732067099 -0.04382805292854387 -0.545138404881958
Ni 7.883858590527504 0.45480446108725586 4.964631202505236 -0.7991631401066881 -0.8391684768550322 -0.03853980794641104
Ni 0.45485391745933634 1.3466603774023522 11.886241889648472 1.1094027319600894 -2.548302875561927 1.1760565245338972
Ni 6.5825790138027225 7.39485413228784 1.3522883293733647 1.0747794854592652 -0.030030227813503126 0.8659187483656828
Ni 7.3051091341365755 6.301630186035788 3.7288684967647274 -0.22550014542247618 -1.2676965547393975 -0.6309003790401264
Ni 8.01032036565483 0.058530700498530666 0.32357564120661547 0.3863311328013411 0.7385203296136507 0.9316639130822922
Ni 5.229342770631148 0.9133456258428162 6.221854310293713 -0.09485313782615923 -0.25171588458589556 -0.4743896163031701
Ni 3.901228532758984 7.776226871140459 6.389719311581098 0.9081421758112683 1.3064291954229048 -0.7969530198292468
Ni 2.3887061371385077 2.8001739942608532 4.173577446936365 -1.327826173041442 -0.6586564661074722 -1.1787060463416024
Ni 8.065317683125832 2.22101240143592 10.618080680901526 -2.1820821403572164 1.5455207063765706 -2.1472899723786956
P 6.394873764582377 4.508937442579273 2.8226024589993606 1.229884111877314 -1.2445306581458955 -0.6937543382518697
P 4.287885776554279 2.332197652742824 9.486927360698697 1.685400802535381 1.2305633973325258 -0.6368154589729808
P 8.684712950496994 7.189811677077052 5.126531215804467 0.45946076290747967 -0.3003375022483408 -0.04195449005491485
P 4.716699998254489 6.70845463933502 0.29988054382760204 1.4407281979495123 1.3282540046074802 -0.24188141499397695
P 8.749903775769033 6.970646680061054 0.6575710073235986 -0.3120257372195465 -0.2540447898293883 -0.37488663840982533
P 2.0036150117924287 8.577530001893642 7.284766079754129 -0.10743740224907303 -0.3267553301202373 0.28629387967108116
P 1.922460768643296 8.817210234735626 2.808983639502378 0.24025005003814107 0.09315106753338796 1.3087403600545848
P 4.821172004980837 6.549718002131457 4.796846796787168 -0.3331761460449165 -0.2984366856812022 0.5109987828857716
Ni 7.630898405923165 5.776788175212604 8.549790472308935 -2.0336042752270655 -1.5866760975689576 -0.5051749771151429
Ni 5.511234932902581 8.263765955392552 8.223899540201957 0.17548704672914292 -0.43127684427409596 -0.1751710581506209
Ni 9.06611316511188 7.851812693136824 2.913700180512901 -1.0855102416132079 0.3269689887929401 -0.13926663094452787
Ni 0.6965380492293223 5.447921618052118 4.116246521390158 0.5313148687353043 -0.09237793681278929 -0.5581864963151677
Ni 2.643598783688956 6.9216390787642466 4.031060668057721 0.7322872042197454 -0.13539969178995392 -0.3490773906562053
Ni 1.9517865655695483 6.476843122012097 6.350632292180142 -1.603844381818128 0.15368640591428367 -0.15014908218498657
Ni 4.905202044580576 6.200491905131163 2.5444186087752225 -0.547559869839257 -0.5344457010548022 0.7914392890998693
Ni 7.94975462703106 -0.08973400784635786 9.032648602529482 1.0829648494835349 0.1626454148797844 1.4404548896834677
Ni 5.7922112364317835 4.289003124219801 4.946616261045542 1.0541093587044232 0.7075922725762265 0.5029910820899466
Ni 4.286136486356616 3.1974460408786105 11.466520313541137 0.9602517520223142 0.634002672114534 0.8151893403316155
Ni 4.294360897861855 8.146563512149188 10.739860586138564 -0.891200148640291 0.040028990897427834 -0.009146185275642312
Ni 3.533905067012197 0.5464004097565703 8.696288489140057 0.9199990751498542 -2.0707302335450852 -2.2353870224279437
Ni 8.491961319606952 3.4493621465168074 4.172759585079553 0.08744039030185587 0.48801646305798535 -1.3277001889865394
Ni 8.735424049054352 7.355124180049837 7.392323614583054 1.43594466051794 1.602662445694885 -0.6927094419271231
Ni 7.605767242036332 2.4986732963182434 5.992678061366383 -0.4665413239033449 0.44026979180132564 0.8980002022812598
Ni 4.032370346059112 1.1412607372820938 12.351365331184452 0.9281805825193821 -0.6878179181627767 1.4104408598198805
Ni 0.22981735004689238 1.3312556333580183 3.087302120961624 0.2473915461789288 -0.20618524714394812 -0.750145829667721
Ni 5.912188731664109 0.7620256127338434 10.108897106994274 -0.6279713783187895 0.6409821887561605 0.4618966260424819
Ni 5.936596367144579 8.691829172924132 12.719172370347136 -1.0512556913057123 -1.1275837737444903 -0.9893206443638122
Ni 8.68580282240025 3.178606826550909 8.230039457209877 2.98636794640245 2.303800992225968 0.30196398210817027
Ni 6.780944858782644 7.47045827145905 10.335862472917858 0.33504919469791333 -0.4743811316627378 1.0654129566427006
Ni 3.5917507051715383 4.708732027197074 9.824318731031875 -0.922029989536954 -0.14585816811911653 -1.847548708953457
Ni 1.1694875037176686 5.1568159168338354 8.559133147338438 -0.9629272419719479 0.4696562153832428 0.06477457327322393
Ni 8.45020731954862 5.021992351389937 11.03678473794624 -0.482049446841273 1.0554435041348145 -1.1038928578854539
P 7.059375075008441 0.28007601438558816 7.176738709390439 0.2657145128578327 -0.2170011068125295 -1.4505546971216308
P 2.970285597042932 4.8243683519912235 7.465753505100206 0.5340062995245384 0.1761323936226257 0.8520391621701133
P 7.2040166461690625 0.32120265120549363 2.6760375844800532 1.1143582761931516 0.545308354800919 0.12395236918496072
P 0.6670574721756325 2.0785963670189216 5.4123688975374336 -1.0763224044663529 -1.1688211831277224 -0.8665183296228948
P -0.16820570073949495 6.792310665773736 9.71409329968683 1.817967138641598 1.122650083888299 0.9798821246587318
P 0.570623041771109 1.5202705605797553 9.360000329330319 0.5506040559822195 0.678189136823761 0.49686002949154423
P 4.324098831222112 2.440104129752539 4.826953821220544 0.7704747710330602 -0.6879613857191764 1.5902185635045774
P 6.5679619082767084 4.226495765062501 11.770842772268564 -0.26863888559347926 -0.22682837731559646 0.005660540719887025
