# total energy = -381172.50599275733 ev
CRYSTAL
PRIMVEC
9.16119334661853 0.00000000000000 0.00000000000000

0.00000000000000 9.16119334661853 0.00000000000000

0.00000000000000 0.00000000000000 13.40833249038758

PRIMCOORD
 96 1
Ni 4.317267211239952 2.464278490711303 4.979036987592022 -1.5469101305249295 0.45028500994548254 -0.1741179342957582
Ni 6.082455057185521 1.6990715154086236 3.337923760272907 0.8343021499016665 -1.1852772718012168 1.0490954504295995
Ni 9.127177580942455 4.748273862587002 5.966707963078685 -0.7897824702227366 -0.0587929017684923 0.3877426684368871
Ni 7.012160415628202 2.6350431299254726 10.976530223933329 0.6388877681209771 -0.9213771864443034 -0.08511097083773085
Ni 3.3370378729010186 3.4405410324418813 7.88491704945999 -1.7398716798897522 -0.7702485139548669 1.3329773782250784
Ni 0.8831774909726742 8.472857686811896 0.9013468852298342 0.6079386280376304 -1.0658397597674742 1.2459283098243703
Ni 2.1471363082909103 8.54133760516629 10.701833681341645 1.0589281202493053 -1.1753754393064724 -1.0491363309698643
Ni 4.4317546412967905 5.42647698710551 1.7688944646701428 0.5184868637327006 -0.501916103858213 -0.5128528053753748
Ni 1.9342210196655605 1.3314145142850693 4.079967574964583 0.11156530837451753 0.15284874050433675 -0.20405225996134535
Ni 4.73660250258921 6.687277025046007 6.146259102586326 -0.8539595191212777 -1.2201375740135116 1.5457083969073444
Ni 7.18652540372709 7.370033262530686 0.533032110442354 0.6363372337849815 -1.1317535888514638 0.3630603351988586
Ni 0.6338391308565684 0.1947312364592441 5.965031464743052 0.38472779286996317 0.8055093940396902 -0.037515737557270876
Ni 9.008246972236535 3.8356632904519206 10.293737341676287 -0.14362259392037846 -0.6643478600652947 -1.6384064360637138
Ni 7.519901220304538 5.405607789244465 11.59222744411201 0.8609961142530848 0.4100894115632034 0.23997571333083184
Ni 1.6222732337277017 6.366241335561988 1.9234923464368208 0.9506931617996014 0.5010167319723952 -0.4955001730295402
Ni 8.429488598719628 8.637740840061713 7.7537974733466415 -1.2237947111501246 -0.21414563964160538 0.6223576316764378
Ni 8.949322178275937 2.8274007012548674 12.511180310223915 -0.5039143652351643 -0.7107629569947242 1.3855276415179685
Ni 2.400379168902353 5.927502637246225 6.00419739744522 0.11232326958646462 -0.32073329229587344 0.42983137007682104
Ni 2.2812744975277055 2.5622024836598145 12.529925027407183 -0.037496454283561235 0.7264605702356391 -1.537615849707197
Ni 3.476507876516711 6.58991186487604 3.810419622889976 0.7401087571466931 -1.240069279940432 -0.04147343665343825
Ni 3.254742875365563 4.708340221903818 12.464372110245328 1.4033104194226864 1.0203492315348426 0.6503931976574154
Ni 5.409840260452455 4.166666358018829 7.713853755351057 0.8136405077872567 2.0945900708818184 -1.9650807764343705
Ni 4.703713819392919 8.41116621253785 9.47936865588997 -0.5993064062839292 -0.7990965485348108 1.2546821447576004
Ni 1.3427652325246808 1.7545150559946834 1.2578721206286494 -0.5167315716044907 0.6394989193424148 0.7786189974067494
P 6.958484985308684 -0.5021790443508583 3.595363363439286 1.3633076537775037 3.5303555255094166 -0.47611199831091544
Ni 0.45447487968798145 6.929810450934201 6.904566783372257 0.9963425842076002 0.16519774898799292 -0.2589604819634508
P 8.941480196990137 5.7851285354207205 -0.00028766146305391225 0.14127774783728572 0.7754848226531419 0.5278593060865361
Ni 8.430945228421079 1.5108731257424926 8.969383358906367 -1.761569733688476 -0.1019486112203599 0.24003587714480593
P 5.172446263888251 0.6321159104361722 7.780506931803129 -0.48083999991420423 0.3447422536159611 -0.21037974484126995
P 5.637660810236681 3.2891798001942147 1.9965409517856416 0.20424534980875791 1.4632181515219123 -0.3823605781893673
P 9.10373408782287 2.5932314446586555 6.575379464275962 -0.7128226677372305 -0.8287279982479985 -0.6368316569228968
Ni 5.27652657859384 4.904572977910658 4.301594242100059 -0.2106060019194631 -1.6707753393127225 0.26852087195837626
Ni 0.9754746791247619 4.740404397721929 11.964710561755846 0.16880783493675441 -1.01050242064775 -0.06411020021634765
Ni 1.76148672393685 3.194856156130422 5.644411693425358 1.1245187616659216 0.6285624749355692 -0.29212359897898077
Ni 7.79107253579485 2.824038543390511 1.9287215554530999 1.2481937088197794 -2.0919392635225327 -0.6648643946903969
Ni 2.544832861559489 5.875128096345613 10.504730611991167 -1.2200817810749116 -0.6533337683429781 -0.6254077313566714
Ni 5.770947008516025 2.42322718447103 8.93161175979263 -0.13564446081090833 -2.2905006755726354 0.4667387846261316
Ni 3.8742227521714723 2.2436769610826977 2.726262961770072 -0.8055145362460128 -0.9645735193261195 -0.12188777334644814
Ni 1.2960248253749656 0.03755905943402642 8.354128624353976 1.502578912707722 -0.28679113102247383 0.3896406567905483
Ni 4.2888949962374685 3.887350741870716 10.39342852877203 -0.8492186620021825 -0.5649909208315107 -1.8841599324185871
Ni 7.834203432866755 5.771221844308751 7.850753128185447 -0.3451785698224313 1.7729661484508756 -1.0389442209282107
Ni 7.699405637727416 8.184353393993621 5.559926254621871 0.2679619141311127 -0.30937133031583497 0.4286406922028295
Ni 3.0409481122034885 4.296333885027271 3.1090432604480656 -0.5866897459611832 -0.34748099270336286 0.525921722744191
Ni 4.638678509640699 1.786725810902249 11.726470987069353 -0.3741569593326524 -0.8644678748517692 -0.12065364382903093
Ni 1.553875766111125 0.49497284986556506 12.549675643591831 -0.45228121443990493 -0.7175848650125641 0.32823037200386695
Ni 2.924555153983744 1.2276914861100248 6.4003869344503475 0.2651043900776595 -0.2863864393848874 1.5534980681550923
Ni 5.824888113435178 7.112576253097435 4.316570960565044 0.1509908613599916 -0.33756013404522506 -0.12608972724293765
Ni 5.720129870440863 4.0321983658307605 12.146353201646136 -1.9956283102039245 2.4464964463463867 0.267262574071243
Ni 7.842155348469647 3.8626338429114977 3.8286155846070997 -0.30976753731298906 1.9800512817012736 1.8577670442473553
Ni 1.5782262173467079 6.7826084003497975 12.46890415246739 0.5022385201946382 1.9371791649280963 1.1255168639131325
Ni 6.380349572921956 0.34647723881672826 10.373208859501132 1.5913105110171755 2.0233679422110376 0.32204558334939376
Ni 8.356098280868515 1.7980948515280422 4.524882749662222 0.5179420469728242 -0.6734259111071628 0.2954786314941427
Ni 1.2622566676419487 2.322902958932705 8.242758748305965 0.9861227062518049 0.838130265398505 -0.5695672273482836
Ni 6.413284062083702 7.585806843400394 11.532587160971014 -0.5855916278009979 -0.43968897959719117 0.6919828481737438
Ni 3.4397806534153377 8.205240914240848 7.643500373009576 -0.4118696433920778 -0.12591052135259606 -0.8395808818021026
Ni 3.493868337423946 7.119337213598511 0.5306566130738865 0.5303108529508221 1.0213339640456154 -1.1694924981631343
P 8.040861626611028 0.9066603772225498 12.099183134540457 -0.5272841503093564 -0.3264740514343926 -2.08029730840823
Ni 3.6709541998708284 5.874541779987796 8.507291863282619 0.04438392543201388 -0.011179670765903326 -1.6311880639384038
P 7.397122910500444 5.649258880689747 5.071353414249601 -0.8120340825320854 0.3561003589412577 -0.012395545450875426
Ni 6.24497462261789 2.334253677172317 0.0036168390322829477 1.0140664838499245 -1.3055887017994805 0.8294939298797457
P 2.125882340320048 3.461831645185107 10.170393786258487 0.15224401704080232 -0.015415049003489582 -0.39685517226111655
P 5.489185353812645 6.132859941571591 13.255369676337477 -0.22091458293432273 -0.6088832513390868 -0.3889744839614591
P 4.083436918788102 8.677133970352536 11.971750022526885 0.08733960305793345 0.36525065798195805 -0.10405280204755628
Ni 3.9838364275039586 0.04433376172473878 3.3722764021251224 2.3296626904840783 1.2281231633221494 0.3873297492691845
Ni 8.386385185226995 7.037775111510327 3.601866894414508 -0.14945205611796197 -0.9768572217894789 -1.2387713870646149
Ni 7.32152474511443 1.2313559633463804 6.65045269329787 0.03301682124565281 -0.4579139872456501 1.3890868196241366
Ni 5.7860446547298094 9.204433922277921 13.49280489827059 -1.2418117165528355 -0.02564084049655584 -0.8698605066222503
Ni 1.5376054871817062 4.168929172712279 0.8078092715332401 0.7363953128508479 -0.23310495435292758 0.18049761256985689
Ni 8.14176300731408 0.7364527385483062 0.7480966149668261 -0.21749013063380607 -0.3673831309439286 0.5464825776146782
Ni 3.438525569961886 1.436933136305928 9.401908936067887 -0.2055267876243428 -0.016853838332545168 -0.09381852591405777
Ni 5.64826031064284 7.958685724585755 2.1653515085135244 -1.4188159712574533 0.05564561438876223 -1.3482705569387232
Ni 5.41288177655863 0.3196496009693691 5.41254098017565 0.21305934855596206 -0.243492982455471 0.3521292901086516
Ni 3.2098530292202074 8.342603843445636 5.344869995171181 -0.4934908559089953 0.38567318750236806 0.5400301371211151
Ni 8.809366631426427 8.647360092807148 10.049786679216933 -0.5887260596649216 0.1157826888899748 0.7124794254651987
Ni 3.9418506795684145 2.9931724902345023 0.625157068164333 0.2405166734359664 0.28652399340401624 -0.8166165596964452
Ni 3.242723390030317 0.36441668712730696 1.0112124933723197 0.49729557436706606 -0.1810372871234108 -0.29218993344054195
Ni 9.259859140477799 9.461405388477356 2.9214879865369148 -0.4958285029032364 -0.8613676386598909 0.37073816345909055
Ni 6.2942251966745095 7.91637933489203 7.538097182021662 -0.773123778620133 -0.30852183783134607 0.6992485285972215
Ni 7.841266712739831 3.5595632530787102 8.045347862867636 1.3433926600211317 -2.272794002321492 -2.625513874826291
Ni 6.700973008716886 5.718719046704867 2.2797647329063273 -0.716704776400456 -0.08428616094359033 1.2879182811029108
Ni 1.0364424191446278 1.5609482071772915 10.506433677786763 0.14642201104238653 0.09313512669378798 0.6876839636880737
Ni 1.1928239852061016 7.435435020006542 4.6068754278256785 0.00568162376580957 1.6441106855373429 -0.2318296871849298
Ni 4.6967971186092985 6.254264072412052 10.54649832353115 2.02050141929652 -0.054284729485493614 1.182836523570208
Ni 0.9109349899187585 4.75803969442189 8.26553988716508 0.950960299418059 0.7416354782038648 0.06697363780707175
Ni 7.247987848173865 4.391747711068878 0.4719507716281612 0.13252288446279115 1.3931594470316138 -1.2930540596675795
Ni 1.1472378883858385 5.28105220798074 4.002333792473772 -0.40043183386878134 -1.011184277206123 0.5567911586295379
Ni 6.730838498193185 4.5330682756889304 9.477598713384811 -2.0182961841150853 1.9570535352545197 3.8198504286162986
Ni 6.295443635355597 3.00839839315156 5.725290370508961 1.0579068780736427 1.0990774387746811 -0.10158222901987668
P 3.8620200429744083 4.396942107551412 6.1373553390212905 1.1957606878310438 0.21162338744038392 -1.4884555859324622
Ni 8.925228240446899 5.096307588109873 2.11571433210847 -0.7194180615665611 -0.07938486698723102 -0.7429647385382495
P 1.7301096376005554 7.0753451643760625 8.706418640186872 0.370992959782374 -0.5134534150738512 0.29052334437139643
Ni 0.25671953338943493 6.383766697944857 10.296258502014899 -0.9525474413995209 -0.014602580404523238 -0.5065163216343856
P 0.9871460391225544 3.379188522312198 2.856658803629239 -0.22893462502532186 -1.166230796692727 0.2613166409004532
P 7.043702403440132 6.768738354010192 9.543661909001829 -0.39089535513325585 0.967094228865444 0.666336351250233
P 2.427606234768475 8.106593187038156 2.8780712602405742 -3.0522097845979244 0.7896670276907949 -2.0293416432959694
Ni 8.662182903228206 7.938146329675981 12.287475884495425 1.01116653659431 0.264379338986177 0.11215229122623911
