# total energy = -340888.80583305797 ev
CRYSTAL
PRIMVEC
9.09804378831408 0.00000000000000 0.00000000000000

0.00000000000000 9.09804378831408 0.00000000000000

0.00000000000000 0.00000000000000 13.31590672855859

PRIMCOORD
 96 1
Ni 6.4920364752475335 1.8395607556431164 11.489150640318112 0.7195376178635607 0.9205050682519953 -0.8350876219174392
Ni 4.895338898899138 0.2880376958209835 5.827852898723426 -0.7387054490412633 -0.18502429679561683 0.27441229774214676
Ni 2.9766979471659 1.6774154203096894 4.655374356336391 -0.12116143670338489 -0.9502622449097697 0.5604277269408606
Ni 3.4840412576548028 4.362275418789115 4.535810595066539 -0.010352803989233782 0.06362117639507107 -0.8202662406338905
Ni 3.81074290990977 2.5954808168883816 2.5902367044831416 -0.9372483491486051 -0.2138805589056768 -0.7933629884851433
Ni 5.254693430096518 4.392362649400026 2.365104702611344 -0.027492548993313944 1.604777692265675 0.7687462183777277
Ni 5.148464671519866 4.428127059297663 11.522946233552851 0.6043750790560882 1.0897975561346522 -0.501054527188866
Ni 5.484901230564574 8.034300455966939 12.596474452346218 0.7275841423171211 -0.017217392319550995 -0.6343140327073656
Ni 1.8106289765857546 6.508940640495514 0.3382625364210649 0.8597758686927386 0.1194897054279168 -0.836642625109385
Ni 2.806409862695259 1.4793601063789645 0.11087876872640606 0.13503099559662549 0.16620330743437184 0.9583038842673238
Ni 7.788835236165801 0.19056034550699677 6.87640061885082 0.13267046578424896 0.7147664217271625 0.4224057670367113
Ni 0.11593182221334275 2.1209814442601944 1.1405180245723796 -0.3628996412512782 1.3089493907415972 0.8707778762301971
Ni 6.888392750289659 0.9844538216672357 4.759224886282353 1.3160932008752302 0.13820039446354263 -1.595524034877891
Ni 0.9956444154535737 7.684489772640997 2.437503295387086 0.25858947177727726 -0.8882058418986575 0.3075414761959478
Ni 7.863975979321383 4.182407094272122 3.689278567304987 -0.01061068563631076 -1.5070796287915529 -0.5347562903166856
Ni 7.715259356531561 3.856296814859522 12.520680469650914 0.35178861893978125 0.3964905898328462 -1.2512049848422775
Ni 8.215215055512736 7.6321487270696124 8.763544143195194 0.9270135587944744 0.3850316972636272 0.9540073137744991
Ni 6.9856963279684265 0.6869432427158986 0.29664899421022645 -0.10803801194754942 1.6560742856571222 0.2423429280114278
Ni 1.9670516424138107 6.540510852234208 9.379377985931711 0.32944598957852295 0.798662803431502 -2.379441818789734
Ni 0.2140442159795948 4.609969659303791 1.423949380853507 -0.15995398409055034 0.3008347535997335 -0.30253733811313704
Ni 6.447274100102183 2.396888718377662 6.789567979699448 -0.4020518859707076 -0.711608078603839 1.093794078888555
Ni 3.579115814620032 4.5429443711542365 0.17375352932691376 -0.5752241685237448 1.8708817272524425 -0.20061932302039642
Ni 6.505583462359613 5.962930644159509 4.333076157246128 -1.5182073632735984 -0.30029842148028923 2.6654834732406933
Ni 5.391127693852553 2.960439743022659 9.139691843507064 -0.060304967537644534 -0.7825237317777942 0.4172013400176363
P 0.19063585926994522 5.543929338276574 12.516805612826849 0.6596854215926187 0.5218874047738173 -0.2735725754496708
P 4.080681867341191 6.356557506083014 12.111256674401213 0.4612872745932572 -0.43972574637239753 2.6804380376679964
P 2.7080600099876877 8.412542525945161 1.3092730886747292 -0.25330122679514444 0.9924177952318973 -0.4430069882268306
P 6.757344528421031 8.010636444228512 5.456286063428973 -1.1068588824923131 -0.4851232006705903 0.5671686452091199
P 4.803011951139985 1.167215324089965 12.607047288963377 -0.12235288590832477 -0.08618646329009673 0.2814401511232056
P 3.966983614863252 6.357157976969111 8.191412753509631 0.15309685195940084 0.3796719756136106 -0.6835504011356744
P 4.91588228163861 0.8923506857838099 3.6715419310558275 -0.20984701226625152 1.030249264257374 -0.026742301090850715
P 0.38842005149755365 5.768023253358925 3.3986588466737895 -0.020007810580494573 -0.23145122079958846 -0.7016941619242367
Ni 0.4616875074493897 0.5008200131354034 4.800464498895941 -0.3112664904560188 0.08479343959731203 -0.7715278948879228
Ni 1.938965981423221 6.400628429904983 4.844806544421025 1.1139857233450816 1.7021021744504619 -0.09877149904395893
Ni 6.412938083069955 6.0793037214936945 8.99560066614893 0.8390265519605291 -0.8251045425627984 0.544306910119598
Ni 8.799427737465678 2.4294324207953295 10.168412196936437 -0.8323820500608181 1.8750258313278032 0.5081708265186732
Ni 3.027510521390857 4.851986720531739 6.737569020572264 -1.1587080059531205 0.4524305955335757 0.7400056559099255
Ni 0.35926718997758395 0.6200225820692247 8.892601713095976 1.2083920034418092 -1.7233029768977932 0.9158187185199195
Ni 1.2427563811696107 1.0315361979634137 11.37869493062509 0.7570222450725802 -0.24527552827719049 -0.1095729605348371
Ni 4.221801623617523 6.819411382738427 1.3568240142229369 0.3015819161784032 0.8113555684078221 -0.13977159560540445
Ni 5.687132546566787 7.961561596355741 7.742747276049173 -0.4893812046159959 1.0011163514471597 0.23320419893495323
Ni 5.389944948167819 2.9092359529173666 4.562456035734871 0.16910479735188294 0.39608178443020176 0.36183597587345423
Ni 0.5453667646443844 7.915698357919213 6.805520489573403 1.162440219302043 -0.25996861151299094 -0.9088060346475122
Ni 5.357010029869816 4.7680754632216615 7.423457800020002 -0.4139139275156162 -0.6086613651362679 -1.1226917357595116
Ni 1.0135038752930707 7.464417192886745 11.364606609911151 -0.5025123426813152 0.06607966523789265 0.2568066688452416
Ni 4.643141126738741 0.4054907109457699 10.641766125859174 0.004150788943579948 0.16145910788116707 -2.0557723266836723
Ni 8.52059089326756 7.586048939496137 4.244498513307586 -0.3398946957156727 -0.8110539780070032 0.6635695871383732
Ni 7.528103498987855 6.482092313452032 6.819808057445 -0.5476735125989859 -0.8915207652045033 -1.4893099635129576
Ni 2.4898616272415546 5.53586847153292 2.434893066641313 -0.5758348055245501 -1.0141937534564083 0.4391932709076952
Ni 2.4438983103240104 5.390499928835271 11.272460713222202 -0.9295890328311346 -0.7994701298241458 1.0948790844226177
Ni 1.287373187615303 3.3111511326777454 3.5370646565058417 0.02050840436599694 0.40786643576995557 -0.5714096798736611
Ni 1.6771242829103699 0.9186203772461451 2.582061202388505 0.35056863048975107 0.6129707911448992 -0.0025034831481440755
Ni 1.2627265871541733 3.559236589072756 8.008878702180121 -0.3765483423829644 0.7516560956646603 0.0805655175588935
Ni 3.745173308756813 2.5850180666003424 7.043475274276473 -0.23339471767920447 0.8441679869521526 -1.261585556745653
Ni 4.184890860210065 6.873308193787424 5.944407027127814 0.2373120504557397 0.3645860278147657 -0.4668411145319509
Ni 0.8240052714892169 0.07957331006021882 0.3594946410708022 0.04008966893203418 -0.8492508007916988 -0.7040464642064971
P 0.3935649952261505 6.002279683286266 7.714024751997572 0.22276397743823573 -1.1546675173351597 0.8319310785663285
P 8.585205199829002 2.294872354047412 7.880672709172348 -1.431368354001167 -1.4312912209063287 0.2640952320868548
P 1.7084943376870312 3.301388931756818 10.239479745914666 0.09518943811965541 0.9889138958436968 -0.029873647630980806
P 4.347855019479078 6.142680694108028 3.5137218057110386 0.25983722814144933 0.22119843272332873 0.7935488792437043
P 6.76809841610839 4.27032149082284 10.16440450867393 1.7137742114717518 -0.3108756827755033 0.36367354330282525
P 6.710616975830274 7.836281534211129 10.278161898436107 0.2942331891228159 2.3116641970241285 0.34247196952454567
P 2.2890859982359397 8.650492761626367 5.516727097332044 0.7533447962209929 -0.6054372017720153 0.5567186535203896
P 7.040466551215381 3.92823504662259 1.1997098970714974 0.761330899750263 1.1196866303846007 1.548240933521211
Ni 5.266721043905899 3.1237132357784487 0.26823944286289403 0.5608352467919244 -2.0428949565003722 -0.2905068893111642
Ni 1.4035097158125422 1.1686801091302907 6.909104446838112 0.8677789415028733 1.4086488009164642 -0.8468540184247481
Ni 7.124541573312577 0.927354499225726 9.10439143383959 -1.9230108438475135 -0.5044859214679183 0.381854070866594
Ni 3.0204231453261765 1.9149744401105597 9.27785837478905 -0.3440634823813816 -1.6255648042143551 -0.24529275466837108
Ni 6.446337001598122 2.1489943209009543 2.320270452920535 1.3414771881659735 0.050708582098461054 0.8973959930383577
Ni 4.757821967939384 6.9854324847002935 10.23977270292273 -1.8625847773509727 0.4083436325166903 -0.224074211609227
Ni 8.568755936767456 7.229005311405855 0.5355581637004405 -0.1417793700640526 -0.725048520379461 -0.5632019472518881
Ni 7.734456228799181 4.325546616256232 7.988066017346277 1.058333681198416 -0.37240141009412636 0.2617187614348783
Ni 3.136677948091889 8.413479624449222 12.2103270921721 -0.840195889678282 -0.23465584377981522 0.20762969289995853
Ni -0.029341191025154433 5.152340438148304 10.20423210490082 0.591536275420207 -0.7839118703745726 -0.7565491620909035
Ni 8.697429569222885 2.579286299051242 5.731659282379564 0.02921981609706581 0.7885370278514097 -0.31401114308069145
Ni 3.445010650058551 2.9095816785790585 11.532573783426592 0.370753075857426 -0.9592899023296769 -0.22271512647817127
Ni 1.260479370353177 3.513355154548771 12.385723728196423 -1.1860740566708994 -0.23040992401926771 0.9234872908087709
Ni 3.1139146426826065 8.761825522734837 7.75722135381721 0.03429080286206998 -0.9720106923304549 0.24004924688124465
Ni 5.928967646920159 7.993131808094435 3.2929705118946244 -0.6184091885516511 0.6095339975492082 -0.055898353829516634
Ni 3.3127978785926455 8.288800033190704 3.568583009395281 0.6053847512675251 -0.3536439269809652 0.02294529594226371
Ni 3.4460296309561684 4.437552632600628 9.28311795386863 0.26829101533575733 0.16955782572890155 -0.37392093206244637
Ni 7.471868490700575 6.233743013788887 11.551961714612517 -1.0260000020627167 -0.28343275607320223 0.004844986797127139
Ni 8.165476050447769 -0.015816949022397202 2.3630012349012612 -0.12232846042829257 0.8901215708641316 0.3663976271022077
Ni 4.8652061780695846 0.5144534316629054 1.4860153253665307 -0.9328957286068644 -1.2552344177166448 -0.2805996574997813
Ni 6.077538701010321 5.763319564751171 0.2595881130812446 0.012572694458688024 -0.319564725909069 -0.45851048317906845
Ni 8.080973420295324 8.5876434755483 11.960893305696493 -0.18837572976635297 0.7856730760400533 -1.5720040973790796
Ni 0.2831629639911299 4.9689511707082925 5.4298271326570795 -0.6668094342319096 -0.5186907522133906 1.8666221806451402
Ni 7.414050422804496 6.1481031281703515 2.3241853411370075 0.6125912963182933 -0.26440736401063497 -1.0006628088495089
P 8.571148722268113 2.078111462210418 3.4760504458478594 -0.6820072250182706 -1.7648561177492317 -0.7959947696810356
P 2.1988061103157515 3.341766049824922 1.1920930148618045 -1.0413574583553937 -0.32597628586236765 1.4714528807268787
P 4.790001748607901 1.0961323084373973 8.043220178038585 1.8636957510269643 -1.0045503168293732 0.547003997335787
P 8.559112010415003 1.7944890470109875 12.427256297818078 -0.18856959094471396 -1.148881249670686 -0.793508255813756
P 6.60038507801298 7.909047687953511 1.1778900587968841 -0.4280537093511079 -1.184302052372141 0.5386826219542851
P 1.8029138355037917 3.1648090993011224 5.740580824059957 0.7440250614819638 0.5568672632831119 0.5837129227210464
P 6.921173001844273 4.262242427991728 5.85717498385675 0.04059411937227848 0.9815559128167288 -1.1850906097117073
P 2.1893896350565156 8.780340041722804 9.837112393380968 0.13759181434526624 -0.07834202754501346 0.6079314289487788
