# total energy = -340870.3008405778 ev
CRYSTAL
PRIMVEC
9.26454489438685 0.00000000000000 0.00000000000000

0.00000000000000 9.26454489438685 0.00000000000000

0.00000000000000 0.00000000000000 13.55959792748618

PRIMCOORD
 96 1
Ni 1.0161723651784527 1.3241073153425733 12.457691013073498 0.6188722442309986 -0.8211383588261987 0.037980593008831366
Ni 5.839665128083795 3.331548948460139 4.470342200361536 -1.3712389928094384 -0.05721475864809501 -1.6528979448116694
Ni 2.5481482790176972 2.5389856439099203 6.226771174887982 1.9250803247820327 0.42107059316505546 -0.4572925516115673
Ni 3.769752667330491 4.723250384880919 5.392164438201659 -0.30935127571117693 -0.646461466703177 1.8858684304692617
Ni 8.249679039602034 1.1497578410318872 4.7080556044559785 0.6917699608319893 -1.9802292020400347 0.014195574774091682
Ni 8.51339431598514 4.005007261154352 7.836891673769778 0.18770055807619931 -2.68045706383139 1.8113177516458805
Ni 8.037168904008297 6.90385563053587 0.8898299106872635 -1.1037064529062606 0.30875992198408114 0.9918616656181112
Ni 6.799212593587083 0.26465840707468563 10.540024674921947 -0.5826389729305772 -1.223755887492389 0.7775273070044674
Ni 9.48624566825766 6.097136101066859 8.629368818050532 0.7092012689345593 1.1711660292108153 0.2132023018917296
Ni 4.294218565663449 1.1545105526701986 8.754089977148533 1.380427601287242 -1.4187108131381567 -0.12817206369326314
Ni 0.162619633754612 3.2612773738469 5.561007993357085 0.9100247375459618 0.8011619157042719 -0.11582202676834247
Ni 2.7487256805175835 2.7486237705214407 0.0010329967790871728 0.42847742715208786 -0.9615655857377311 2.4836095491486
Ni 4.074528407614174 8.24858582327977 4.544892141903766 -1.337613077224877 1.3235663693238238 -0.6959809135895433
Ni 4.636765856335818 3.7393001075739027 1.4104287878938453 1.459330386431732 0.026714790287024958 -1.4201961394344316
Ni 8.890628063526588 1.3640189756502643 9.951212805024216 0.0489697450304834 -0.023208062685347124 1.0285497650677642
Ni 6.151333689924796 4.192994145858011 8.20588924071384 0.2223294610039784 -1.8344998461892985 1.5845361684078194
Ni 7.169497932300591 6.275432271591815 7.936826468896752 -0.7029588875692732 0.8465390582874903 1.5100065726303609
Ni 0.8421508557644454 6.683489160694008 2.112463589961102 0.6236141297913582 0.3383422636268883 0.06412279862183795
Ni 5.141683564499503 6.111181151444403 1.7063939457837 -1.109680153991192 -0.10317091366323522 0.15362007145272252
Ni 3.265724355496782 7.686904247264362 9.505549274436188 -0.23107712528962135 0.7105151026499763 -0.918705038928779
Ni 6.11219098686073 9.4369582883048 13.437466686356688 -0.2428625479603237 -1.934999640778274 0.9518653277308317
Ni 6.633849728027201 2.3814235253275386 2.2367641387113872 0.49565983853585605 -0.3701666072263367 0.08745838802398485
Ni 8.599017241835575 8.36791316421827 8.55911669898201 -1.4495234276436393 1.053878987861172 -0.23058733013739643
Ni 0.9051238217448159 4.133830760824372 9.664779937591787 -0.546334224962272 -0.0630853584962591 0.09997888908849878
P 6.388987800930574 5.762704551905525 -0.010813577045296396 -0.5563381302525192 -0.7485214066904206 0.3559142110723806
P 7.482843376805402 0.34970693112867884 6.713410862016141 -0.12020087256232848 -0.35275535372842476 0.6249786142390527
P 1.4372366756065504 7.865079978702968 8.066442087173156 0.5027923358155794 -0.1269019387315879 -0.46639271414062256
P 1.5313644538623863 5.0055503387424904 5.426347830271595 0.14035240780953892 0.2707284211326563 -0.9927008736899549
P 0.6530031235592664 4.432102790445103 0.6986273023780348 -1.1490193179104469 1.2737018803932127 -1.763349708407034
P 0.7818701665912741 6.069222026668745 10.832464673399759 1.6862546658952444 0.5087848059535882 0.2845295886818068
P 4.223798758328547 3.4050723784048547 7.630067189506318 3.1375333856670933 0.9639292008739012 -2.887087883153189
P 1.4655676545343403 1.807586866135786 1.7671545383932545 1.8138418036193147 -1.5096764429844516 -0.6565831285182111
Ni 4.176086351043354 5.526227038127946 8.035540196979028 0.6727713082422995 1.97935554118583 0.10498174161972887
Ni 6.083637658850446 0.47600769516690045 3.754733913262525 -0.4292184190831705 0.924383577370795 0.08966413742605203
Ni 5.65470774962912 8.152966453262204 8.06617063600161 -0.42766135900869573 0.29356521652151374 -0.012031220132921216
Ni 7.095094370571003 2.577489093361815 6.198661618588175 0.5449304026362098 0.5100716430858119 1.3092921187929967
Ni 9.193254429346162 3.1144806566752745 2.2276654289648263 -1.0790614006640706 0.3223050076583675 -0.1931654378455125
Ni 2.8371094408089883 2.810492402725424 8.790606181675638 -4.050480439066172 -0.18087376496235302 2.3664626329212473
Ni 7.302212540914257 3.774125532619541 0.3218873550906254 0.40660865210345454 0.3061111715073244 0.30336471911043883
Ni 2.851738157528079 6.128626289875086 3.625388819703155 -1.382267225599142 0.7923733708783645 -0.3766149339548417
Ni 4.652385879381029 7.33258171976491 13.048997824967715 -1.0251739066169956 0.5102606191681663 0.3109906110868128
Ni 5.427568897316292 0.8368728444187415 6.21048595750431 0.835081194159536 1.0052311449464817 1.1233316833363558
Ni 0.548162751799767 8.480625619952571 10.682048298456031 0.011870526185340846 -0.8691678514305999 0.7453707768765808
Ni 5.219885589721699 6.222392750871869 4.218730125702192 0.09207557508102207 -1.7738197547004222 -0.5866871748580219
Ni 8.492762174038708 7.702311185772182 5.95831801013873 0.1750360752346534 1.9320539278863884 -0.46049974569495533
Ni 7.29824731560978 5.041348541024042 2.856532559619358 -1.1923989704476625 -0.2223718842061396 -0.6671714455570188
Ni 4.126409860196131 1.6560837600513685 2.394516180468399 -0.18088147827183687 0.41952124640006455 0.8766014248905096
Ni 2.3520641818932133 8.303746924828515 12.215150780979913 0.022770975147928526 0.181965455364635 -1.3465744001832227
Ni 3.113072445819478 0.21395447817543733 0.3643541769379778 0.04901705332865107 0.8215034554751012 1.1962455978872624
Ni 6.104353181702813 7.9637751776950365 5.451460306230284 2.327412718107637 0.03578281402656418 1.2199822793825699
Ni 1.9580245495332524 3.6895680294560558 11.819223960782285 0.7375438246329942 2.9863211523249147 -0.09478603203364966
Ni 3.367967875263652 0.07256269661743914 6.748177920427626 -1.2465667147393178 -1.1692886096824444 0.7105688387060473
Ni 1.9581171949842915 7.279588521770482 5.7379747016596285 -0.014673028631142471 -0.2728084435901366 1.3442565506833235
Ni 8.656568596021131 5.588660807583268 6.418273028004067 1.7159673624683287 -0.8491006483670795 -2.860919195177621
Ni 6.814387918467306 7.3018419591101 12.138566345332864 1.2777899344196575 1.0044973521042508 -0.15372805778549656
Ni 4.036377010876229 4.983695276842341 12.899015030734851 1.2482932105121212 -1.463653696397434 1.7828535827679166
P 7.295430893898187 7.322131312887687 10.061791636021084 -0.8549393665360437 1.8363330427432956 -2.50002938526752
P 7.633697964732544 3.1928216500740287 9.933043179166408 -0.3021920389585764 0.9032833050570701 0.19369637064831802
P 0.8271552630592389 2.3423456740792004 7.311619760012779 -1.0558127145487752 -0.4019858086194626 2.9244868926269376
P 1.521664475138581 2.222295698622594 10.509895447789486 0.10460301812407145 -1.903095850091142 -0.37351186954948573
P 4.0890181561567065 4.410303315815577 3.2693681010861537 1.3521140990545295 -0.13152503932589607 1.239629364189536
P 4.256289518007997 8.617537067498313 11.197665629760236 0.6160615142550809 -0.8006446097482212 -0.03937310248098381
P 0.8698620366247829 8.37074811502007 4.289619645473863 -0.3066724433274331 -0.060908919670230585 0.39202098409726677
P 8.389193824321977 0.24200844720462 12.22667587508919 -0.5637531917696678 -0.65427736320317 -0.923977600181628
Ni 5.262530290835047 6.353374889551101 10.30751887163042 -0.49724518074510493 0.24931370290230612 -0.49139720660476016
Ni 6.409731117418252 2.02080110715742 12.261849647030738 0.9677586019223203 1.1850304458977334 0.4551081423657388
Ni 0.164980239847091 5.100484132422367 3.6921157793596344 0.8818097085643264 -0.3913411844214228 1.1949315070615292
Ni 2.959104970737418 6.229285572429185 11.452057067950756 -0.4520282178888344 -0.33857469135266854 -2.985003461954756
Ni 0.6185908972252628 8.143136770906944 13.742924297160021 -0.6722138930769326 1.4726062776050317 -0.3941814820836953
Ni 1.5783912848098882 1.8298588325656115 4.064760797711111 -0.22333604789162184 0.4207551188071657 0.23679808693379864
Ni 8.817308453574158 3.190431397437217 11.846925877097517 -0.9097529719418138 0.3621223967656215 -0.016015915812282094
Ni 9.3549670641351 0.20279440714325428 2.7065367950233488 -0.5152138494083838 0.3997404642287115 -1.4113916537689242
Ni 2.0338548512088446 4.876643458166536 7.499162873005958 -1.0059309992269836 -0.22283262589264205 -0.16799870877189776
Ni 8.21288026644926 1.2155546403599327 0.570213295601609 1.7063185265246548 1.891144848376853 -0.811449670783525
Ni 2.3476913166041626 4.251962975444466 1.9695181441891765 -0.536203050065541 -0.14071416202433185 0.11484140802262803
Ni 0.44286749087566524 0.2840574380677855 6.609978701112437 1.5678664210616222 0.4955053152358628 -0.4039200495276979
Ni 8.831687027575443 5.671967597157724 12.585693674047311 0.7555376901072536 -0.7242411939868172 1.7692071956290754
Ni 2.4628403477007943 9.276403721653852 3.00858968550099 0.1847309339249141 -1.3260073746651484 -0.6670693727615157
Ni 7.971992829202214 5.460559942431355 10.533543199167243 1.2053928116041692 -1.163921174722944 -2.93384622235465
Ni 4.6120202563632455 8.620538780111984 2.1839627168006115 0.4730554708727789 -0.9303559929041462 -1.1468763034255152
Ni 6.390544244508032 4.60515522844124 11.669132771371704 -1.9258511415097863 -1.5325250654478508 1.3535873411659463
Ni 1.6124014298863818 0.629278476457146 8.82544087126638 0.9394882942227175 0.44757943808886147 -0.27891121405376484
Ni 6.138020538610462 5.020345817273452 6.15432243217532 0.3540589030311967 0.6801418896747577 -0.9831307135030165
Ni 6.597273303956921 7.564464019170944 2.942867002533776 1.3142612898728139 -0.3925380329430013 0.18783065589616038
Ni 5.499897200942603 2.5830848786045832 10.27016144640788 0.07024793768296934 1.4026442465935973 -1.4472791116941526
Ni 7.032873685653072 1.6184048551137225 8.585205657994651 -1.1658744417945728 -0.4830110394235939 -1.6769593566362475
Ni 3.9425734916990303 1.4498827796734024 11.517590754197851 -1.146994059950302 -0.2381936817297446 0.9499123177695189
Ni 1.9454062391017122 6.130127146181922 13.427907528718462 -0.25324029165022194 -0.020723605700596566 1.5085500426894922
P 4.296970135559314 7.131031541029111 6.370949731613239 -0.14822075481402214 -0.5930221159371142 1.211072635597766
P 3.039447105878619 7.1995057938921905 1.6050222197111088 -0.3335080754630385 0.5236121007744079 -0.6597437856343799
P 8.03542716952876 3.09786006275884 4.036136132703526 -2.3376071421421356 1.3782840725816778 -0.8119849744617048
P 7.449194548987962 6.323885842485321 4.677152787807341 -0.24619186944387278 -0.9898672608959017 -0.35571546479801314
P 3.88028795496537 1.2864284104049273 4.890716302179392 -1.3913275360291972 -0.06897627005939733 -1.974649393959412
P 4.13938022334162 4.237436168721518 10.892560998125361 0.3354934813241835 0.3616187176563256 -0.2752299085474357
P 4.719414863207896 1.8326752542772033 13.804077706481982 0.6409618770411863 -0.14533751972895614 -0.18377962575523832
P 7.3668049493787935 -0.03960407741024077 1.892892944543668 -1.884125479636226 -0.7416539901466259 0.8746085628301971
