# total energy = -381164.0881780978 ev
CRYSTAL
PRIMVEC
9.31301686219741 0.00000000000000 0.00000000000000
0.00000000000000 9.31301686219741 0.00000000000000
0.00000000000000 0.00000000000000 13.63054155199917
PRIMCOORD
 96 1
Ni 0.9715059607834453 7.575310208947948 12.049670842481655 -2.1199694301868712 1.4048721074828516 -1.0808264629842934
Ni 4.101908882743059 5.347366542122187 9.113066209778125 1.345093444762322 0.04646317655854579 -0.7915333914755723
Ni 8.05760340364385 7.29977529751703 7.781880369276038 -0.8569728520263048 0.2707132516240047 1.201547212605834
Ni 3.309482919658022 3.701383974478696 13.338302715877635 -2.029289192791479 0.4888790681685967 0.9777594218887741
Ni 8.258457234335074 8.679470779290712 13.541029394222777 0.9870470178382871 -1.4597348209590022 -0.02397887941310064
Ni 2.009013270762825 1.9499966840752794 1.3334842930181814 0.845510617022976 -0.7557747458187243 -0.34999861691889395
Ni 0.4591754933964698 2.362954469604575 6.877971077445444 0.49375156576954965 1.2413738576844686 -0.5284241774510706
Ni 7.397133573867291 2.3352203059379333 13.45781479630117 -0.19352102141271835 -0.24073830252846926 -0.09732499640541947
Ni 4.901217165153028 3.0229120834638508 10.243337684980581 0.2626713551561347 -0.21123977884872006 -0.6609504043479714
Ni 1.2680789768896297 1.9215919832078319 8.944251950363713 -0.33631289190168534 0.26552168012073624 1.0727187462754944
Ni 6.192168911003462 5.296163576427359 5.150654209947603 -0.05345966248103696 0.4829259359089554 0.7679247509176969
Ni 2.9278541222330197 6.76307545938912 11.981695133750016 2.6483218738597425 0.2257539133044951 -0.30261035744291753
Ni 8.992993485750585 1.0493162151268953 11.214963783679172 -0.025283714267453232 0.06584852306369306 0.3627345764283237
Ni 0.9539602373623729 7.467130207218024 7.841718364034571 1.290993577594125 -0.022506151522316078 -0.5962527070592699
Ni 3.2628340191186638 1.1842525137722872 10.016280750564553 0.7717513237526387 0.2990259825257689 0.15716742248434865
Ni 1.6102112705838638 8.206090141555514 1.9119017893545274 -0.29708762785247544 2.0305534042158833 0.2113850461773327
Ni 5.804300392404298 3.9947160607809877 7.206494259868332 -0.31798324035456205 -0.7503630878848496 0.7478359505876219
Ni 8.004528521596772 8.614950199746556 10.036467645515465 -0.5373525902889519 -0.25428750196781363 -0.01693894184718373
Ni 7.147889308517948 0.181565641849727 6.095551019479091 1.497674276317253 -0.5727343122223556 -0.03757384448871594
Ni 6.288465503452447 3.617324685944407 3.57812619874733 -1.531853236191807 -1.4399111013648556 -1.186261232981041
Ni 1.1311217536251439 0.5726387694877392 12.958065283144304 -0.43275831391562886 -0.9926594789290581 -0.5737074747689023
Ni 7.077473589416713 2.560623248591975 11.036308459541273 -0.4506213102389788 -1.295180619092279 0.49536878965799847
Ni 0.7228418963731331 3.1991050459921255 3.249630024072806 -0.013664899081602271 -0.3838587600014486 -0.8537427751247814
Ni 1.2377464815698669 5.032996351144629 12.002154900089588 0.16243612708245572 0.9709017755369923 -1.2527306774581843
P 1.705408927064863 4.040508163785984 1.3974982444550619 0.6333053889371931 1.49242922586823 1.6881223152316025
Ni 8.270880798583327 7.176200879218618 5.562065103406707 -1.2735188178481291 0.15066844502356633 -1.1846393811069018
P 5.295995942127158 8.672048304998464 8.212946384433748 -0.17934832945676207 -0.4938734360593946 -1.4573866324417997
Ni 5.2249935029752175 3.4307849618870394 12.502450156023775 2.390312185845335 0.27307301010543295 -0.24432550565909536
P 6.08848709632894 8.034535061332809 4.784606089424646 1.2475977271069933 0.0657356516349126 0.03367296677241297
P 2.778789977287327 9.247192275972544 11.784639151260018 0.48019542435166973 -1.0509039643932483 -2.2032127516882443
P 4.1539872720056055 4.087082560191919 4.201709963367921 0.3276158783483196 0.21392735298321222 1.2915947015132339
Ni 3.577166958029511 5.471853636055029 6.618200309345125 0.22341498075867328 -1.0730802433799713 -0.32326582890974004
Ni 0.2860008795734871 0.14167519751348526 6.126478616564568 -0.7800156206439599 -1.5331776114301854 0.126480277813137
Ni 6.036101377516025 3.9351034410260595 1.0563792069753781 1.3610350556932431 0.30462970186579147 -0.6801596302865704
Ni 8.261688851122289 4.435137932493268 4.164866738088672 1.9514176771249812 0.13543105924852158 1.5829546828533123
Ni 1.73797654638731 4.360009826953038 7.93450208659267 0.5657013166349741 -0.1492255419294527 0.29763527282582936
Ni 3.0898912994109597 9.331456450873747 0.21362477046156333 1.3710186492685161 0.09574762461597058 1.3487816922471867
Ni 0.02149537379414928 6.365148882777877 13.731679883841748 1.3588046237008276 0.13830375281062635 -2.499509508208308
Ni 0.20108665610817175 0.5748422292337189 3.201473346133303 -0.6827399894192371 0.3721412144542043 -0.2874670740435759
Ni 6.823926710362203 0.7328682901285082 2.4443781744190316 -0.08134173360328571 2.630452449778489 -1.8097730328665798
Ni 1.1724342956080938 8.813093942584526 9.781575966852674 0.7687834993735663 0.29348936897825584 0.3805638913002607
Ni 5.64719911406562 0.207245354037235 10.115116071359921 1.425625795090435 1.8287056081050248 0.13409588537686584
Ni 7.212354009962037 5.473911812740835 2.5448898382164127 -0.5777086255084954 2.3126144767525396 1.0826162078948647
Ni 5.34232820009947 8.030241760644321 11.832155093652084 -0.7011891972633603 -1.0976597324915482 0.260636584114293
Ni 8.020602788382744 1.974508543971385 4.446936593322437 1.455939872692944 -0.41103197798213087 -1.5699271602453932
Ni 2.7262179981408545 0.4015716913389543 7.858797505320083 0.28825845959661966 0.1487714851111696 -1.361566759826997
Ni 7.779339778326321 8.454486922387172 3.409039067944256 1.7143997608708925 -2.8078670525476483 1.351695266349556
Ni 0.18227808762558265 3.2246133986727608 10.551116122753557 0.02268150075791578 2.0370937764375627 0.47224891581108347
Ni 5.374271847304501 5.495881219083887 11.36479066469078 -1.216905440229459 0.25249390040250064 0.6461755600316419
Ni 2.269693920592569 1.2390316778714103 3.4754203882206465 1.783115835290368 0.18759257174342533 1.206250274508458
Ni 8.026758692406805 2.366837997559239 8.9478775077564 0.44940055045800015 -1.1110901469648413 -0.7848757769497386
Ni 6.016562668525892 7.107861962836542 9.694722773315029 0.25550877596942445 -0.051364984735537356 -0.10556538203734078
Ni 2.5074924884448317 5.178596053886161 3.218252608281788 0.05874739324253753 -1.4212976000287263 2.0537043884110506
Ni 7.552642326354056 2.5371358205304335 6.542836584482947 0.22391943119891758 1.787168922313819 0.16303185168492568
Ni 4.830345108234577 1.1424650079387673 12.25258936897036 -1.1443836189106484 0.8013434355874586 -2.073366385616352
Ni 4.403399171655149 7.522114257684059 0.7138380718489862 -1.7059732273700943 -1.3579890697780677 0.025413812087414295
P 2.039215383849098 1.2856805784107692 5.688652282600405 0.9645588640381001 0.7462025287492567 0.02022738279046839
Ni 3.7856108973131857 8.191440766321254 9.684471935857719 -1.4444529550992673 -1.3068601123127364 0.18402516610714115
P 7.822207594094471 2.759288520363906 2.0864537983441642 0.3327534566852011 -0.1173808866150301 0.26150767386533674
Ni 4.877264086257594 5.499494669554893 2.4875058233524947 -0.888644729208289 0.30206194113861523 -0.06919738493126792
P 8.339080019715237 7.211618281644487 1.5662584883727433 -1.6553870297821105 1.4919036923820628 2.7485164785034732
P 3.97094924221911 2.837145339790745 8.312803343158677 -0.5711901076636873 0.5133554560434063 0.7729893099247978
P 7.091200975999866 0.40873246986255435 12.19129202449841 -0.2622401811559871 1.0905925412321216 -3.0730475472788816
Ni 4.073029218025042 2.564972427380532 6.20285000983129 -1.694736221003694 0.2538236749575177 -0.2837199482963178
Ni 5.853854954147146 9.105485414202356 0.12266360526731898 1.141709414512595 0.25690617053758336 3.4545619754178696
Ni 0.45890169070614095 6.347184073606302 2.9722483414346703 -0.7828880570957485 0.0411708178113549 0.9275959136605055
Ni 2.7066699761340436 3.990534516292632 10.323513445560206 -0.4875546929302184 -0.49272415294629984 -0.26491541399530505
Ni 2.0323889426242325 2.243645412944618 11.717957951846602 0.7678357907483164 -0.281360961145838 -0.8385071891219494
Ni 6.545420946611051 6.4241002783486785 0.5390215731856982 0.030215861461747966 -0.2220199001833596 -1.9954619598293895
Ni 2.10800132503171 6.331836222121202 9.765942205755564 -1.4743561704166026 0.08105839803491202 -0.05077414522907385
Ni 4.139421713921446 3.262182107951214 2.0550633443297976 -1.479287032059317 -1.4371713338361893 0.856619325341628
Ni 9.174373798568423 1.1980637175055413 0.8634498221753366 -1.4510460349357526 1.2087673845033569 2.9511867705156267
Ni 0.9086449608112827 3.3053386272363787 13.299578261229462 -2.885084993790547 -1.0966287201238725 -0.08164203845252391
Ni 6.760849648403114 4.519560428677992 9.720197599135625 -0.31507223735535417 0.6282858242354147 -0.4420294548049097
Ni 4.692205131852005 0.7517178358844797 3.200928534657648 -0.8390900582086128 -0.174103536118055 -0.31862627325519965
Ni 9.025849808590046 4.911424231431954 6.343272606601604 -1.2571300920774606 -1.5149492613476168 -0.012315841252875562
Ni 5.844616441602718 1.8863608411155195 5.003922044378044 -0.34107817450081257 -0.1083336888110973 -0.26243609921687705
Ni 7.743950314950484 4.4863502112047735 12.165544327289153 0.4762644647283798 -0.5146307232114041 0.949686574911958
Ni 2.0734220941068466 8.481587800919721 4.682213196258338 -0.26382732313744883 -0.39235111374317594 -0.09425715611337315
Ni 4.422490855844745 6.792448713991065 4.684067417878899 -1.5180808649980628 0.07577246704562433 -0.5061687084869798
Ni 7.420173977128297 6.6686973483757725 11.656648500452969 0.13763423754742748 1.758059149432056 0.427555943779083
Ni 1.8943793484751497 3.8518078198593546 5.468177788372282 0.26447292714124776 -0.20808734926266742 -0.4397368021159911
Ni 8.675894580886416 4.597398622071476 8.458609794870457 0.45135356041931296 0.5810600584792316 1.397959182413102
Ni 3.1320140738448825 7.70907306749193 6.641930807141959 -0.07136328223433516 -0.25471687619574845 0.5515173118251082
Ni 5.986621319906599 6.202087273765374 7.617673259212159 -0.46659146041499 0.7448910090266849 -1.0103589530913502
Ni 6.1024379953123615 1.587487509889906 7.92418326411361 -2.0556283449066406 -0.7533851625406252 0.5254730652425467
Ni 4.890702769323735 0.09831658576641154 6.12161256535039 -1.718547721600995 -0.907385757261218 0.4060810617347587
Ni 5.78275007181175 7.654834058360122 2.4327378348733846 0.0048748115937980565 1.3377218348885993 1.9128459874993702
P 3.498788609668712 8.166118673974175 3.063259796918975 0.27231530600380194 -0.029329859312368842 -0.8079174892605504
Ni 8.840446272567377 4.68464296230959 1.3382600079705835 0.44881562448880774 -3.066355479970687 0.11513965598933718
P 4.202536027947246 5.707584714204809 13.306856383763202 0.918642818232276 -1.1124919124083745 -0.015326860165057476
Ni 1.0161711887704217 6.305769088439896 5.513349644466533 3.1024848787033923 1.163809588845744 -0.8800083936895297
P 4.66080163961429 1.5369643944125608 0.686728811601428 -0.4260590475185823 1.2839448982774597 1.7035301651462404
P 8.94828169268022 5.691426630268737 10.658932916833045 0.9321292827544849 -0.9400382531889165 -0.9756130649697328
P 8.941855711172503 0.26581864113091486 8.301054041317899 0.4758124647926257 -0.07105063608992279 -0.22152162039070236
Ni 2.414278504516215 6.23140465026725 1.3347080234096511 0.5046669271304728 -0.9351266748199122 -2.7256573145171124
