# total energy = -381175.6309191003 ev
CRYSTAL
PRIMVEC
9.14010282951738 0.00000000000000 0.00000000000000

0.00000000000000 9.14010282951738 0.00000000000000

0.00000000000000 0.00000000000000 13.37746438675409

PRIMCOORD
 96 1
Ni 5.579392911457796 2.4576182432244584 12.551486126637727 0.1550372635152233 1.1742009593823972 0.7194597134377738
Ni 5.168700675344674 6.673563749757886 5.297181271445422 -1.3704452932635496 -0.7749127521997557 1.1447320033890027
Ni 5.468240122118742 7.423564019637447 11.977552569719032 2.4012661137536773 -1.8348993956205626 -1.1427334849017352
Ni 5.284185873379287 1.7126907303618508 4.195787923965517 -1.4205036433725213 0.6339527927132049 -1.0882368965157516
Ni 3.8552770526793823 7.9627661001800645 6.902022445596017 -0.560690493683944 0.2627351185145346 1.4554523915335644
Ni 5.239911215739424 0.47033597649894493 11.405666395812586 -1.0133604589218355 0.2568586051290995 1.706288701727984
Ni 0.49107212756986923 6.971202055163438 0.9328827574486143 1.1491437593034532 -1.2717910365237453 0.3901417647966829
Ni 2.9765201555965275 2.146562267006495 12.179619218914905 -0.5746261299284297 -1.2708916646379274 1.160740205891801
Ni 6.217984469121773 8.447977593877374 4.305764382082801 -0.10607420335295925 0.8587417710012694 -1.468028428426362
Ni 4.187702589087684 6.8009128011402575 3.077338230775095 0.5355659307021745 0.05110170377182167 0.6375165988050633
Ni 2.7239608368713637 6.194211061912589 13.001584087664709 -0.14236789557767093 -0.9282191490668014 1.1856068872264935
Ni 3.911296742331471 6.328095286749235 8.547865206597697 1.1339457114067761 -0.3655998137912607 -0.49480314696251554
Ni 2.918763846425121 9.050154982252083 10.402209249119455 0.2046364145995895 -0.3030106782051298 1.870458780782411
Ni 6.602810214499798 1.849728290641468 10.258280965389242 0.053096108494031145 0.7084775033946572 0.6945169274495072
Ni 5.292229163784547 1.3627070566029753 8.399950924065513 -0.34179474095186296 -0.6492557416188625 0.17329929504920477
Ni 5.73062505128215 2.5383619107699893 1.6913531605310788 -2.0405261991578794 -0.9567460528619006 -0.19960630837484977
Ni 0.888345778860307 2.8084885069484598 6.396594872673304 -0.6024277255217303 -0.17554129700584606 -0.31831362711078726
Ni 3.023664805494631 3.746738332722038 0.6488595490745105 3.0370112224806145 -0.7149903648125104 -0.34829089019916787
Ni 4.6537929878670345 4.159167188354478 8.801514939578936 -0.7557765455909371 -1.2843328777444978 0.8068378830431265
Ni 2.523911408348721 7.983413592254476 1.4093965293849628 1.2956539591842717 -0.5029180627601662 -0.18023587426803797
Ni 6.190948045236819 8.985214552332343 0.23719206399975068 -0.23894315830125945 0.03526216563640379 0.4026692078397323
Ni 5.090854420365583 4.305043227977148 4.719207789118632 -0.29477543477953105 -0.06262255992722762 -0.5863922693254224
Ni 1.8178476123078922 0.5531581034060165 5.879542917094445 1.0007502263569925 0.8311895724146136 -0.49959542614483643
Ni 7.159725814139453 3.7124446672668845 8.96399763185765 -0.3791636685186245 0.9047981990396998 -0.5575977136912333
P 8.711623857217969 5.4582134294203675 12.801042921615018 0.5034091434639717 -0.5602271808942804 -0.5292937245402174
Ni 7.66928654151814 1.8377913164718436 13.633241049384969 -0.07357006007766685 -0.6836897549270161 -0.4265539848771299
P 0.8370131338898283 1.8716919575094677 11.752115591844513 -0.0367264088867561 0.0536362972682173 -0.2324552365840706
Ni 8.255441329801462 3.2529808429691403 11.747112299608334 -0.7025202573699578 1.1994093403272246 0.8795060001318143
P 0.49550324937494883 3.79997943114322 8.275780800413763 -0.09245198458383433 -0.5847084538650963 0.4492987347728133
P 6.957729543734628 1.5987867701000893 5.274212193276765 2.5080656253084355 0.38894877292984625 1.4899396266771567
P 3.939384278030748 8.662815708622414 4.946263479187208 -0.17807357650939656 -0.36146316591506783 -1.6289599459388333
Ni 0.6548490583956094 4.851283187624368 5.130793013268792 1.0502511613005976 0.06746446140056123 -0.45430852928257887
Ni 7.912001969599594 4.060463218938112 5.769018052813166 -2.5686580421795115 -1.211036897263824 0.4405248452349252
Ni 8.558216372943102 8.693617854833468 3.6565026684880273 0.9160218356696611 -2.0775505989010288 0.35306414321809515
Ni 5.653336342569787 5.162147221684933 12.80279507930898 0.34188704355535315 -1.4088742866637092 -0.8462631789182846
Ni 7.388255802778903 6.821423191673671 5.9085316669232215 1.6547473393155825 -0.5329351779475467 -1.6991934854440995
Ni 8.303308047815493 7.291544375758384 9.87420105239425 -0.16451280710582636 -0.42559367784638963 -0.13017572438685324
Ni 7.368092736149353 0.06783601446563482 8.782720146328556 0.11816070220384811 0.35984311381314155 0.3870584978856689
Ni 6.776801210129944 5.674230617417997 3.7049424709434327 0.9415161232860237 1.758203131209088 0.333988871754199
Ni 6.339237071981068 -0.36884518975921027 6.50192907261237 -1.5661468672673544 2.7968997549028667 0.8261813205667449
Ni 2.320708644383107 5.483732596251602 2.454109357785164 0.34452139585440666 0.598548445071982 -0.09050668793200542
Ni 5.418198059654199 4.8391085707836785 2.0127730992382746 0.5163762451476009 0.9012511051183899 -0.5731078935116903
Ni 2.136882898211983 5.137898529133621 9.809828222854245 0.42096054994975246 -0.7152155934494392 -1.1702229485712556
Ni 8.97438353059344 5.048087879676706 2.789361927968861 0.015581399378024777 -0.07747119490428593 -0.2650254572106081
Ni 3.012842923858463 3.007029818520116 5.064212848918706 -0.3981592357845208 0.24184927620446092 -0.2659117164703033
Ni 6.082482446101341 5.216987838084433 7.405523284862559 -0.13765943435840808 -2.032667622345409 -2.348431743561465
Ni 2.0432608259153033 7.743979461054259 3.61349391507672 -0.8604489835003633 0.030565274381366716 1.7851953435272157
Ni 2.102918276455226 2.24433394594407 9.84281668163909 -1.339284808500345 0.3314213681373389 0.10184962374865039
Ni 0.9391821162523701 2.1545050162816892 0.5851713132292246 2.432375947784604 -1.3162518379402814 -2.49809745835213
Ni 9.023456742168259 4.964931225009598 10.002851654405838 -0.9864587494349851 0.15991618887407943 0.4564880534324009
Ni 1.073240003040948 4.484911309664774 0.7700682794406853 -3.4579069806307023 1.6081057281976432 0.29275943279076677
Ni 8.72909059354121 2.11746932000656 9.75286710262063 1.96230809878524 0.8020299201315219 -0.8294062552619457
Ni 4.293389596992254 2.3359726159476346 10.348003869859918 0.5624488711359475 0.013932036700059875 -1.093902322331645
Ni 0.4590909081062275 9.22574549586055 10.505135031988312 -0.09687685312440736 -0.4288924032023194 0.6545370446224599
Ni 3.49028533023251 6.715717903563634 10.788282618520569 0.9830129569782297 0.1125271580671546 0.24509683660748113
Ni 2.592855203265626 5.876903255425082 4.888285979529656 2.3535312695715596 -0.5034939898682942 0.641960750619346
P 6.223779294254653 7.564577524606029 2.3642795141125097 0.4835921087380446 -0.23447972321326718 -1.0915335649891524
Ni 7.978834400785117 1.9139923529589489 7.373123448693734 -1.172191385151536 1.135139217494245 -0.4403397258073126
P 2.7862506369984623 0.3391243177015013 8.452243279822982 1.4791844450431815 0.5288620363194376 -2.415319763633266
Ni 7.367260986800628 6.185975829349932 1.0356485885196371 -0.9373697052178178 1.8426317312678138 0.2798640648853374
P 7.383000243707284 9.184249429451594 11.208829713400682 -0.16265415663053276 -1.1513081139446237 -0.2805567200769878
P 3.962947462877067 4.5908176800349425 6.639583589826482 0.3731058923603187 -0.1422218569181099 -0.6162507474477517
P 8.894855496711433 2.4713466775298003 2.0999139246868066 -3.437439971025602 0.19435380172665884 2.650145814442358
Ni 4.630138401993383 -0.013810695229940745 2.290262048168378 1.0777406249701182 0.13247917570904927 -1.637157137037645
Ni 1.5727466174130602 3.2370496439050855 2.8483832273585494 1.589884062983294 -0.030985392637920828 0.5898522028495649
Ni 5.163253174115656 8.209768236443411 9.737576624758177 0.013018523746854997 -0.6304496646559529 -1.8263299087839966
Ni 1.2863871987803377 7.049267672608127 11.37013516044735 -0.45285919843056205 -0.7049283525908182 -0.8441602736426688
Ni 2.8337608910058956 2.8160108114979243 7.6584509497278725 0.7448503855967366 -0.16839337310715513 0.22225335635040436
Ni 8.395842447886917 7.658766283272169 12.409551299313634 -1.3327848025982982 -0.12839420700639823 -0.6642833253759464
Ni 8.698617491028555 5.6365916743624735 7.3470641017909655 0.23690170239119848 -0.38442774513104117 1.571728732230506
Ni 2.0040315049841944 5.221667570683858 7.338007173992588 0.15491153657063644 -0.4903623375823425 -0.6226044575799213
Ni 8.610442919960892 9.202346832863428 5.9723286699910325 0.05229700963150348 0.14083988896891872 -0.1286466893368365
Ni 3.6293428532161753 8.330317051392246 12.713487135502396 -0.876913813924606 1.8693015272495164 0.41902348082803964
Ni 1.7937817218112448 7.286060314118434 8.537711466471329 -0.8698044565733343 1.3506485702525965 1.7599990467672464
Ni 8.496868003397529 8.940080725035553 0.9702685196584268 0.5831555075556795 0.021954392783904125 0.7955124307279784
Ni 0.398714131481198 1.6670084969010672 4.182450686057159 -1.1318775160238377 1.0697750902661383 1.3257667194092522
Ni 6.042905801266369 5.914359396425942 9.937061194931903 0.0019661225874353237 -0.4280575660058499 0.6185068904717799
Ni 3.5958260964933473 4.3832642271683016 11.54406948744055 2.5028306021617417 0.30027913820657964 -0.43431280288694235
Ni 5.692410281754431 2.9262313103581863 6.735620477265287 0.413011727416321 0.23134452001839512 -0.5864861145908092
Ni 4.8252613151428045 6.816533236711382 0.7425922166142626 -0.31672622801900935 0.7156922759755415 0.9077786218242624
Ni 7.182100785630449 0.8908419409167576 2.5208896903851086 -0.7451458053499683 0.9266425486083009 0.13069483011511687
Ni 1.2418474781612103 0.426061318859082 2.5160070475050063 -1.3131575152856738 0.432740573303816 -2.6360692817446343
Ni 1.3602026684540647 8.893621582842444 12.928288689836505 -0.502754026378476 1.0586365571508156 -0.4715169227410653
Ni 7.4359945593546675 3.9661556389364376 1.0122901419745436 1.1337073701437248 -0.11124083515556325 -0.445543124385123
Ni 0.737432628621343 0.70741378921453 8.171115655994772 -0.004706918557366087 -0.49617611605064227 -0.7716515649499808
Ni 1.4137728105736431 7.474428691347984 6.280638959347929 -1.2603560552139261 -0.9605068054559135 -1.0747170076524457
Ni 4.142934365900226 1.171194484033188 6.380501893790871 -0.41507452348262064 -0.22314372937515764 -0.32718881811323003
Ni 7.148922212708752 3.352635383069765 3.570338006011407 0.5392528926354584 -1.1731761176623088 -0.0836518697937011
P 3.831914950093195 3.769286966164966 2.6753053279914543 -1.269267498770943 -1.1498089036912778 1.8492705767405702
Ni 3.0852142573003363 0.9359008193711333 3.5188883677259426 -0.6313629204988416 1.1996003732921083 2.0338225618854584
P 8.794195545310151 7.825335515482918 7.73113121864213 -0.10351775547969269 -0.05975552279207772 0.14439263931718357
Ni 1.4785121582332525 4.267797309339154 11.929326645667585 -2.4128854431601607 -0.5297038154944426 -0.4270748903776065
P 5.740688304391458 3.9296683488253037 10.824709583953664 0.4929630084299833 0.3823698341607479 0.3482314977161422
P 4.133757702756043 1.166514751433764 0.4042438936348142 0.6871885121088939 -0.29444401958204125 0.33239093113945983
P -0.21260427363703485 6.603367760766526 4.2749960542518615 0.282008879142482 0.6638506087139019 -0.05410063849914554
Ni 6.379937949452229 7.155448246060292 7.945771907168133 0.4169277746412755 2.1687558555619555 2.1807420813895537
