# total energy = -340887.8699992805 ev
CRYSTAL
PRIMVEC
9.11488076158817 0.00000000000000 0.00000000000000

0.00000000000000 9.11488076158817 0.00000000000000

0.00000000000000 0.00000000000000 13.34054934085475

PRIMCOORD
 96 1
Ni 6.257474882984917 2.3547291289816354 11.208676180183556 -0.38590484389719987 -1.5534199066189893 0.6589585707289232
Ni 4.747111829556499 0.07842625531407874 5.8751512178970495 -0.2597402975522688 1.798698005999341 -0.4365172667374289
Ni 3.1935898166766328 1.9136053694014126 4.645659562971829 -0.35067378860904763 0.19598902333723667 1.7524788271308012
Ni 3.4122649161908307 4.629265538796671 4.48426510736064 0.4426889427657796 0.11550578107950431 0.5124280591331304
Ni 3.7984715203972454 3.016004598726772 2.5471378771861732 0.36300299959836196 -0.33289075359401377 -0.2295912847727143
Ni 5.466594926557594 4.598274944892779 2.9057719676986835 -1.0333155618875236 1.320543780447416 -1.0890059134712922
Ni 5.175802892052927 4.708337127654395 11.69551288874813 0.6157974619604168 -0.34766071281433675 -0.663369041091793
Ni 5.767276606469825 7.761156728962878 12.446438677728889 0.43431151733536166 0.9107783278825345 1.5322939232736512
Ni 1.9009539151841766 6.709354201625903 0.19176888358922786 0.7990338136176754 -0.3444105813081553 0.6046481302118168
Ni 2.8774310695735745 1.78524962135594 0.2228351310017676 -0.17735598161708163 -1.3087203054499268 -0.2627996532038828
Ni 8.01629135071695 8.75998357048532 7.0993197825752485 -0.35437000651371225 0.7709807641352012 -1.3357726815820286
Ni 8.710261897030692 2.4909145594281212 1.3435397749557108 2.35335592033596 0.5605274857435184 -1.102090257459076
Ni 7.065645767834502 0.8383466084314151 4.704077743968722 0.7168808969670041 -0.0385943153334303 0.3330139094354394
Ni 0.9111198148222014 7.716648767188554 2.28626361514349 1.1259884042329127 -1.8706914656185072 1.0376399002944903
Ni 7.618098678574176 3.8946517400660303 3.782246121512446 1.8687261143620204 -0.23112237670526006 -1.638490768247404
Ni 7.74921623542932 3.654492867071987 12.512594480833139 1.0225742642106195 0.8215901016516367 0.984477200228582
Ni 7.9331271804878 7.421536279298462 9.037021250224992 0.9804925045492211 0.1812044088288944 0.5156218834800798
Ni 7.265635362200765 0.8217502339078248 -0.03021674054435072 -2.447185759103927 -0.46662308498387384 1.1496188991676588
Ni 1.8665270113091765 6.406803971198878 9.018825214163128 0.9673263994809082 0.7228540838313035 0.7251950732596543
Ni 9.12107867874902 4.871839855139106 1.2692051895250018 0.373870281330169 0.2045957911696412 -0.2640263265221324
Ni 6.269141930101677 2.059379654196985 6.616272129859452 1.035699488738668 0.0636949670558 0.8691804498360902
Ni 3.439810085243055 4.272518228560074 0.30647418650809216 0.32001441185197793 -0.1772521090493657 -0.5121280113942084
Ni 6.129009756372725 5.959937836865874 4.815564582561861 0.6400820455393944 -0.9276715040934475 -0.15791895593839256
Ni 5.841617572316927 2.9799187865898578 9.009459674387761 -2.3702431830096016 1.215833547321519 -0.06162754300380999
P 0.12362694801096125 5.591988338421076 12.453202830592442 1.0665959212072083 -0.583582310680453 -0.45357216533718664
P 4.131529256058485 6.159362308637419 12.94154622891358 -1.2519266934996502 1.3570534453376757 -0.426640116833033
P 2.536890016972601 8.847923938127892 1.323971949369571 0.5694116756070259 -0.12666128347569153 0.06820596755227608
P 6.436509366943813 7.858430734298859 5.874737402319627 1.4580186095988437 -0.31776058282079467 -0.5134104776510577
P 4.882249048738589 1.0907686417308395 12.743946556230142 0.6329726881881228 -0.24496905278036518 -2.0112400485992525
P 3.9301633147276664 5.921947014691926 8.280238238996398 0.500518452179738 0.929565892902683 -0.9472016037065752
P 5.0847178906171635 1.196218694929112 3.8237616679989332 0.6274468732738872 0.8329194106215269 -0.7614162603752177
P 0.24348853886259963 5.563331153940537 3.4064022250146597 0.6948804814365129 2.1731611837185025 0.2360938617779224
Ni 0.9446662212351086 0.11860738328658675 4.530530418106927 0.010169227223517971 -0.3061250554643954 0.4602704032929686
Ni 2.1729966403769887 6.756687776373818 4.391948685561226 -0.3795292793881592 0.37563148699564985 0.3429332254316803
Ni 5.931162158938054 5.9166603839671446 9.135287866053956 -0.1059451339742627 -1.0424666322591722 0.5139362682475407
Ni 8.534700182565143 2.5241474139497653 10.26327165362309 1.1784432795985187 -0.23905654395067216 -0.22283699676801622
Ni 2.5151145673148365 5.482518622895857 6.6810133035007935 -1.1058692648855342 -1.0379587170864897 0.2699933427388447
Ni 0.7073438990713274 9.131743089004182 8.671316746862116 -0.44946071427197426 -2.6227072586154314 1.6497228895177973
Ni 1.6494743605346527 1.281743619223294 11.185183487028292 -0.8369205613611199 -0.8341923637966795 0.6496030976559523
Ni 4.481832345739185 7.436867508400328 1.5032397742708024 -0.5112677202764421 0.20033778722423562 -0.8579552705442322
Ni 5.6432960010931374 8.195936531673365 7.948833031180681 0.7294024264727825 -0.4127363622677473 1.0392344984751198
Ni 5.458765244156581 3.2562090461236144 4.757520111667928 -1.4753000223871109 -1.16154187585749 -0.2512677413048834
Ni 0.8063506432017585 7.447331391283172 6.564723834340607 0.6478508908515359 -0.07294245379599697 -0.0701836601039372
Ni 5.40156025376222 4.58089286766492 6.994529646729518 -0.5672583767094489 0.20075584859826068 -0.06666844786182712
Ni 0.5604575988474393 7.365643831704737 11.221148982741816 1.6531491415905273 0.14833491179438324 -0.8085407246668462
Ni 4.801901376602469 0.5292783269159559 10.416994114266952 -0.25505626181303814 -0.9475049938796071 -0.7656153860582299
Ni 8.332085502597609 7.678712634297966 4.4045691491845576 -0.2583804410902647 -0.9076356684884949 0.483363023446374
Ni 7.3418084190404205 6.151250064939047 7.062833827181751 -0.037224431569097174 0.1315252964362122 -0.4929308696404671
Ni 2.338130931481934 5.317393446671473 2.261036360217666 0.19639294364387466 0.3440179738554269 0.5536991499677755
Ni 2.4661403140661275 5.654926588687657 11.46105263908018 -1.7743979958013956 -1.0410448122109812 0.6233827305068426
Ni 1.1861376370297871 3.611106035606538 3.67889613679519 0.18638158215445966 -0.07027879092090476 -0.1290691215862358
Ni 1.8304411991722624 1.3857261766514117 2.7508609266297994 -0.58759914514933 0.029852307474742133 -1.7582180436074235
Ni 1.0459963484202754 3.438078257936661 8.054743385847232 0.2748223886963718 0.3807762644213829 0.1769698019222565
Ni 3.727940574624211 2.850924996905187 7.1191309754723395 0.24623326420476951 -0.360313882801973 0.3785178074045094
Ni 4.369783119015495 6.837700834790816 6.136452056349939 -0.7320856297319005 0.12324248760212969 0.23449052184654454
Ni 0.9045744190920882 8.893115515944215 13.231810511833826 0.02059942141790646 1.806460166443263 -0.578493583303636
P 0.2037467481330821 5.723579869065338 7.905249318295136 -0.5503299763852264 -0.10279321860884232 -0.6322278396022982
P 8.737378666696596 1.6053674535049667 7.92204530870299 -0.6483211456197351 2.0781944031326143 -0.5261860321491711
P 1.8378515970675167 3.497233832770855 10.318620854335439 -0.10616702017708168 -1.2972704117417724 -0.22438042999573615
P 4.318156435523835 6.644766157977968 3.501480455623744 -1.4987014320301868 -2.154950574247747 0.9544397733262272
P 7.087266264522747 4.226652149582313 10.480562202780229 -0.6298444269717862 0.7610581057048507 -1.2339384844523458
P 6.161732177583012 7.859734162218935 10.272475860012543 0.6720022912867588 0.7380886413928708 -0.7119238100720449
P 2.605124012844523 8.835901410669294 5.878432574898639 -0.0015624593911134383 -1.634529983827443 -0.6625555440515621
P 7.06900915876113 4.021895472683187 1.6380862287630287 -0.40498937133247676 -0.6950843699172029 -1.6730667064500604
Ni 5.528803986379376 3.007527759806001 0.09922823572803827 0.2033500916879982 0.312346610894075 1.4578499452314635
Ni 1.4256584683846327 1.2548911810936276 6.768687516631017 0.7333485556047242 0.4989071418285601 -0.4696991528060362
Ni 7.043496608073779 1.0451760091698785 9.005137398026223 -0.5106105463084173 -1.8409335176297843 0.46007114279796896
Ni 2.420046363074368 1.4710505735732746 8.972867074891711 2.04295152076992 1.2884625836421553 0.16302285282386117
Ni 6.935959247227274 1.6665465318234733 2.3299804052852098 -2.8696671165735803 1.0803667497390557 1.6639773425542828
Ni 4.258964401167401 6.933006025925844 10.807312441093968 -0.46613946047923593 0.3389485297523195 -1.6392279035237447
Ni 8.562236236736808 7.2176181714108525 0.3266645584364778 -1.7112439888507303 -0.19890079766739294 -0.0038111462159740816
Ni 7.724688091842446 3.7904048511016732 7.985425630676729 0.7702369439906412 0.2559108965038496 -0.32859495443213727
Ni 3.2812749676635273 8.60762834192545 12.364234304422704 -0.09673287134737535 0.13678500217325476 0.10694143644926098
Ni 0.17534933774850103 4.952488318333704 10.021086542680564 -0.3741826703642653 -0.2060428080288129 0.6723655881634485
Ni 9.07216822966423 2.6483741211015728 5.48300535751776 -1.273154492530175 -0.26048257503493205 1.505841642619394
Ni 3.713229157400422 2.505771814740869 11.263852198165266 0.2323588202155224 0.7343785395311352 0.55182070199814
Ni 1.2617182266330438 3.4135774589914663 12.519745104632436 -0.8712792413466479 0.6814585516036522 0.14053984122999666
Ni 3.244113599620537 8.33480173700448 8.081450897375994 0.2080402980748159 -0.07622652386390744 -1.3091442803612228
Ni 5.8762267738031255 8.09370403131276 3.710073585750561 -0.044787331518019634 0.8172585641558184 -1.2330617382743474
Ni 3.399011879856637 8.852508723049556 3.5204375842123663 0.2027602806227992 -1.1109677624543641 -0.11895722996321449
Ni 3.6360078892963714 4.486116339602369 9.844684436227388 1.15479170161785 -0.29197010412025204 -1.5077990234560807
Ni 7.503059771026817 6.326611252032277 11.146802547966379 -0.3220535537691937 -1.127139744228536 1.198874036649045
Ni 8.530543797029797 0.1431255005048453 1.9167964890854576 -0.27294368361642024 -0.36249237851053057 0.5481658788543721
Ni 4.768303926858426 0.8865342474877991 1.5258519699639717 -0.2173546334972063 -0.913272297948982 0.7848991739885063
Ni 5.985122251853067 5.633588653296771 0.5411103533708507 0.9285855312672846 -0.0002992764079736782 0.25194471276724995
Ni 7.949907675598701 8.912639590103666 11.27496506054398 -0.2857511197937337 0.38684226810980477 -1.007197267533917
Ni -0.03818770359404294 5.176532082497724 5.58296642964282 0.6928804202873485 0.03522488464056514 0.021325758060969726
Ni 7.375788693767981 6.277673458305808 2.585157866977913 0.4645931990380386 -0.1502436987813219 -0.42679335458144557
P 8.856254938959703 1.7067431550929333 3.5625665621605394 -0.5381434616213635 -0.35793252705399003 -0.6331061284421935
P 1.9207878952826676 3.2145631568451196 1.4952624308047182 -1.2248720033747034 1.2813105459784062 -0.10499074048079338
P 4.916302242510631 1.130217844794382 7.994043750246179 -1.145998271695936 0.2556231900601017 1.0517334022730789
P 8.855215842575866 1.5965898235257172 12.312766219852788 1.3888970722108338 0.8537265771748652 -0.3784512158326321
P 6.684206246160951 7.950536602357339 1.2676419875089673 -0.02427018540127433 0.2547024780180452 0.20160636952401406
P 1.999868599020952 3.3768080308125548 5.992815211045679 0.029519092505039483 0.751121820427745 -1.1876871667942899
P 7.148417998199574 4.023390313095022 5.766452621267205 -0.09135900862997169 0.8624690992541855 2.682382048768245
P 2.4486306285104287 8.48413082521844 10.014176551728053 -0.5899802437869969 0.39045312538951465 2.1076250496889055
