# total energy = -381167.30805965327 ev
CRYSTAL
PRIMVEC
9.29588452572486 0.00000000000000 0.00000000000000
0.00000000000000 9.29588452572486 0.00000000000000
0.00000000000000 0.00000000000000 13.60546664580301
PRIMCOORD
 96 1
Ni 2.5993896093462707 2.0782809123605137 1.7491192174187133 -0.8021435628912508 -2.0679956082227413 0.31427390982377484
Ni 8.448620462872153 2.310361966428558 7.037223520491823 0.32026689418241616 -0.010478530933820663 0.021035737624376674
Ni 5.172509048909785 4.835440274556374 2.0067518693925823 -1.7705734798489832 0.610381176040852 -0.72374291419416
Ni 9.144956583921942 7.061274762628739 12.751438157819656 -1.20335058436316 -0.9727252018989764 0.5504713870590972
Ni 4.822044904897155 1.2959857467314089 11.53622528166834 -0.07641755682879098 -0.1174464497456429 -0.1954002407133022
Ni 4.576391859363144 5.70788692870394 6.383766526178381 -0.912750364007241 -0.6875458954483127 -3.03399043337642
Ni 8.133731669092576 7.028822829609771 2.863923526021739 0.9970385818333604 -1.6555418101924197 -1.4307314917481164
Ni 3.2576311954456942 4.927664745332993 0.18180983992502645 1.359263565615117 2.1343125862824213 0.024597229723389895
Ni 7.110189707213616 6.258956261645049 4.612457102712811 -1.3687702195539717 -1.5645553544105184 -0.03545962635919054
Ni 7.37754864320861 5.4180505438290085 11.99702878671083 1.9315235093042156 1.9994751947538403 -1.5408940062378367
Ni 9.079141721196565 8.004583944820872 5.125043332728706 0.13841071070213581 -0.6725450511641062 -0.24556734848599643
Ni 6.682634792497377 8.707659582180819 0.9156223196015609 0.48751612638279906 0.7463076868685534 0.047193369856350975
Ni 1.2972685788014797 5.099908190451425 12.577737118001316 -1.2810300386235098 0.2559744027519334 -0.9316937378789631
Ni 2.714677169730469 8.300230257549387 5.536241208963084 -2.308395039354554 0.054375489427087 -1.6167448919298804
Ni 1.1091477628447783 3.269213867614595 5.73109875246457 -0.9499979355047898 1.0338999736360839 1.0351101918941013
Ni 1.1812652353057205 2.035166599744653 11.454469836089649 1.2887214937304967 0.6968525175612191 0.08491222456336343
Ni 2.686417680650646 4.227573086918648 2.496617098352917 0.49322474673180217 1.3592995610593752 -0.19754814029424042
Ni 8.240680821021312 7.668026444118577 10.597869876361285 0.5732256500364773 -0.28328491764142827 -0.8351565274821616
Ni 2.1996665730198313 2.8574247731218363 7.783891278934306 -2.014720550948685 -1.61668909899128 0.8184824092605903
Ni 4.473328387182883 9.021237656236627 13.288894597402708 -0.6655915026644085 -1.8931094283023915 -0.8385393279114656
Ni 6.199732181076776 1.4952337365132902 13.450704341684563 1.458442841620456 0.18537730925966137 -0.7570325294852253
Ni 5.635648609743644 2.2983795712233306 5.915575581671505 0.2015965993320012 -0.2038290882069457 -1.1295123582257707
Ni 0.5207294248954752 0.3888914716304496 6.867522499802118 -0.17277119045987666 -0.4685634965396962 1.8622183951504898
Ni 1.751902405257693 2.5797659970280127 3.7790001771992916 0.027634473887816924 0.9976939560291721 -1.338056849630515
P 6.64356418966761 9.503554626929589 10.455773914477975 2.0128279619116625 1.5177543348965796 -0.365704457689925
Ni 6.675802317341565 7.9668519493685706 6.085221756642273 -0.3728099583864547 -0.15869131532804281 0.49027440585422666
P 4.731912008147826 1.6291130660289503 7.836340518831075 -0.42804162516624994 -0.6052142871279318 0.3572432142964493
Ni 1.7967085688645175 3.197747107073254 13.663562436059133 -0.7618363786317718 -0.30541106011650626 -1.9172040073577494
P 3.032977553145669 6.54193228371047 9.401880889491903 1.5897485658466943 0.5301637858499967 1.4656285607356179
P 0.6979192101913333 1.5752248232014068 8.985608389873093 -0.3085920289476492 1.5251208025639797 -0.6299171891912506
P 1.442758468139738 8.190213463713958 3.5318021556504555 -0.11125677599516323 0.08942348217015568 -0.8301091948662412
Ni 7.290055777675948 4.392407712038193 2.543732359685869 1.9086944272248418 0.7223506618323237 0.38375411610278426
Ni 7.919080398585278 9.19247714582196 2.9051210272401464 -1.1824673131562475 1.5682274039454671 1.1888942997285137
Ni 8.474463021964885 2.5030842452452964 3.8091225615460864 0.23580486978259388 -0.8151482026810348 -0.529990493496926
Ni 8.761306132009652 0.6224849661173381 11.429516893149858 -3.46109694832291 0.4876271980393666 -1.1149642852082668
Ni 2.409493279437515 7.205574778742584 13.203098230803292 0.04965802934675964 0.44465275136036964 1.6863994190032245
Ni 6.820334730569552 6.523377698117271 0.5154856164119462 0.3899201357041801 -1.270065054971574 0.23843073744121518
Ni 1.6336494576970273 6.364408776158703 1.8542621789763285 -0.07516208715513507 0.21482518220713326 0.41197377307010985
Ni 5.229195352991614 3.0702261626005543 9.361649230679875 0.08836315922644136 -0.07101181243218738 0.8558603356884162
Ni 2.6580559368406003 5.116826700361057 7.891469762248144 -1.547061311390813 1.6068744268937036 -0.703036534884744
Ni 4.429349557302409 2.370078728878815 3.135298284149129 0.7786112840972654 2.3270401652595663 0.9798322452574029
Ni 0.517274144602393 0.9897700132516588 2.3702897454584573 1.0029202374251178 -1.298239974743893 -0.17993916896322562
Ni 4.086312825057798 3.639087818600472 7.195577984480596 2.557407923186989 -0.8263530702579187 -0.4829765866412327
Ni 2.476758300155146 8.99281084123462 1.2363963378997025 0.18248019021752443 -0.27031575907526995 0.365830441744828
Ni 1.4451475104731308 7.183041554555251 11.127679521300568 0.7104156009576346 -0.6852930948583938 -0.5976220766029707
Ni 7.509252735735888 0.7574082234697298 5.424172813403999 0.738573037228457 0.22360909904735038 0.2982402533996799
Ni 0.10844300057844991 8.129269644501026 1.158575840257684 -0.23345436727254634 -0.044177208737846495 0.9397189221762847
Ni 4.276013941390674 2.9571231350893026 0.6135088599806681 1.7431549786267142 -0.321560159072543 -0.8590487607187269
Ni 6.090663567467052 7.544168078164774 8.932002741936348 1.0719687554833472 -0.48717211277981903 -0.5056760851212776
Ni 5.629113602893934 7.549373773521584 3.0515563080387396 1.6869655759193396 0.9514251548696194 -1.037843017444232
Ni 6.956045349344662 0.40636587543711106 7.9620692167595015 -0.6084952718720488 0.8281991223277221 0.045780034448592126
Ni 0.30403398937217285 4.672502009888238 3.2343598780238425 0.47975010928413503 0.5054948223484068 0.5118958407787442
Ni 3.1117229913019777 0.5047776869806805 3.5198020982645533 -0.4788142277334269 -1.3594103756056266 -0.009773534446996072
Ni 4.813557762288643 0.8512204313301754 1.539975758516611 -0.5330341654192562 -1.1779154321195069 1.5358929534788195
Ni 1.0083617823831212 6.721928496556723 8.879430796363312 -1.145787955457343 -0.6216204964000972 -1.3869846856794694
Ni 6.550279988050497 4.032712754651792 0.08719353804964508 -0.09467393193581759 -1.0983099644810375 0.9870760713040097
P 4.124621165353176 6.74884937825908 1.319777633688941 -0.3205096063208416 0.6748184205793152 -1.0448654715086523
Ni 6.656550540405936 2.2463505053089334 1.9492689080034709 0.6635834710954442 -0.24848426502247525 0.6773193326242981
P 6.041376787499545 5.724926285112925 7.69624503130631 1.266532616338283 0.5709543375037972 2.3514278500753116
Ni 6.180127160527648 7.902942742979168 11.69093297014198 -0.5727265989128717 -0.7876533396948757 1.0853230653030663
P 9.133931664826985 5.15660379041782 10.707815091885557 1.4376331039639563 -0.15880752919093294 0.08846163247751862
P 5.4372837289955065 5.2092463847135555 12.320539513425123 -3.2394709411438596 -0.26637785747344445 -0.05738085191231408
P 0.73875881985396 6.519371171869441 6.524528528626508 1.496262483571391 -0.09913942390633894 0.5266352038714479
Ni 0.9346918971997018 9.169116587908277 12.814254168184126 2.3575385909587396 0.20332489487701758 0.32548263405540073
Ni 0.0955254393859099 3.0030633966131464 1.548914681115018 -1.3876426309784424 1.1137980328143076 -0.7674303277797815
Ni 5.720111016907877 0.6423958212686777 3.9258165892650796 -0.05503420605700845 -0.6281456991131247 -0.12504945890388142
Ni 3.079103732360827 2.0650249809697816 9.908575387870037 0.22090095608756796 -0.9756999682565841 -0.19684211536615132
Ni 3.0578812278972634 1.7111957267443565 5.5139961571972895 -0.22680575160777713 -0.37314728712121537 1.226632437709236
Ni 3.187921357087276 9.076789862401437 11.083203361595826 -1.8105340794023206 -0.8283641871506766 0.5829135667482026
Ni 7.403605007646354 3.829867257542972 5.220281529281535 -0.019569437491495333 0.8361813692022503 0.22165274665192797
Ni 2.6466312947093167 0.4317231893555125 8.012612800320296 0.9416367080242879 -0.07250896580300416 -0.28167874949657296
Ni 3.60949901802775 3.8599115564594153 4.818851768548828 1.1017390447672446 -0.12899893046993266 0.34729998704080833
Ni 7.869133610813605 5.826679037569418 9.031594201231307 -0.22113029848955465 -1.0678552475356062 1.1486159118244412
Ni 0.27447679480697407 4.218407344736837 8.058980672534162 -0.2859843188504623 0.4429589085977146 0.2773143018802901
Ni 3.9920990349841126 3.499919130766911 11.687013825209066 -0.016053968139069126 0.9128928031223761 0.3392580905729383
Ni 8.409903103655884 7.783406963348432 7.749606197478977 0.8623428580889665 1.6465041254701835 0.6165849908587188
Ni 8.48329411230233 3.4737976951372063 12.276131213677713 2.6356954433449835 -0.723493002966883 0.2981168404479382
Ni 4.026391553147095 6.756853134870175 11.71275598874849 -0.14800735325163542 -0.323675662753649 -1.15972282037088
Ni 4.683629183713419 9.445827183776396 6.210827748894432 0.9038170660733531 0.25612738339002983 -0.002480600330008631
Ni 6.629927127009682 3.6869616241139873 7.5196185766151356 0.4566068383984523 0.4582767699017075 0.6412400704032376
Ni 2.273959282469155 5.570149807093502 4.885572980019362 -2.379101147620864 1.1307953387032526 1.2848697240845741
Ni 3.649369066930171 6.5489134930193345 3.3701690331753484 -1.4653940761273085 -0.30774202224252806 0.7015296113219144
Ni 5.468099586330904 5.619148414639471 10.098643691643261 -0.3104640491593814 -0.7821154405957821 -0.10301201948786777
Ni 2.0495659249369704 4.1277817661055245 10.164848051931939 -0.871355346000222 1.2199234011201765 -0.0019231851646418492
Ni 4.833813494757371 9.283363009221114 9.450779101484562 -1.6085412730731652 1.3647423293415013 -1.1712711873301118
Ni 6.588058462925629 2.6798733779163713 11.433217584795475 -0.7602687770343358 0.6347678324153325 -0.3688088076468616
Ni 0.673593739459728 0.9406877427445984 4.764878933171736 -0.23497568901307922 -1.1322428697830564 -0.3291775664084847
Ni 0.9504391256540503 8.93419099316312 9.67092888771249 0.06619562199046664 0.2717663754788674 0.04134770970885137
P 8.948311441818465 5.333095454782792 1.0863747048356502 -0.20951379729654884 0.41021668116968707 0.15758625518932215
Ni 7.839182270742819 2.4343969541891086 9.532996552526171 0.986097252330508 -0.568710278664627 -0.6891330374297744
P 2.9427516975506824 1.4321983432730674 13.104187230258542 -0.05561887491588485 -0.9029907135173159 -0.7796523237672701
Ni 8.039796755555862 5.858043352094195 6.708148277276483 -0.4433443169615914 -2.1000559790923963 -1.268311562615577
P 5.619613208867757 4.280466670097659 4.003463253865719 0.13157671849943792 -0.36196144570772504 1.1556658766926873
P 8.54775177588111 0.6860939154352667 0.3892577294823395 -0.792008788450094 0.7996128260495972 0.2745395673486304
P 4.750903500315615 7.5032568901909915 5.120526462418217 0.17544333797540107 0.2968958235566435 -0.9497277125625384
Ni 3.7862602630451274 7.596866447767905 7.310843234741837 0.09542006607322276 -0.39290647202601364 3.426489642661686
