# total energy = -381169.72963308496 ev
CRYSTAL
PRIMVEC
9.23476974729842 0.00000000000000 0.00000000000000

0.00000000000000 9.23476974729842 0.00000000000000

0.00000000000000 0.00000000000000 13.51601898999940

PRIMCOORD
 96 1
Ni 6.342449195179586 0.5985746973410825 11.603191930594138 -0.08989630804151616 -0.12509342476793942 -1.2528450915488618
Ni 7.352899246996866 6.930436228841854 1.380513138662804 0.4422981350852641 0.2920775762323938 0.4193592669009036
Ni 0.4839231822035192 6.109926924120827 1.5312569049612135 0.4972258974713953 -0.3505241504050608 -0.18095166938813997
Ni 6.08237037076925 3.199238272050921 1.749905781214318 1.0659042944568224 -0.918651045762392 -0.41881419303071094
Ni 6.3534939799679515 7.36128441805693 11.269994968626238 -1.8252423321467726 -0.424938560760894 0.4644273628841356
Ni 7.783027124160527 4.689212985173143 0.923390182156875 1.4186141396592922 -2.20497961378068 1.9515454609520972
Ni 4.1657308191920945 8.375520725529086 8.065671108796927 -0.6588852942888265 1.0457170208756699 -1.0567943617357543
Ni 1.3220681269833618 4.516670544549534 3.3441465872558784 0.5318360313460969 -0.3272440968311977 -0.48519030646309985
Ni 5.497698619497471 6.025585770716019 7.641511663413133 2.3006009972314314 0.03560257969495804 0.11474499165407981
Ni 3.758311241187792 6.665287515761942 12.781410047001929 1.5869519769381635 -0.10575332967843078 0.7778782625859829
Ni 3.237479454165156 3.982817731982084 10.925052302835324 0.20541494463682688 0.36048383272093404 0.66548248789037
Ni 8.433247272111089 4.18896550023518 12.180595917962536 1.7766883344974693 0.44325304279936567 0.5334833371415328
Ni 4.028021930593333 4.348847071339683 3.1607348224718117 -0.8314338272149359 -2.1690481899913934 1.253887416770447
Ni 1.3634676003999555 7.604833004364275 13.025388050109155 -2.2482353391455216 -2.0892771433093373 -0.1090605396747928
Ni 5.246282009243897 7.671203295563262 1.132369330858225 -0.9686273776805191 -0.0846196330236091 0.6827389609779725
Ni 6.812849903833269 2.040385468102331 4.896434757164438 -0.6187670861117022 0.42164883426602867 -0.6464738079983511
Ni 3.881290671812102 6.59668241024959 3.455640734568072 0.028835693284769693 0.4596258277304342 0.147126750418895
Ni 5.2768398628097035 2.6103924047888882 10.285284990923182 1.6252794117634524 -0.3550510917411369 0.990383795521004
Ni 2.3195433271052783 1.066246531492288 5.904270445625877 0.4088192866015282 -1.4955099216760825 1.2422722011290217
Ni 3.8376748536219227 2.809420165456841 1.0648188360673037 -0.3786671884981801 0.6801238919526287 1.4314326315801993
Ni 8.775857235027805 7.318675189784755 3.43236634401446 1.2881424812985751 1.9189387306606691 0.06543508967535827
Ni 0.27894176538752347 6.523875484437316 10.656826564428084 -0.6034487105870768 -0.3195611263646432 0.4287990721575647
Ni 2.140194861072785 3.986696335335859 8.671850639142374 -1.250272445725679 0.8060724656320117 0.43732485024038875
Ni 3.2262130348994313 2.846183784388686 4.871268162260377 1.2714020286154426 0.523150330646641 -0.030772505296166354
P 4.890789542330719 0.4311400079435983 9.674374487963119 1.2063850003141094 -0.673956329689336 0.41712215004026876
Ni 6.046373237738271 0.8564454882707335 0.42512632579127035 0.5377819645168868 0.8692280152445739 0.2336153183304428
P 2.9885008231625267 1.9011528424717292 2.8751274001777305 -0.9283852423310204 0.1079847901121108 0.603069215760471
Ni 7.891101636182476 6.823405245817468 8.068387978098547 -0.43650981053826116 0.13367576712031173 -3.8481081379104114
P 6.417749508862143 3.524431458955212 8.674621993586344 2.0964412651579445 0.14266511510311558 -1.160508292386653
P 8.828984866204621 6.052772933271998 13.047513635288459 -0.013678011707724829 2.385519392442382 -0.737697062381407
P 8.565997089278955 1.1735083837639226 10.625889161819801 0.2790258852547582 0.11749710047792022 1.0926152280891055
Ni 4.440686857895121 4.055689301183588 8.522215045230757 -0.2449274009091524 1.4948334644343482 1.6631538182117227
Ni 3.319530384637259 5.946785479245174 7.47110153115711 -1.9596832595678828 0.6000545973038633 0.7805830631116557
Ni 1.2937081486513609 3.2153067716594137 6.519938702033234 0.6642560716824367 -0.7080275603414322 -0.864481501698524
Ni 2.116073642120266 0.24290676979999481 13.197906480331051 1.9514647283128326 2.1654548162131806 1.0688448651423852
Ni 5.062694783831922 1.8183261913288717 3.4250948862031225 0.1268073221352526 1.2466947556767496 -0.7473921781819838
Ni 8.87574050615738 4.098603276862132 7.602166002820062 -1.8972283355667714 0.9206397940576468 1.3021873894274156
Ni 6.58321811575006 9.102934314989644 2.530888423852431 0.5379511431048993 -0.19856629714610963 0.4853628274852221
Ni 9.11089468663477 8.540610706851513 1.450336310323639 -0.16416185152431081 0.657120746189236 -0.5541442079249941
Ni 8.307654401607929 1.7729188277800445 8.565871496408452 -0.4332139133958088 0.29244447265350926 0.6155290387903786
Ni 5.269368933968743 3.597921757739342 6.373790157232059 0.4778022415291449 0.439024863650631 -1.009130737111204
Ni 8.314368079317914 5.280108971350742 3.3617175839254645 -1.056260600719471 -2.2317260286365888 0.32104053912364705
Ni 0.7864542437979013 3.0197974583195277 10.459601430842648 0.20316008716437914 0.043649618369150635 0.30105535425097185
Ni 2.518303279446423 7.300732031888604 1.5221745087744591 0.776556715561082 0.8259380942076873 0.3539169781366937
Ni 6.466813841287387 5.710874047636809 13.006140942704548 -1.3028538193668209 0.5130754629091422 -0.8408021558037133
Ni 4.715938409234624 1.1177211388588049 5.861653829537789 -0.7756244335547997 -0.4231403312098906 -1.4512702351314166
Ni 4.128764035322671 1.9742460461505917 12.550367186079537 1.0469141265075648 -1.2094975778011623 -1.8963436189689729
Ni 0.21771801144819883 6.1667946371030675 5.697934288067027 1.8615110846708198 -2.3872949962855663 0.2244015130416587
Ni 0.7548399325566862 6.353318519340043 8.246595950049633 1.4226631129176852 -2.243257426314956 -1.3627029303139693
Ni 1.0216148886142158 1.3309981494669323 1.6803116318467533 0.6101965708338717 1.174836278973551 0.020992285980950945
Ni 3.3314062987157196 1.8381717118223493 9.840945726375896 -1.5325803441658186 -0.23915218898827204 0.286631465516158
Ni 8.462309092954726 0.33633493677650167 4.03845167970703 -0.19919930274441824 1.1461895617711355 -0.5933301340958362
Ni 3.4177513971866436 8.572470662971801 11.269940483483886 0.44035386687469963 0.08163458225335618 -0.9100568763354779
Ni 8.59673963824256 2.7231951189944863 3.1338644125230584 -1.9401397902183168 0.7833945644185218 -2.109823857112437
Ni 3.0751968428892686 7.677076609213264 5.534350497713646 -1.5787884672907646 0.08343923956226276 0.18348034934726465
Ni 5.134615171734762 5.383898550143759 1.6383442200819283 1.0499446858037724 0.5628589620901726 -1.725149543188229
P 4.616045903335161 5.642619863380274 5.540824071406494 0.5604524095312089 -0.0195169869870051 -0.5128785164069877
Ni 6.31479105935922 6.8447190947234455 3.74777621569735 0.03699997426311692 -0.22755831350308553 -0.0868076418138634
P 0.6600644126532373 3.684386908218835 1.1196733692135379 0.4891716597083511 0.060763138120985674 0.22406778385132378
Ni 2.4083079352873664 4.978131995949756 5.446199078252251 1.082669172619987 1.1086992781351614 -0.29868325447436944
P 4.535370953576659 4.183313821062537 13.019508272120232 0.23423006909630625 1.1051807234589417 -0.5964959334183275
P 9.011824075255511 3.703031908626621 4.989681922651102 -0.6874062845466548 1.2508370599798975 1.2771407308714329
P 7.882430187255824 1.3533555273704732 1.5633708172534742 0.42193242694471855 -0.6394341275427504 -0.14941400379117495
Ni 4.622454833638779 8.94898146615448 3.8882749282798623 -0.5581273609424582 -1.688063436969209 -0.2996335342027807
Ni 9.075433170257407 1.1224401062725633 12.993016487736966 -0.9683152457567389 0.5734832745732381 -0.3449669680322575
Ni 1.1803328787125873 2.0257114187472185 4.158784425280883 0.35769984221789364 -0.8551391412516756 0.21044582219251495
Ni 1.9100920997251896 5.760584813954347 11.942065505613384 -0.10402477702309826 -2.652949859550057 0.5844084061261742
Ni 8.031562486208438 7.712732055758316 5.603971427913892 -4.439101396342956 0.8537764565761942 0.8570453571354529
Ni 5.850965506867174 1.4777478777879434 7.6932910181860175 0.5503693142635941 1.4359911974851591 1.909648820718311
Ni 1.4741093784513075 8.0569303990961 9.399310402452382 1.615615149200811 1.5039667941941839 1.1945088177018137
Ni 7.127838670009177 5.169023924344672 6.027468740296578 0.8145841026474487 0.47407054240085444 -0.5281210443883549
Ni 7.5720033974055445 3.2189729753057197 10.464210504494718 0.23218244253865822 -0.9777601932197224 -1.8907663819915115
Ni 5.77058606974515 4.873465114017194 10.90323792940131 -1.081297489083441 0.08881541627251156 0.365856409886757
Ni 6.522360982175366 2.893050241580123 12.497101033354372 -1.0075999022889743 0.5667518693866754 1.2474887123329548
Ni 5.265813547561116 7.8286284178770424 5.979743449505375 1.847530711231328 -0.3510301435072019 -0.17646123771695416
Ni 8.162982496512152 8.288510723626086 12.338746893189665 0.885781805838197 -0.9551229154361809 2.441658915748427
Ni 0.7326063005696705 8.694009469493281 5.6056604673267625 1.707780455782162 -0.37103949674959325 -1.4231210263907104
Ni 1.5619874487239613 1.288887598768813 8.671242991283616 -1.2343557744954223 -0.21717208517275502 -1.9361880046594204
Ni 6.413501514712771 4.1084660111045865 3.9362975786615197 -1.2943920617527127 0.4377261994438655 -0.1619494172540243
Ni 3.819962564973021 0.45097259975923 1.4742737573553486 -0.19290704197780326 -0.666018305789182 0.9171461790820914
Ni 6.70471074842209 8.667357923590918 8.399110945212932 -1.4984697756353547 0.40625692519099066 -0.4602830016984589
Ni 3.393602473924455 2.5426368981064105 7.33829261146195 -0.3152193044561797 -1.2861797011452494 0.037341930983567945
Ni 7.488871998856319 5.867080180325117 9.784597930938457 -0.6138657921553428 -2.220619891421098 1.9652463554779573
Ni 1.4878230117378661 0.7463060817013942 11.003161833518401 -0.794525898444993 0.05674193277673453 0.30836242943534636
Ni 9.096830132092395 8.850464940968617 7.6626639038460365 -0.3770180829305313 0.290152591295539 0.9259419229968506
Ni 8.496745549874307 1.7984714360655043 6.3241588099355734 1.630225185804502 -0.8544567704726703 -0.3796830313572042
Ni 2.6688115591126387 4.944055695055884 1.1102437456789218 -0.21008278242614142 -0.17769356746215847 -0.7434118533779971
Ni 2.147638085604075 8.953663494488678 3.375990844267353 -0.45518990344626764 -0.1130714606063988 0.32452232702466044
P 6.774442495861014 0.2139114392995662 6.015682403486049 0.5617770418799035 -0.13264038387726187 0.47954467814154833
Ni 1.9659070489399773 2.531721400096503 12.901418652152644 -1.9217157791851742 1.8592613694046949 0.1256022460835579
P 4.489086286888288 8.881281368091342 13.087210217137349 -0.4829570462572069 -0.3206636154002026 -1.1980947352808593
Ni 4.661480971193658 6.956838435957187 9.705624025793682 -0.13622373035314606 -1.043803348792725 1.0325596575581055
P 2.0943719328789103 8.51564912383901 7.35382272398586 -0.5304350372335123 0.3353443573408289 -0.08175465277098823
P 2.6707508607895263 6.0840788031988895 9.98076937727945 -0.4522169368608728 -0.4185779086501888 -0.8756115501734146
P 1.7219798370671442 6.724907190171384 3.929403822938681 -0.7193676679445998 0.1316062861857927 -0.07035232447131755
Ni 8.064890770741227 8.292444735599199 10.156302036393422 1.2452940186744812 1.1594099171161518 -1.7819377558218668
