# total energy = -381165.87803299446 ev
CRYSTAL
PRIMVEC
9.27222204029226 0.00000000000000 0.00000000000000
0.00000000000000 9.27222204029226 0.00000000000000
0.00000000000000 0.00000000000000 13.57083420653995
PRIMCOORD
 96 1
Ni 8.387364471673306 0.907641109606952 2.630529346698502 -0.730802906364735 1.1197866462975747 1.1361591741183272
Ni 1.586208268837009 0.24473658757267633 1.1375885032847248 0.6702889081400779 -1.892089214567993 0.4842389982934241
Ni 8.067667533552696 5.38273806109783 12.14984573797709 -1.2563417918482105 -1.1497808786668198 1.049393955506625
Ni 2.4971484349880404 2.0916927167207437 0.21304598763913335 0.34013663652314974 1.151134821591553 -0.31422583019465883
Ni 6.411945417298701 4.953925615920651 2.6189539049064035 -1.2618308399872398 -0.5377002034363579 0.5172223951979802
Ni 4.391583903482968 0.46644375766775287 4.974267016275911 0.2599470142464362 -1.365031835557462 0.051467314641356524
Ni 2.6517071014671285 6.689861723638476 0.1618345789865056 -0.6141905224846133 1.9242321178491246 0.7284881421886293
Ni 9.14782574897143 0.1943105361130883 8.229339848656341 -0.4814298109794031 -0.2630593346231727 1.4654856073998503
Ni 1.8009065664147452 6.293631866139473 7.096393019643584 0.5386383989799111 -0.678093234675845 0.38121078085564025
Ni 1.6615172549275454 3.223589930216947 6.396965215633117 0.9529590750156427 2.3019667672307063 -0.7020991106721393
Ni 9.152925471004155 3.695824190447312 13.407101536815185 0.5955695649493162 -0.1782800360932478 2.1993154735163674
Ni 8.118247503895452 4.9144630396092355 9.849235954019345 2.718833092506427 0.05519438578395656 -0.21737443099154824
Ni 6.057301474921104 4.712541863778945 5.859071570620319 -1.1330072587529068 0.14921242930333015 -1.7108058728720472
Ni 0.6039749158906651 1.4913441668064402 11.526957343900328 -0.21875099962410066 -1.47506630910975 2.403474948479538
Ni 4.390916303507774 3.4706946432571835 1.5004318714687566 -0.4638138976698528 -0.4820268211334537 -0.24560540081278345
Ni 6.649981897342563 7.262718135685451 4.955281214759168 -0.6524847900791214 0.06242098543938282 0.16472260912378728
Ni 3.1187952785553805 2.5804408041152613 3.5811527680416386 -0.7898243792042656 0.3759310205139397 0.4095474230168043
Ni 1.931181283796183 4.746255662526198 3.2508660253145254 -2.2299581381028886 -0.81930927603726 2.104332752090879
Ni 1.0373020059000875 2.5277189505187594 2.03595090045868 1.2027103796759995 -0.3319882963844024 -0.9928307143995998
Ni 2.3034053588538663 8.082660716328908 11.342937119627091 -0.7885041177309452 0.9035188181066439 0.6441125068550262
Ni 6.336673520095675 6.274670172399612 10.31867834824234 1.5581746476951552 0.5887018912952054 0.5077028857433191
Ni 8.296997397253413 8.606735969077395 10.654719431866743 -0.43775448157863966 1.234297153343345 -0.7975356318055942
Ni 6.932181970189828 1.5583359698726955 5.666787014987504 -1.727135977490638 0.37219906427533317 -0.7377515697684263
Ni 2.273539532185851 1.3090337402474483 5.538108046991215 0.27069833922566927 -1.1079194625463435 0.4621154269215073
P 0.8979757455216558 8.89553786390157 12.806294011917936 0.050471012166358235 2.0293164464849887 0.10069391287765239
Ni 4.239398925804566 8.675341138750367 12.718517596290667 -0.03234499198960881 -0.6397442025840014 1.6114373636740376
P 0.6284072205383583 4.614599384084985 4.970819604181789 -0.2410766597044945 1.0521440074479365 0.08016262569352
Ni 5.288476653489311 7.080750781335934 8.535063548407285 1.5373373992348298 0.45515905020833225 -0.019572779925605
P 5.721118526301972 0.8972942372136462 7.312955961040922 -0.6322268111610337 -0.11982369172856784 1.0984912272539082
P 1.0007972683676518 2.114131493664735 8.029658841631699 0.2708451492161787 -0.6788457965711535 1.8714239729091575
P 4.28163389645741 7.532855047869851 1.6493446820465238 -1.0698913041290283 -0.03151966787483603 0.7136464491901063
Ni 3.0443022479900796 3.7439933831018726 8.345045123801377 -2.0152304007055677 -0.6663324945954912 0.797099315599124
Ni 0.5296552758744772 2.4133646381013016 4.195912205198236 -0.30992257483361463 1.51701514273771 0.43661522576787387
Ni 3.9077686381273775 5.520217294878227 2.758923657483146 1.4459832757008644 0.5875551792852719 -0.43295603174873176
Ni 0.1390555114996032 4.641674271967819 7.7080573891374105 -0.3713691121748701 -0.9519848840278314 0.6595314125132578
Ni 1.7058570199466228 0.6126509339016125 3.3850406392177166 -0.24444249085293382 -0.041219411661103204 0.6245510397833308
Ni 5.027602690960715 1.4882194280336611 10.06938260917241 0.4066780718888093 -0.11664709377279912 0.19853827212165162
Ni 4.3204752339030215 7.761239144939045 6.77732844705503 -1.282318161307314 1.2498620976611376 -1.8963343629975922
Ni 6.762648665378283 7.1998153824672535 12.485357377732278 -0.6715006690599918 0.9861805560729339 -0.5438687941409149
Ni 1.6978643646880605 6.6162310097078 4.793625589654902 -1.3532261011717854 -1.7895240528095568 0.09693136051142662
Ni 9.027351770114702 8.069095455721857 3.0138244546781374 0.3482983463983357 -1.0360730700280028 1.15870337796743
Ni 2.292399231485057 7.730548090523918 2.9741161644869627 0.4890497894185062 -0.17434830513900942 -2.3062281136102216
Ni 1.6109558290285433 5.27047927082473 11.845709442611604 -1.253879703460963 -1.029623200637601 0.44198651738211625
Ni 3.028585831907408 1.266038447400635 11.596399795208857 1.3979159878799925 1.196400892518204 3.5472355890942073
Ni 8.15386210812763 3.6952029515815075 5.764646044684564 0.5358934892449222 -0.005706820576790172 0.666760069051213
Ni 2.1963019239447563 4.591530096053312 1.1394142037724406 -2.831227838760776 -1.2052339174288016 -0.1629683454368419
Ni 8.274493714756279 1.7388939464968054 9.839899753810707 -0.34565653790011436 0.6278181405703768 0.8327232354503207
Ni 4.1399914350539335 5.330757985251543 7.393078157508164 1.2205031848830465 1.0843961826134227 -0.0565195323532833
Ni 3.6337003038668403 6.325778659389398 11.610880224115231 2.1373043219208934 -0.6019641556217504 -1.169581972553147
Ni 7.395125464098755 3.076235780136818 3.7549958015819307 -1.0831895638998312 -1.0801155529601978 0.07627537482397186
Ni 2.963967717641839 7.4064190303457735 8.986918392172692 0.9244936205860982 -0.020234581879319993 -0.15289527747155604
Ni 6.581951605426007 3.698531679235596 0.5634404707301887 0.982420060589237 -0.6459798990810682 -0.33734827514473514
Ni 3.5554983845504666 4.821722276388655 5.240797961372079 -0.10360517298717642 -0.41421628924738335 -0.897564657405738
Ni 8.58483498100231 8.038237501312931 0.7047750943673262 0.48153985419470613 2.2469991527455755 -0.028944965169124343
Ni 0.44435547071073783 8.085154944014004 6.400371829950978 -0.5368571387097721 -0.8065365497526239 -2.1138463480082694
Ni 3.6109462713790075 1.528395965429659 7.836315398260453 -0.023698886278836602 -1.0545934974296933 -0.3058689735895313
P 6.608924498868186 1.1158748140915682 1.3424869895599387 -0.496671567629822 0.5334488843591716 -0.34116302090513506
Ni 5.258601554599418 1.9133229844597668 3.2875886600610866 2.068846643369127 -1.250454222719182 -0.7532478656318123
P 0.30648587638929015 6.205471580526469 0.5342051551498559 0.5928061432715661 -2.281559664329264 -0.3230120610277212
Ni 7.544825486313939 8.47908529048734 6.76203484428998 -1.7317282248470114 0.7025711652125513 -0.27670649309296214
P 1.0021510127617934 7.671178053841117 9.71620182340711 -2.1966579812888622 0.23565626001987156 -0.7568736353098579
P 6.179843159256555 0.05013490369262884 11.664362399905704 0.6760340381539712 0.6870417021183844 0.07746836669080852
P 7.805921982167598 9.229977634807696 4.691858318436399 0.8237534278515426 -1.7917735109653656 -1.4001567042850531
Ni 6.835491240449356 4.963003121138903 7.929519772574916 -0.23022120504722934 0.16548674098332145 0.5147988733581521
Ni 4.668990237619471 2.4797444745236303 5.936493696076779 -0.35086225047076997 1.7198178465626703 -0.8826085503165381
Ni 6.78674717003838 9.014556103923502 8.980024495206635 -1.3486973600634966 0.6303203381669402 -0.21032240924077328
Ni 5.515479189498731 4.797123071747164 11.864478274136411 0.30315954507816817 -0.6576053991351385 1.5238725319791757
Ni 8.104506071072727 5.914750335773614 3.8222249735282547 1.4075319137032016 -0.39885034831427435 -0.09533084879352614
Ni 3.835751290803418 0.49530911159516594 2.0929212861195365 -0.1955362520705342 -0.415143171937027 -0.973502189274317
Ni 1.4916408779065258 5.5395498774931955 9.36950695684525 -0.1595688328369897 -0.04268005536702972 0.7888044225801834
Ni 9.098766423016611 1.6369644113954425 6.231984571763514 1.0958949272816416 -2.2149567795980496 0.11656430425100571
Ni 1.9846078262553892 9.05836735229555 7.543904754681485 2.232472162773994 0.28554388887893406 -0.004573735413611477
Ni 5.698216138264097 8.656703972776226 3.287846427829286 1.3466875287223192 0.5114124733844225 -0.9565529630144881
Ni 2.5073664234972464 0.7281262579440816 9.760957911188495 -1.5367239340205467 -1.0985915002771984 -3.90178685838079
Ni 9.227891384885217 7.229097059156974 12.036081138871054 1.5569963111163378 -1.0080467600184058 0.23480008266716337
Ni 7.345787971487608 2.0764491839538337 12.307836980995297 -0.4447339982202664 -0.24067222517722422 -0.40868687478872195
Ni 4.656417104753333 8.38106863301836 10.510054226131142 0.045797517950088865 -0.3409398491507354 -1.3322181314615509
Ni 9.016549631627203 1.2749583248469654 0.47817775445395994 -1.4447913122752924 0.8700073166127597 -1.9447937440505603
Ni 6.105155412031823 8.212240017069519 0.8128604575732823 0.09627367232276968 1.2105496732147605 0.9159169346606807
Ni 8.719857075985121 4.051896054994073 2.3421363568591334 0.31186735726481124 1.7497136056808382 -1.1084596513205298
Ni 1.2768776747756456 3.0354936372062817 10.084581635274304 0.8628131128571657 1.0350963079370301 -1.755741557042473
Ni 7.434291329310086 6.170765654038303 1.309043939691514 1.5978699094022482 0.5373428200969391 -1.9591037329153291
Ni 3.8074339251889757 3.6194581710627203 10.686339562914016 -0.7150682692382975 -0.24423346016592132 0.38317304678833364
Ni 7.597417528804153 2.5140795121366883 7.824047321494091 -0.678892847759005 0.4826230599565559 0.16129661416137384
Ni 8.191099351188402 5.921370702194279 6.192873412661261 0.44783629129467384 1.8389640526082394 0.05564689994034287
Ni 4.823372731882883 1.5996344461158931 13.270783185213872 1.478097639736906 0.5519214892420623 0.34365879074379524
Ni 8.183060334820452 6.955130719337092 8.448061363306802 0.8190452237425959 0.20894455505664014 0.750617627097817
Ni 5.263015132213194 3.0818640188165713 8.1874609313236 0.12160212378522929 -0.03571725089595139 -1.1158788266027362
P 3.399641607008503 4.709871463878173 13.157317151652297 2.136486196894972 -1.2679343817818163 -2.8233528068880736
Ni 6.339807531090331 3.643074520185177 9.964018643087552 -0.10674500416773874 -0.5761178839826079 1.4362796752598552
P 4.462145511972131 5.463267308105501 9.703159516113962 -0.8916632043196385 -0.6147250548318445 -0.298132524177222
Ni 5.092545332992003 5.698791016020513 0.49701705486503506 0.28233155258922343 0.9276133971620025 0.39551511329345435
P 8.943261989906 3.6136444879454133 11.383066368691514 -0.20189150486460067 -1.4608375671048777 -1.4336023855380082
P 2.6172237083040275 8.421588242623832 5.211376274132006 -0.35176959277638775 1.2958331650746135 0.7830510650361739
P 5.228531739050093 3.890772655425585 3.8463271870771023 -2.174340291628268 0.32111278712247926 2.275448923445836
Ni 4.177673744764835 7.234243142299087 4.321197539987293 0.8031655763978619 -0.44101258350462114 0.7198245529763603
