# total energy = -381172.52635421953 ev
CRYSTAL
PRIMVEC
9.17907663767062 0.00000000000000 0.00000000000000
0.00000000000000 9.17907663767062 0.00000000000000
0.00000000000000 0.00000000000000 13.43450649451372
PRIMCOORD
 96 1
Ni 4.704285954332317 0.37250712380249984 6.340307663416349 1.1147999917162605 0.48968048102396955 0.8326772127037337
Ni 1.3455700229492795 1.5785625251664794 6.131911414949345 0.6348411088554293 0.3625198893143563 1.851803884685385
Ni 2.8847267721232273 3.681516519393607 5.392919559524335 0.4269746173543163 1.2805968077408332 0.14728821569742376
Ni 1.60261170594925 5.81783645718767 5.722038105982531 0.19966261553408193 -0.03164693748131969 0.023293680420617947
Ni 7.806217216861154 0.09484280932747188 12.621920639200122 1.7309748916207544 -0.1657050276417146 -1.9700926278266655
Ni 6.989701633902922 5.749323829186677 1.4266910306156202 1.1907596350720266 -0.10834011656900053 -0.09181589366173219
Ni 0.7092002442996044 8.442299690412165 11.723689244409625 -0.4194045183165422 0.7975338320333812 -0.2188247902848296
Ni 8.106896230182228 1.3085232696518512 6.972240276420837 0.9529140807103201 0.9911476702702222 0.8371334487028744
Ni 8.517375358206928 1.423078146052224 4.79899383123326 0.034076115748102605 -1.926228322343547 -0.71462912481835
Ni 2.5601087269389984 2.1659408180940627 9.142073940915653 0.0592587856613173 0.7485571450243624 0.15032674541343144
Ni 6.796684010429602 5.104814963285062 4.688428181538304 -1.8137163337850442 -0.5786324228743454 1.0531878753314183
Ni 4.6052070011379564 7.516709139804443 12.90225790079116 -1.153086288890969 -0.6466082766936865 0.9717299278652426
Ni -0.14314953593261937 3.3589729455288078 11.376864259123199 2.0980322637941478 -0.6421360998549457 0.036394736578950225
Ni 2.644822425200139 4.469044578339629 7.7986105160540236 -1.019497939278141 -0.7588945223946285 0.6462884314604225
Ni 6.644403129060837 6.468412692744784 9.467309737957393 1.2024764092883227 0.19440933755494258 1.3805610415413128
Ni 1.6531058065164335 7.067439233921733 7.634910863351761 0.8367719515983976 -0.1531030226069879 1.173373321274779
Ni 3.8023774214419803 5.843611304377753 6.3844672831979645 1.093964028807516 1.1729151506914381 -0.029891902463425938
Ni 7.610014453795613 3.334428094607766 1.3631185816593943 -2.4169809533857727 -1.6422836596309327 2.6284747572268277
Ni 0.7393287275375005 7.045749075834067 9.816956371401307 -0.8022016698226959 -0.5109424757265394 0.22096111990154205
Ni 5.004120492603004 8.381635172933795 10.388998263087727 -0.14701953541706939 -1.7385043672285803 1.3035325906014001
Ni 4.439432877116263 1.404242680797932 0.7006912402592883 -1.1419022472496916 -1.9318878346221695 0.934876763592635
Ni 0.5361103962000991 6.665955600998985 2.004213748960585 0.30038635320840523 -0.4931913223907054 1.2881802765150459
Ni 3.8033595826418876 5.072614762450726 12.85965780612977 -0.2761094829389116 0.5877860643491555 0.8277473795022842
Ni 1.2574876035632239 0.12883109429023626 4.176102608713898 1.8369732474304556 0.2795851001923378 -1.4870800457411746
P 0.9474459320748119 3.725677057082885 6.115145831476164 -1.7417061619953296 0.45763939342802473 0.9161550188134158
Ni 0.6682037343262883 8.52203832913733 6.28459525778237 -2.5822468366075397 0.12938639571633845 0.1030680695367838
P 8.700497937068102 1.0668290027850076 10.436179634897465 0.20620915840334808 0.9819750026320184 1.1181671084162808
Ni 4.011954099164201 2.4886679734915544 7.379117534774102 -0.269408159659336 -0.24082777691848203 -0.8938239594163832
P 6.489836657610047 1.8110868944753127 5.675984842691189 -1.0319603334112097 0.602779195323878 -0.2584105229972517
P 1.0297547122576758 3.25555228908626 1.7688943508165023 0.13891901779712204 0.09686682582207834 0.3084758150847591
P 2.6753336759337 9.712839940949854 7.550098948970629 0.9932999407265345 -0.38236469195442535 0.6764757536770801
Ni 4.936837860871054 2.869425251373274 12.0089171180316 -1.2206908754138204 0.011575877763057482 -0.5798002179302014
Ni 7.377627770636299 2.9109330359151393 3.679026235902627 -0.9575875749265896 0.9535586562728544 0.6022071248704919
Ni 5.791364000173353 9.15393514374294 4.283377559435333 0.29813149573595754 0.3005136228148889 -0.37792439679488465
Ni 4.7498876070532345 3.4001411042351917 9.634811364201726 0.2552136133265088 -0.4229657533052393 -0.16895335937568323
Ni 6.720773046661086 1.0632399838208615 0.7533616998965461 1.0583043706223774 0.889284676785133 2.626697096501115
Ni 7.395444358384146 8.4728568365289 5.992958552854084 0.1585167374233915 -1.0202407309814365 -1.5970211882487078
Ni 2.4386052895261994 8.700415325378389 9.648676359458358 0.9522011138036957 0.7185641982066979 -0.08160090080194332
Ni 6.677759893551139 7.16271804938935 12.155675866896962 0.34679347971803504 -0.42992958621758215 -0.948578943670076
Ni 7.37502091287206 3.992503635775387 10.246659239621946 -3.167618635088248 -0.5112373812591389 -2.3965738504843306
Ni 6.492627096906979 6.4379289792411285 7.235811954538693 0.3856927278863938 -0.5890230220800501 -2.1532127656210336
Ni 2.690011019472498 7.206098365564684 11.61637482365866 0.3861807232664059 -0.5707278233152882 0.3305330519951146
Ni 7.202509346600538 2.7663350416895724 12.613483231957556 -0.39465610772726867 0.3678600705803471 -0.387394541068849
Ni 4.683908404203405 6.105811628446395 1.4685935154527758 -0.2679030358687192 -0.0668813352035816 0.616891466355544
Ni 3.015491897860383 6.262874808741809 9.408951004529646 0.8853115510699979 -0.33565468949239613 0.23912544951539463
Ni 1.1722782351638121 5.2373057554295315 12.103241309529215 1.8721508237728532 1.041272097730439 0.7872111099511346
Ni 4.299103153525808 5.724824873648808 3.9669545938705157 -0.9624647005132329 0.23148130270657552 0.2843390699375554
Ni 7.5321024513207435 8.514382979224035 10.028053104214226 0.8954807782935158 0.09770140590823174 1.1023797636750368
Ni 0.6127437532997618 9.009153567984683 0.8332251740639404 -1.1844666029744633 -0.7512922845673384 0.7377484844446327
Ni 2.414739690276122 5.206665997623086 1.3697146661290505 -0.6744342977670191 0.1895419821603123 -1.1660245942191918
Ni 5.620054892940969 1.8339611534488485 2.711836109986694 -0.6003865267219853 0.10794185268931732 -0.29931600296236194
Ni 4.64793560287223 0.7844998815642531 8.916240200565813 -1.6242627975734802 0.8956381298069866 -0.46654518055808686
Ni 8.601189506957875 6.322520448713734 5.537340397570854 -0.9233525650031194 -0.3508897612745957 0.856165525633661
Ni 1.7739575294881724 4.914551062802135 3.5949660878978733 -0.44335640114644936 0.7356545780300814 -0.44096244699297604
Ni 2.865845411485762 8.336556727581053 5.7713563668328165 0.8219310299308231 -1.0917783340101068 -0.2914250302500594
Ni 6.6151494118262235 9.14324151946358 7.977933875096117 -1.069378111938036 -1.213194309926459 1.4342101943253365
P 5.4797710647336855 4.211176778442541 3.0063871717464785 0.5509658101970124 -0.5918435222479808 -0.43942672707473995
Ni 4.549517543195564 7.563210342035556 7.968838328058847 -0.7408775169919175 0.7186670423331494 0.4515363658540804
P 1.7221600000388697 7.199360923314854 13.671357127577805 0.9113275155177852 -0.6204758412726927 -1.2438410882780386
Ni 8.680946503836307 7.0225443701016825 13.386907639654448 -0.7567887889055354 -0.4423408153977414 -0.4866535212721877
P 1.1347266326514784 4.488201311276134 9.601682240811964 -0.3184059297142775 0.7162615182154503 0.2602401200068228
P 5.08728292691289 5.283862032120452 8.736324791080785 -1.3190265724719414 0.422181309730731 -1.051359306763112
P 3.6572745780015086 1.1398485574136106 11.201248329133838 0.6882272377860534 -0.35555502796074895 -0.3325097161055112
Ni 6.254292372088416 1.539432121472987 10.558581703912797 1.6143347398264907 -0.07883825045514165 -0.7246571984783132
Ni 2.751061058169523 2.8590437156994897 13.314173554309182 -0.7912461992524567 0.6622326134945046 -0.36605001395480186
Ni 5.125486243866283 5.502957412312799 11.049142768128796 0.11826971697788666 0.17900020208872397 -0.4454765328132457
Ni 8.405289653421276 5.695222351502078 11.214320252169239 -0.8598985103135319 1.518678646483062 -0.17656742427751526
Ni 9.518886051659802 1.9846173382532806 -0.014709470307018987 -0.03361691672349694 0.3529037063808309 -0.1469262043723147
Ni 6.386764806079615 6.944283562714698 3.4258526157964964 0.4309318022298514 0.5293875698056044 0.2814092978852702
Ni 3.2850721995432792 3.3652697921001744 2.637045911475268 0.9612719657567121 -0.6596090598287286 0.724202884549714
Ni 1.314223476241966 2.4383849916869678 4.099539930504322 0.010834114501026502 1.62668554808236 -2.6642400877518955
Ni 6.33812487899263 2.3115209735195363 8.186840480224008 0.2942527295068416 1.042965426272462 -0.33167462179872553
Ni 1.5483450048852274 1.7980617847307512 11.169703514371218 -0.013692409885428032 -0.9892972473250445 1.159454397200842
Ni 2.278255999795582 1.3340778190027036 1.7754234280267256 -1.344859217264329 0.6547877271806852 0.5531041966962539
Ni 0.6289209579606606 0.850451547184179 8.500105843426507 -0.2972382944977268 -1.4989410588448187 0.6296662495227091
Ni 3.6160788820652208 0.6392492549899633 3.4987620215054833 -0.10099036107214865 -0.5548206651667283 0.27593387659299573
Ni 8.938272738211952 4.418036449480906 0.2632742760348946 2.2364802554921224 1.9100090322712073 -1.1072553465997834
Ni 8.716515425795556 1.370986886150612 2.292504680455542 0.3545787800904087 -0.019771783310288532 0.8192588824152988
Ni 8.578094950145108 4.878798559310193 3.4304605122670884 1.2965911262865606 0.3612741898327133 -1.0930134919687886
Ni 8.866317956472967 7.880274007149473 3.8833653324971187 -1.7852621922094094 -0.41805648892908 -0.5395292862252966
Ni 2.5905557241361166 0.2801490905200264 13.18071528748742 0.8396567293453603 -0.5915172492568135 -1.9179719958720258
Ni 7.407331262626012 4.157772910582175 6.93047272401021 0.7365590921222218 -0.9244691951060661 -0.6937319696543665
Ni 8.78781849309348 5.547659515523521 8.14450841460035 0.39874441886402945 0.6832511247277007 0.5187586293368486
Ni -0.015230841859866838 3.1060618470144274 8.28954700450438 0.2950160900354274 0.6297811778340187 -0.054978413118408544
Ni 5.480028078879456 8.510426797194501 1.8546205012304446 -0.3130451796229964 0.2723525869996406 -0.48720579423123195
Ni 4.953378556966684 3.4807609343172805 0.8889146320063329 1.563701233940339 2.4134402872223664 0.7521975699904271
Ni 2.826485530876403 8.075760802237513 1.999659091134474 0.1890527012287196 -0.7073534170925431 -0.13566528674651473
Ni 5.215275971506382 3.997184964859056 6.162676926105685 0.5653130800576199 0.7901699354691424 0.6373345647012444
P 5.210080614131174 7.358985065991335 5.55455024835315 0.5589020343249536 0.24373183793915446 -0.19801222441485253
Ni 4.465060859080193 2.3377272373114484 4.812159380850332 1.3833545451260498 -1.355460389818943 -0.7635070814659753
P 8.49003088891232 7.85315901477073 7.986989034196195 0.1198997963821419 -0.755426618450686 0.1527266131041757
Ni 5.54795324597583 0.32571769856505917 12.478627909672003 -1.3468194263144935 0.0575572295891783 -1.3786892784398965
P 7.749637388485201 7.986641147191741 1.9406816879415512 -0.044008801480782275 0.18515439461557792 -0.3738851937285045
P 6.114146230030652 5.018871268754879 13.008793935843507 -0.2854212472581407 -0.12118277685962356 -0.5091779276269489
P 2.2903723809533134 7.185941113275003 3.9966984737974203 -0.589105040270895 -0.4522056240069631 -0.9822243996386631
Ni 2.904911561642812 4.32787955877542 10.8711485393834 -0.23936661899192324 -1.2421637005756154 -0.5993729978558064
