# total energy = -381172.6057262888 ev
CRYSTAL
PRIMVEC
9.16906754930120 0.00000000000000 0.00000000000000
0.00000000000000 9.16906754930120 0.00000000000000
0.00000000000000 0.00000000000000 13.41985718194996
PRIMCOORD
 96 1
Ni 5.350434980146354 6.825527011762507 1.1154830479728772 -0.37437524599104555 0.18797875143825046 -0.2788803608158294
Ni 5.051349175592022 6.552307145914075 11.837333667941886 -1.005761049308023 -0.5474667959048185 1.5686202685085113
Ni 0.15211482564015968 6.320036334394091 2.092692894222797 1.7356414438584882 -0.08650707985430908 2.3012676842811532
Ni 1.635871625805435 0.5597275439523012 11.693821261193564 1.4813220602114745 0.2701262687722832 -0.5191880035647832
Ni 3.9894519904284413 0.2891474525644967 11.20592969150048 0.15689308577703948 -0.7579702108081462 -2.400444132073014
Ni 7.667870881678733 4.260407096666679 4.829296372612931 -0.06311158374850422 0.37633982591658416 -1.540489057489934
Ni 1.1853770137890203 -0.0013368500047218374 6.1568553614926245 0.2742351487343342 -0.4292700982567123 -0.2566757996943322
Ni 0.45310504546184927 2.1308912283769206 13.346785862162253 0.6689861301682544 0.8649743821745427 -1.1567483111235883
Ni 2.7449344928914385 2.2535183337483184 0.25490740474122675 -0.2024949427765545 0.015505294724450714 -0.8218322995694298
Ni 1.918398094910332 4.534791434055574 1.7460443871342155 -0.1158672781839811 1.9108883495523672 -0.8267618756605633
Ni 7.415914082777832 1.8579097582769304 13.145232342828955 -1.2079371752925776 0.603348951784419 -0.810965532058255
Ni 8.03989661618891 9.226098846030226 5.546078118731754 1.553547433335789 -1.2065724337345674 -1.7724817526152894
Ni 3.9893236234869724 5.280795914399699 2.542646531271595 0.05343112323594669 1.5688038452742274 0.8025572533899017
Ni 3.646556382564363 5.559058767234393 7.5837492742142585 -1.1827537340484147 -0.7715528345885874 0.22204278300149505
Ni 6.352577354056354 0.8721277510570898 11.030813343762617 0.5672164677279199 -0.006944549638633201 -0.3113179125192445
Ni 7.065600699510325 6.059763191499483 10.361162437110673 -0.3526052013038056 -1.6148926692124896 -1.3800247094218685
Ni 0.7950681591868309 8.968695621184164 3.5574697251852316 0.2823778324461266 0.47065046097571206 -0.1665997715418421
Ni 2.8161689763392026 7.642105802712558 1.957890184453113 0.6568356108486495 -1.0451554919452453 0.7936535231423686
Ni 5.795950788647242 3.3763806470421844 11.059102666942097 1.063590301611665 0.6535610538624358 0.1071689790790348
Ni 4.594298680493466 7.045392075296286 6.169725064281565 -2.2110692716181855 1.564606519363428 -0.7895078764051113
Ni 4.027980411003483 1.3495675009944657 6.932980227745605 0.11079809119118983 0.5494907683133827 0.44970676884450933
Ni 8.625295714621458 1.7241605743340127 10.730624500418381 -0.11709497994349512 -1.1411627979805057 1.9822395476018442
Ni 1.63678853253021 6.738228322496686 7.132466122414535 -0.5024326384833154 0.46466776102971585 -2.002891933744873
Ni 2.679898298903153 3.6363145344486276 4.211217801602678 -1.7221979167590729 -0.03144202055936521 -0.7845369055530811
P 6.29816810900821 4.597709573509629 9.069165675551377 0.39870071011028757 -1.047978048995705 -0.5872137367854532
Ni 5.721076185502121 6.562521486828068 8.044841494155621 1.0219222324489174 -3.104505508677847 1.5218997245235208
P 9.096530756752284 -0.06597877410135389 7.955438503956443 0.008630936202120618 0.42515170521296464 0.2599824954700619
Ni 7.641445629870719 2.9899136316168025 2.414433630132868 2.098128165942064 2.206740562335845 -0.13821196442776842
P 5.757330677399722 8.85965707347393 1.9416251760623304 -0.5965578970045146 0.5720727673789567 0.053857155029771765
P 0.48687196941513533 7.889267179442886 11.023767832489446 1.6464735293425643 0.003000477389220639 -1.7811983065526809
P 2.2035744244498288 1.5698726797561362 3.9000920948453266 -0.48322855475103876 -1.262383112946284 0.6928919902515746
Ni 8.576708827275636 0.9399027454322778 1.5842543617342308 -0.6847508492016788 -0.877104075558541 0.6058956294656727
Ni 5.154317800784247 7.298742572418845 3.882176654349949 -1.210342956520593 1.0244360000097066 -1.1316633431305025
Ni 8.443757352183273 4.2152494404715135 9.570035143026924 0.9680900171198101 1.3750151720224189 -1.5728096239995106
Ni 7.7438366038263355 8.368983608777878 9.896365914001219 0.8057868160707928 2.0663801841065057 -1.480346840782399
Ni 4.834143141560091 8.707450557161293 8.271597111726084 1.061546531708759 -0.14869718022980843 1.2969266552491086
Ni 0.9059900333097526 4.5220372615139555 5.701627676962921 -0.06865333950233983 0.35824825852219594 -0.8618697751072899
Ni 6.758446115777973 5.376612667138678 12.835677297291143 0.9557654341161863 0.25056377325932333 -1.2339238291643266
Ni 3.4926902650798834 4.556036162868609 11.239532489150031 0.6271303704747329 0.3278637326930676 2.200890788423287
Ni 3.5384164034444088 3.5568737358141282 6.427882903362119 -0.803697537641932 0.7321933589543583 -0.43509133292417973
Ni 1.5128960958786226 5.294430317397103 10.196728969623162 -0.7011524304881538 -0.6946519103654746 -1.266507933747935
Ni 1.6304802142637587 9.381972989241964 1.0483471375848574 -1.1193007078000916 1.4969870204422413 0.25322846457568
Ni 5.064561801496029 1.7325319327312076 9.085725927907536 -2.0511258290505965 0.1703276140153905 0.6727713082422995
Ni 3.6577701518083603 0.7889679787469035 2.4405086235720175 0.5762469533613044 -1.3460486095867397 -0.5104349399625017
Ni 6.705192173203047 1.38495093150353 3.495523506859438 -0.5521780853375586 -2.1556018346785004 1.4701285054885003
Ni 1.7005318880365625 4.684128032319666 12.593837647191409 -0.779639982472096 0.7174362552498418 2.245346704743817
Ni -0.2814536882369103 6.839216429163397 4.5027913893609295 -1.0364620779363054 -0.31408596218268486 0.3720851644052882
Ni 5.564129261422398 4.9591817116176475 5.816232765399263 1.94581652888812 0.9378541010534042 -0.6551479387335813
Ni 0.3251681332472795 2.2802369957082598 8.803989832399395 0.37382245881136905 -0.8066957010383076 -1.6613771859272741
Ni 5.806256820233712 -0.12704384506463898 5.630864483571691 -1.0705770173421434 0.7324903213694869 -0.17995382425124493
Ni 2.747804410939984 6.804273113882225 11.655092038045796 -0.8775280504698371 0.9574371653916544 -0.736033558636055
Ni 3.438079300552289 9.095137058530625 4.874763026374345 -0.956710828748591 -0.5702827653580694 0.052552063065103044
Ni 2.5146441998969693 2.904567953674752 8.56353287764062 0.630205924076263 0.49375747930682057 1.486792853518059
Ni 4.227499314314507 4.145170259496966 9.316239029236126 1.3773196517858795 -0.21953415764702838 -1.654274770554538
Ni 4.061511689928502 6.612474565193806 9.685646995047069 0.8615692131477355 -0.7265289615797295 0.19386734900854355
Ni 7.220081144500404 7.978207131746053 7.532297053353513 1.3573825465423204 1.1450654754690215 -1.1786304559086607
P 6.641467155831189 4.381869730497613 1.153557599719156 -0.08629522095381913 -0.5616816539526198 2.2879277726391374
Ni 5.943866181487933 -0.04146894044139543 -0.2611047772939804 0.5632633966174428 -1.2084341695336542 1.4413246938829307
P 3.807088411937957 5.24828240193918 4.8448498613852875 -0.9333718969123344 1.9238785911644483 -0.7702351442184283
Ni 7.187851873124565 2.3776399970811 9.069555360909405 -0.5388895957587687 0.9264767124543979 1.3805643839754225
P 6.686285556538188 6.942267575960851 5.421568603854393 1.8564974335063122 0.16028771328088523 0.15597365928656365
P 0.21693187892122373 4.445127125439835 3.446836676680614 0.31916594780875357 0.29411723237024184 -0.5058007836245999
P 5.642451433852672 7.896987534065491 10.35027967119432 -0.37555666789365644 1.908212602492417 -1.0581614172866098
Ni 8.94096836182697 -0.14996284555711295 12.599809460689867 -2.404604176987975 0.40242263904656494 2.047195383647939
Ni 1.570028553899348 2.3113017955436344 6.690429058027445 -1.2057579082530718 -0.291370265752724 -1.8599627663470935
Ni 2.0956820101455635 7.318740308086186 9.246173601862449 -0.8139858069418175 1.634892509373184 0.908905536339854
Ni 6.813882296357865 5.988143607227314 3.054547303552911 1.1311576071386775 -1.3710266196883163 -0.8936545237180544
Ni 5.667574678111505 2.1040166922737673 1.5044596371039685 -0.26265078633084443 -0.29297849078010835 -0.5543393546549356
Ni 7.282247420440144 1.2831467778517702 7.230377090112902 -0.969005586955544 -1.7855146745398474 0.19764841331753058
Ni 3.604965493528573 8.893894370577025 -0.1249844725607945 -0.42008817464712805 -0.733946079979407 1.5565671939987191
Ni 8.289047680512 5.716207410793566 6.896759661396821 -0.7796309836110314 0.2633845791730754 -0.4175250419056422
Ni 1.4900467802972315 2.998945162855835 11.114526927734566 0.29559021737134256 -1.1590386498196619 -0.9349348705240802
Ni 1.0561940253354813 2.5736929929724743 2.3055317015246257 -0.5456775652148796 -1.0055335066782491 0.3264185156061088
Ni -0.12433255187947952 2.063489415038716 4.600756454556056 0.8260391385619258 0.15501643757961692 -0.14772787433800366
Ni 9.02329741664451 6.790748739691795 8.83596878823937 0.3375290236969735 -0.17768533993204236 0.42953389344106024
Ni 8.289625331748608 3.837676420276448 11.72745156604486 0.4053410982449406 -0.5842615961356648 1.823411192475305
Ni 2.0324979677413237 7.04655654683675 4.294286800147112 1.3002181815161866 -0.9756418613251393 0.3900990844842056
Ni 7.5980392655198745 8.327933694709705 2.8557454213006626 0.259206793646302 -0.4865643039924911 0.8483450011479777
Ni 8.106757454559498 3.2780790770790653 6.809168478885797 1.1747743153873638 0.55027726877042 1.236983956146889
Ni 3.633215389718888 3.0314128299801153 2.1612280042728234 0.3264452550789862 -0.15352211242227756 0.40410182652120086
Ni 4.829311043120527 1.9100175674458892 12.715528590796811 0.20348173216985602 0.7902910344280389 0.09343106066765199
Ni 5.624553414585065 3.4078213786347167 7.300616729764284 1.053460669376831 -1.6020636357686215 1.7492158401088136
Ni 1.4455859732128953 7.378898558298668 0.0065769719368105216 -1.52892757790458 -0.335594525678422 0.5820571322851783
Ni 8.861949340285866 4.4974916684917305 0.732165607147097 -0.5396110473058255 -0.38960414712565805 -0.9021445634669367
Ni 7.895887245995761 7.161096534895633 0.7825560500205524 -1.212010574031003 0.9891545510995932 -1.460048495544679
Ni 2.157408170857411 0.5439228227373558 8.975750301524583 0.11989131174170967 -0.043408191782305885 -0.5960390483865671
Ni 5.484596772115421 3.7708705963093476 3.520927324576052 0.9492677422069844 0.38763185389063565 -0.06215436204155747
Ni 8.96789791233361 6.138736367704347 11.875848334916057 0.4934047239530922 -0.9467999973927824 0.9570995795465775
P 3.1287241406804776 8.642946169073378 7.11566472358976 -1.804670164422376 -1.5886699880705348 -0.6924309914547558
Ni 4.690454688720613 4.365860539083043 0.31645660245519297 -1.0691073747751523 -0.32283876867465044 -0.6631834074435482
P 1.2676602232703216 4.639016221460739 7.799969633517056 -0.28927995888259855 -0.08040533783194541 1.286852815952874
Ni 7.13854062946617 7.575373331283439 11.882438143547015 0.467249405713963 1.774892676049627 3.23453313752261
P 6.510679580609294 2.3285854873056415 5.441443474020614 1.0526859959943355 0.5164528640218073 0.1928733605263904
P 3.7116750981578783 2.428473305902622 10.892602491696945 -0.4581448723095336 -0.3897057057005288 -0.7107264473298339
P 3.229739754548931 6.147932942153839 0.2532542219164575 0.49460697179130947 -0.44706701722881714 0.8037109073783708
Ni 4.560437315147529 2.008530025955707 4.729171075174234 -0.6618168661133247 -0.32496044300334354 -0.8280435705864643
