# total energy = -340887.57529523125 ev
CRYSTAL
PRIMVEC
9.11394984771136 0.00000000000000 0.00000000000000

0.00000000000000 9.11394984771136 0.00000000000000

0.00000000000000 0.00000000000000 13.33918685429794

PRIMCOORD
 96 1
Ni 6.571549660402259 2.0452158907895495 11.250576721123055 1.0219682551955045 1.423990316369541 0.5930090033109916
Ni 4.870394486143965 0.7187187851204351 5.981651086448134 0.5326050483016377 -0.6429519108880217 0.8081756280179436
Ni 3.165201832152065 1.6419327288655872 4.719417351771405 -0.2929070141122246 0.47768834165909985 -0.4826850235427429
Ni 3.762047058595929 4.688270428544324 4.643477188375645 -0.7065142090206994 0.7384344547680638 -0.24487135086023634
Ni 4.04165392258529 2.8545346274581265 2.4762865740674402 -1.2199514261446345 -0.04218717489101122 1.357541697828004
Ni 5.314599282388219 4.7274877542637475 2.620629664426249 0.8808879680810054 0.873218881571522 0.1779380793727968
Ni 5.374468818212272 2.8788688732566072 0.6439133084669627 1.4237337202740448 1.225909186389966 0.036201646731537654
Ni 5.776494255072493 8.336301975927146 12.51655902332672 -0.5510375439752123 -1.00287627156106 0.2280987593875878
Ni 2.1789813310832957 6.362184007037952 0.009419267053456916 -1.0724780910195981 1.3674754120019479 0.1311208619089419
Ni 0.599134650617863 0.1658556573186347 13.700278815201886 0.4101881419245968 -0.16334809737376382 0.023230688393166447
Ni 8.241115884871215 0.22357156681977317 6.392044951957105 1.460794372571768 -1.2764354772742919 1.9200288784010546
Ni 0.051537562974250765 2.4020543648524413 0.804440950769196 -0.14381671220905554 1.3909385281208946 0.6304992869469658
Ni 6.993206544996536 1.0251917501452876 4.860025545527885 -0.8729918531623805 0.924743274703059 -1.6313351310392294
Ni 0.5342715817327662 7.569490700833144 2.380964685160424 1.6736086949964597 -0.4603488219393878 -1.0620679514298677
Ni 7.914927623774725 4.084689993244626 3.632247097832863 0.4607362871857936 -0.5056012660192841 0.4562653958986335
Ni 7.597889768214442 4.151230940276352 12.539556252698745 1.9768219761306989 -0.7991405143988689 -0.15747904018749653
Ni 8.855970275995901 7.4189920488217895 9.74314219411009 -1.0061161186545962 -0.8642367326775696 -0.6439489846939684
Ni 7.103002297481292 0.9324664255184171 0.32111817085765354 0.507752508034332 0.20267620554942514 -0.14168835301214308
Ni 2.0751552156764443 7.304894512061047 8.922315273108277 0.41325341111348185 -1.500839818529428 0.048308200187084545
Ni 0.23468056015451788 5.289125792872581 1.0171787655362896 -0.48800360754217886 -0.6917848732303247 0.41819352872757654
Ni 6.80261562809098 2.4167551657786395 7.267468988859968 -0.26947757944469075 -1.683856340866397 -0.2656304377844586
Ni 3.714818571057454 4.697284124834473 0.6016974932839803 1.3497751665087077 -0.4669660701455893 -0.7465385719324369
Ni 6.4037253899403765 5.78903504991096 4.602219249310048 -0.028514305389608956 1.0634866861542651 -0.49096011906734155
Ni 5.654020998503209 3.478931323957723 9.26663938278694 -0.3319168197165187 -0.6457945225431394 -0.3000832201456896
P 0.3166605380411603 6.110875956982779 12.064360381767916 0.22971161240066246 -0.6335367882217089 1.1846200978331922
P 4.114474380985987 6.3393809047953305 12.393211738977632 0.941300664841108 -0.06752025433916113 -0.08776383507954562
P 2.32784858609168 8.538850394887984 1.485131780610919 0.14925896627054938 -1.0371488195906848 -1.5263796146717454
P 6.647149873472821 7.957681161992205 5.667834100724999 -0.15989407738689237 -0.06844790835975308 -0.053423924147095084
P 5.012380709100719 1.2977170751887985 12.74208462097016 -0.9323668526865878 -0.834149426373886 -0.8990008756316323
P 4.035875678451868 6.331223919780483 7.874695915449544 0.40695086593422175 0.7048746165347474 0.6878102048532928
P 5.232646646350789 1.2963408687784725 3.6485072955591065 -1.701809840021024 0.05062733523856443 0.1421884325770132
P 0.44993291365412125 5.547542723722815 3.412470579683685 -0.520615222929613 0.1468776105225664 0.39217602161789233
Ni 1.0215370563006467 0.09989982586004059 4.3390639759914125 -0.5416967261902607 0.24377863201668987 -0.1508363380599983
Ni 1.9881352235850978 6.678164644428712 4.446884735568104 0.5520613572540364 0.8950218363792262 1.310636548636033
Ni 6.174354616902786 6.0165921469508366 8.833022261952458 -0.5578481391391426 -0.2665094979553023 0.8789683824607895
Ni 8.667311516434646 2.4136108531192852 9.831181125782063 -0.045948184595340225 1.1271741970108973 0.5757139636759698
Ni 2.3295346667930734 5.454443727156717 6.699606122580588 1.45104089272943 1.118357370050216 0.40658654061626753
Ni 0.9245828589956882 0.37764744410300094 9.154683624214453 -0.2877815199602012 -0.6557374926884642 0.30488501240970717
Ni 1.8127828306402394 1.2918021218093176 11.382635118631013 -1.1503645190844318 1.2279750677800592 0.14837656366559607
Ni 4.2587482053267935 7.276285823835792 1.2293141482257506 0.44800187033826067 -0.420815796841772 0.4856507910392861
Ni 5.987655356535041 8.118168702915595 7.853073069697897 -1.393192100041762 0.001948896196254708 -1.1968534066745904
Ni 5.4914737049392 3.240938754468685 4.958682228643764 0.8027544570023722 -1.37327376385128 -0.6719531832163782
Ni 0.8489452787312042 7.592785956361577 6.646783492693383 0.5056015231296003 0.7251593349257124 -0.5576483644235106
Ni 5.5568024966558704 5.069999099339668 6.574097920748797 -2.04762167255208 0.23596170707543232 2.1948420111260454
Ni 0.9457636781850776 8.092011667169661 11.652926614593921 1.3226898802561415 0.10413507734871744 -0.16090297826738093
Ni 5.083378377553965 0.496493348676855 10.583657980729303 -1.1125369067136968 -0.9012786159222156 -1.707314057668705
Ni 8.573456062040355 7.2698149195223385 4.585185277251111 -0.5806455966496322 -0.17192838284360712 0.49090046947399973
Ni 7.699091066096964 6.477849143153502 6.951677010228769 -0.2116663248631774 0.4211634099891779 -0.42359593069007045
Ni 2.4349283815547333 5.527956845737447 2.4481809758676816 -0.18049452724606335 -0.6438466547881492 -0.4127121938980311
Ni 2.4622884586659843 5.676541568303976 10.891832520170103 0.466825430802667 0.2649557803149373 0.8100805583501404
Ni 1.3898226512335354 3.205886503779188 4.000715883155471 0.2248712535892256 0.8233065701221111 -0.6485317189686444
Ni 2.1103532895617376 1.3074416595584537 2.3503782698421842 -1.4244687986678564 1.6104873410559426 0.3218956880350908
Ni 1.1858524561136847 3.7344682466909838 7.846149202082501 0.3543828620295187 -1.3010046819732237 0.5388368881439624
Ni 4.163835532762981 2.9129732731734292 7.136985481866609 1.1983790992904975 -0.1536936050031353 0.43217981570433955
Ni 4.339907927737083 7.357518457843979 5.766903645763976 0.5352774529274781 -1.0443782474595884 0.04001896359509882
Ni 8.18767168361193 7.381397006155598 -0.0045861395077886015 0.11912666566154322 0.32579836552360664 0.975083674828824
P 0.46831028190432983 6.047962361946482 8.053094190396594 -0.0678275011669348 -1.2395576304113363 0.3188790126959541
P 9.096432725863737 1.7274306913508115 7.829328496447417 -1.873533820163309 0.9192300581943136 0.07374952307832461
P 2.013472003854677 3.411196449510416 10.466859980661411 0.5055794116424132 0.06915264773626154 -0.25431347010974265
P 4.188197120410673 6.583643871703601 3.442911171806129 0.30018940670625077 -2.3378876494970315 0.39253674739142075
P 7.177062253046256 4.642409033466437 10.167915138119536 0.1592399887426612 -0.99577411329864 1.0402274585160085
P 6.516574315587114 7.934194513519289 10.155442697904096 -0.6180626038455097 -0.2709981298542752 -1.3456480317142114
P 2.6495345560179655 8.688793095965364 5.655721661524182 0.5804190824611231 -0.4535523678428447 -0.14239566349181285
P 7.323131525485302 4.0458736813136404 1.445287415149571 -0.4187496583413627 0.09154464227821653 -0.18230381254066022
Ni 2.8982269024985445 2.178452721998535 -0.11057590658226549 0.9658564998036011 -0.6892855038472386 1.012811785507217
Ni 1.6682993854554764 1.0129972853968352 6.824675032035042 0.6891610624542325 1.1309449769072393 -0.22267758837201648
Ni 7.452358218809894 0.38241586260553473 8.903120383566637 0.3908390479740237 1.226445004288778 0.31767496508552384
Ni 3.114127257824467 1.8325509876203538 9.119121903734642 -0.3495432745490303 0.4589997641106611 0.4297146419932987
Ni 6.968808501549893 2.005880083723541 2.5249614454292177 -0.23622601648041253 1.3402003783360787 -0.8392394393022836
Ni 4.333054237534664 7.234944947827587 10.288221097441298 -0.13540817643038616 -0.04132225578755464 -0.1381569428201169
Ni 7.006230379171078 6.443917908281688 11.540584424552575 0.3256538695259424 -1.495944952330972 -0.8151849694562413
Ni 8.01358612968055 4.328934732253423 8.013690028707556 0.1985120468694065 0.30957367613462816 1.4873163301216965
Ni 3.323839241278791 8.587145214545718 12.6954904643334 -0.6348603921291389 0.5970543770249589 -0.6669143352408902
Ni 0.3121263480468741 4.932615421000231 10.333828213321516 -1.0148416714530522 -0.9283237929654657 -1.4696945032748752
Ni 8.819705869991349 2.518630895941718 5.739411416381535 0.6507994319568985 0.619660801570565 0.2159806359678151
Ni 4.187759650823285 2.6383243978411373 11.118292297661613 -1.3274165963078495 0.38935577856027787 0.21860521807485578
Ni 1.4400769700847804 3.9834066698144692 12.648509876227777 -0.36057690665537256 0.24399537601318627 -1.1011430630544585
Ni 3.528693489523156 8.90894055186885 7.946594042136829 0.07706701748733179 -1.1050238861661033 -0.5443164232012948
Ni 5.761401554307593 8.11110539186922 3.5778103874471903 0.8786351674910867 -0.053293826327134024 -0.04986937402661734
Ni 3.466736859209271 8.551974482509637 3.4016523213455585 -1.5413876580448034 0.7127218804933081 1.461317849175406
Ni 3.340025616012163 4.4855944142871635 8.933813432096803 0.49276966147225454 -0.09517863948637802 0.01814401789887843
Ni 5.397609136595172 4.378077149236722 11.950750441318117 -0.8345731441748658 0.8288593816195403 -1.2741749633748896
Ni 7.912785845586469 8.924197303729022 2.889307991285663 0.20425023490476435 0.3324428674233178 -0.7834117908097025
Ni 4.311381265059462 0.6216424608889972 1.5990087597880196 1.707910296491807 0.32561041788251666 -1.3235231747907141
Ni 6.055900612167634 5.629185485469179 0.4766905586877392 0.21727492929920647 1.2271116913384996 0.0032388186522718412
Ni 7.8875857745629485 9.026820377770555 11.352795135796255 0.6302681447727662 0.6276101383246288 0.8049481222195816
Ni 0.24624707376607294 5.017603002300168 5.765503743084332 -0.7323432542686613 -0.02593266070536179 -1.07283393169712
Ni 7.556712943301506 6.2622768900181205 2.383845604672372 -0.5000543680591258 0.2858783894002173 -0.026275645867077323
P 8.818402575178922 1.7875918735664564 3.624536696355143 0.3483798503685484 -0.345857598167327 -0.054627457536893013
P 2.1313973995050683 3.5244463889455933 1.4492492491003575 -1.3365622673628594 -0.608763695042087 0.4257080919370669
P 5.171583183111156 1.150107545244156 8.291424887420883 0.8478552059957528 1.3031464109065751 -0.3130567495872221
P 8.656402118599146 1.8958473685456159 12.059624773484435 0.1192693618869946 -0.0883950409056413 0.6342803512559527
P 6.508353532924107 8.16406655379243 1.2695713756101963 0.010029616321860146 -1.1754607999314273 1.1196874017155491
P 2.5242815447788183 3.370192789642489 5.999939137990919 -1.796842697958157 0.09697584059611686 -0.865795078303625
P 7.291679284942022 4.123615672572458 5.987480368700085 0.5414131335115707 0.18525029676349386 -1.5787409018822811
P 2.7555206775125476 8.943692042217018 10.189698389386557 0.9497541949250998 -0.7677388601591358 0.6036186605060379
