# total energy = -381164.73130269255 ev
CRYSTAL
PRIMVEC
9.33912331944196 0.00000000000000 0.00000000000000
0.00000000000000 9.33912331944196 0.00000000000000
0.00000000000000 0.00000000000000 13.66875099106035
PRIMCOORD
 96 1
Ni 0.3679465077892215 8.452560149772344 7.083297144251232 -0.18206624260855742 -2.042593623209869 1.2347463250656219
Ni 6.132301709640431 7.382586154612557 7.100984509502156 -0.8549853892826308 0.24459727126324327 -1.1651897570227223
Ni 6.064649101858767 0.4435242954388482 4.156161004692147 -0.7033280979832338 0.24785280208606345 0.12088427178259825
Ni 7.981149232738237 6.354236631137321 10.954478543005449 0.6529033656737788 -0.7872854148324958 -0.7714237652098908
Ni 5.15258100017943 8.87826539832447 13.130201912208127 -0.08015362683245551 0.4389215053035473 -0.5195369022637697
Ni 6.215970913549311 1.157901839205116 1.6415348666483696 -0.6195875251304684 0.07672943164225496 -0.23625249884297375
Ni 2.7496806596803256 3.1078453699280617 0.9262084679745071 -0.531800035901839 1.183634336881155 0.06540732176121639
Ni 3.283943875219484 6.233584499727696 7.668852691714529 1.4391695952131407 0.08472196292942828 -0.1562675363778986
Ni 7.947192181123917 0.6336333532142642 13.534318843787847 0.6837182941721064 0.9449207780921984 -0.9590883278418321
Ni 4.019054272281624 3.3795951740736814 6.808008746360656 1.074471210190227 1.0218975498585692 -2.41094888825908
Ni 6.307569032975397 6.672654033444864 12.469987546808857 -0.6270007868754041 -0.7703035355625185 0.5549101395567411
Ni 6.842878230302455 5.8200574677061185 1.1276094594976882 0.6741807869953163 -0.15256771892880822 0.2726426074362337
Ni 3.9408204380205794 8.888575790233768 7.182449680357962 0.31743996625658233 0.49575059847744946 0.128107786114231
Ni 5.366596345282222 6.139315391093223 9.810718004007814 0.6059395953297306 0.5557879141760041 0.4292184190831705
Ni 2.8070882494144347 1.568954003603538 6.209754793209792 -0.5958886388516318 -0.8276599619948003 0.5104943324455272
Ni 8.818000036919848 6.587518587208303 13.285834663124515 -1.1844627463197215 2.0933765101896915 -0.4379905088488457
Ni 1.8092496411273125 0.4841690931095524 10.564590699390408 0.3750632731970057 1.3967757036279622 2.265233416365415
Ni 6.6974587444150595 4.477577199429107 11.602322305938179 0.8171276950049088 -0.5937880475688613 0.6063671697854525
Ni 6.422514960167104 5.001455310074117 7.354212030791153 -0.09319786161092336 -0.31695197087657023 0.18671659689637524
Ni 0.3032945602615949 8.08594353311345 10.435216760911857 0.04762557229776314 -2.085162864030648 -1.514131650542328
Ni 2.0196227282186663 8.448871196145376 5.628709108294503 0.8093663058919351 -0.3724104089551909 -1.006141572575893
Ni 4.525580292195224 6.474982153778008 0.3271448128503323 -0.6355628175128022 -0.20645007076956057 2.6989191271913198
Ni 8.546427676113247 0.9705683688168769 2.14514614624051 -0.6327258622846393 0.5735796909417864 0.7960798731956741
Ni 2.2218334217151594 7.383118484629613 2.9057028520302444 -3.740484330682145 0.12890508520454572 -0.7888779561305962
P 0.09311572693085082 2.321145656827006 7.401191555664825 0.6472428249538917 2.244975437447327 -0.23464684491875074
Ni 6.817289032991335 0.5704364410665911 9.578431598459959 -2.464390295907672 -0.19681563300359006 0.7716821610776001
P 0.4830913583030913 8.418808558866361 12.58350645598993 -0.5518641536415656 0.3059846732317892 0.07457176186930382
Ni 6.896447440439896 6.078162812993508 5.236224988455924 -0.647437457463201 0.3052655356775775 0.01782468688624672
P 2.1381922351755973 0.4346138380831765 2.8200817713921587 -0.16066386567338137 -1.4207419846355724 -1.6481694289877487
P 5.557273221742498 4.593344969454163 13.534455194985199 -0.028264651272648093 -1.1489342143958083 -0.37386822444763995
P 6.786992917634665 4.297154680139491 9.505016751721739 -0.2855850265295146 0.5636228368393906 -1.3770532854983704
Ni 8.439195864607301 4.134728651075617 5.973476846446326 1.101766041350438 -0.21087802463392716 0.2703162732959022
Ni 9.00791110528541 4.861928810866765 8.429996828347646 -0.9790526867789009 0.7554698129837957 -0.6353103351823639
Ni 7.968149173374339 1.733481335366318 4.570105495516574 0.23773936780114543 0.8701356146605079 -0.512904998769549
Ni 2.994552467526161 5.780870507152299 10.093346952659902 -0.5057856141159482 -1.0597398175173232 -0.8265950110653957
Ni 3.275146421253398 2.563579953542111 10.193128945663993 -0.7036962799559301 0.40394473211804627 -1.6769842963369117
Ni 0.17039883845967851 6.877638446503912 4.692851458326619 -0.7631113886894535 0.48430327587245625 0.8338529781793896
Ni 1.2317182682369041 4.168181390042199 9.802230608928854 0.09385220736547063 -0.5666474825983273 2.8293666171823206
Ni 5.186594086532388 3.6447608964293954 1.84256135933499 1.250484304626169 0.4424493159511477 -0.2900368916532811
Ni 7.334162801306658 8.551003846435309 11.836878118400854 0.5695723695546062 0.47060906621481524 -1.0076243277690067
Ni 1.9888409784604713 0.614587145551381 8.390685657456515 -0.4584127812589395 0.9447711398882116 -2.0050812280867083
Ni 8.939455332916609 4.317476612018688 12.725101570965316 0.7132553843992748 -0.7379382318579356 -1.5979786670659706
Ni 3.660618727463805 0.4779501710331015 4.367029065308133 -1.089893201172252 -1.865744406025877 0.48569038602797
Ni 4.417704081194947 4.063452463528729 11.659567394930242 -0.38266988189967 0.5680934710162345 -0.08776974861681658
Ni 4.408869270736436 2.5169216945032935 4.506491124566052 -0.8128059277011034 2.682337054462922 0.3128582604231709
Ni 0.6368002498595932 8.86526533896057 1.1433309393347468 0.6689966716912156 0.5620128120397934 0.01395183419440178
Ni 2.895455032245758 6.027386000664835 4.582694633463797 -0.9063935685512778 -0.7992112197358042 1.7365089340651063
Ni 4.968021249353748 1.3630450173569706 11.322181299681596 -0.12907812044730027 -1.4084215153970068 -2.082056457191182
Ni 1.6649508500126664 2.2448543601720616 3.75708813350211 -0.023562360700972323 0.1786772715316665 0.3268990547869531
Ni 3.6072269606653826 6.725784304796311 12.076477991253213 -0.048891840604696445 0.619380551325985 -2.0472228944517643
Ni 7.566744323144672 8.322708982103064 1.2842246861648545 -0.4424665423423283 -0.7617793001415912 -0.525318027721921
Ni 4.187989670150553 8.016058874909394 2.9846670057181974 1.4001189090685822 0.39030168741331495 1.0212311199191637
Ni 3.9238886078289505 1.8717657312005398 2.5091590153773797 -0.5165724203188071 -1.2545990981254909 -1.702399651086223
Ni 0.4557781588665569 0.9979600168875037 5.783548967659171 0.8965920090798236 1.5876767709193302 0.9561582986792307
Ni 2.5837898159440327 2.3053998952698707 12.304869048553453 0.07301418757419684 -2.177757287729617 0.12934474384512562
Ni 8.327658717349376 2.7894559849898375 9.313353663861443 0.31892323567032815 -0.4943732585139486 1.478735273320905
P 7.447128834399841 2.994748589111392 2.71450485250064 -0.8180494354882298 -1.222136349611095 -0.006016895618041251
Ni 3.045011749669222 0.7692262137692651 0.504695551784776 -0.658914090644233 -1.028563649024835 0.39647207789008493
P 1.3534817552961722 7.073526553657475 8.583879427593924 -0.28834022067714854 -0.4055143905980113 0.19537478679200546
Ni 3.1988924810908785 4.3998103213233755 3.0435520447277153 -0.7767012115587462 -1.075177235118316 -0.970107047549839
P 5.213406708970427 8.215738666044095 8.855601214370225 0.8847327957483924 0.5553114887602179 0.38285063045190837
P 0.5368828395704615 2.6336046985927624 11.552062881029594 -0.08348937607390781 0.06278402520575638 -0.5086266831091693
P 5.242722216400941 1.6059556093504945 6.228822480855819 -0.05568443804649764 -1.1931314777383129 0.29862103377786636
Ni 3.0951348233804574 8.20359780600597 9.54080146972795 0.989475938994754 -1.3046055119506048 -0.814900605446603
Ni 7.670501980855093 4.981497603996064 3.3697022409672326 0.9861885264927339 -0.03276511024616292 -0.37502419242895413
Ni 2.135876132645248 3.2742031698196667 8.027014600225334 -0.7263137602451298 -0.9292715015907157 -0.2768448184430394
Ni 6.575340370677755 7.304090824904539 3.1113354002328673 0.18149700036864874 -0.40277230907649997 -0.2909396059732086
Ni 0.6747357679171746 2.0059035563755874 0.10750731563757977 -0.15701932694225862 -0.4871808545305675 -0.9622885799466847
Ni 4.258910971019404 7.621387532439331 5.237619319535687 1.8915150872320776 -0.3917253072337189 0.9421987511753451
Ni 1.0773145459212974 6.026498783969742 11.511644090138061 -0.5592259933232756 1.2771885533902327 -0.24062054600368238
Ni 1.6464593862622945 3.6259612416165172 5.625674827197282 -0.04175574378054744 0.4279015000439598 0.7343155475036838
Ni 4.63079485311022 1.571503584211544 8.517504411853196 -0.5184110161894426 -0.7607166632050318 -0.07406988253222083
Ni 2.1098573356712396 7.3851544134667755 0.10739711398492605 0.21938014856766735 -0.4088835641805603 -0.27909401948853224
Ni 4.549740603671089 4.141284715496204 8.714102292362833 0.5642730688288798 0.40073805225529047 2.881345581352773
Ni 1.208043591162564 5.9815215670900495 6.648056651007626 0.5239766832026782 -0.5964540244367986 -0.38689240462144986
Ni 7.4082127084161025 7.559123598689973 8.973124739539257 0.5166688366873553 0.45928901321630583 0.618436956465793
Ni 7.207300153031379 1.9631957464107128 11.689324642883681 -0.7235274557492443 1.0385801527205727 0.546630158936136
Ni 2.20930965762968 4.406002159942818 12.49281423150515 -0.22019467404916268 1.3680665086187276 0.7616977961713784
Ni 8.515982134786878 0.6363799893198119 8.2110102680154 0.586139529884668 -0.4698444201346489 -0.37499925272828966
Ni 5.187780155166881 5.5060201141354055 3.5297085032342777 -0.32139226603611104 -0.3355603300063769 0.8704983973165653
Ni 8.39202395379764 6.489186960022612 6.9646249069401325 -1.2183917949669982 0.8730795277801802 -0.11301283945432149
Ni 6.391723871285802 3.369359495149233 5.018973637196819 0.36037404661594713 1.323322628744134 0.04646446211012643
Ni 7.489444401194253 3.126822468079959 0.36149317372280376 -0.8882930022958251 -0.17712895320794012 0.6513195661264266
Ni 0.9288327615673629 4.964164191510867 3.816137541078298 -0.5313611485922075 -1.0591682612845694 -1.1883865068541597
Ni 9.27012566473955 9.143533851034352 4.0493812067445445 0.34898405961145057 -1.186673380817795 -1.514862100950449
Ni 6.641424005777568 2.480741931589687 7.601766034793103 0.7303884445351356 0.24338628167427762 -0.10000897099548582
Ni 4.741360731565096 2.2008764294647376 13.269117632764331 0.9973957080624628 1.1358457566429663 2.6083967555300305
Ni 0.22994321956049782 5.175433834420421 1.1296678022303053 0.28401228272575607 -2.7653507764519922 0.11927244721078814
P 7.371995589010072 8.235556285275553 4.766266305064839 1.0913163067720237 -0.1996199352216046 1.6378397649269663
Ni 8.82874936761514 0.7554239237305406 10.735300530649523 0.6866370104807982 1.5258936761742623 0.2605373395322674
P 3.5826650668959488 8.90373318703521 11.475463393312141 0.5513280786324376 0.457145998731374 1.2993301224842784
Ni 9.126265812410898 6.86131365931419 2.3283900146205228 -0.658198295524131 1.491160129347819 1.2374295283247398
P 2.20818896285693 5.688478562262183 1.437583360604872 1.362144486707338 -0.9017599264340083 0.5196567156710856
P 4.623911919380914 5.2669665799847625 5.81811773183695 0.6332966471864448 0.5966090619574241 -0.2794298055613962
P 5.404485167724272 8.185479907179849 1.453740043578682 1.655506071858478 0.6351799802520868 -1.7849269203571776
Ni 0.1884924555657244 2.985110614065744 2.0468677520565253 0.11331288719324356 1.8538150015781427 1.0005136848661542
