# total energy = -340864.1007904387 ev
CRYSTAL
PRIMVEC
9.25943156465289 0.00000000000000 0.00000000000000

0.00000000000000 9.25943156465289 0.00000000000000

0.00000000000000 0.00000000000000 13.55211405255546

PRIMCOORD
 96 1
Ni 2.3248210646101906 6.099520976983297 3.696339194082298 -0.1872858391362839 0.34144044293623776 -1.0274120519188952
Ni 5.1834668835453925 8.911860378164052 4.9542190965648025 -1.301424543119462 0.01649928320660384 -1.8346037187570148
Ni 8.018815972412572 5.28707992387178 11.827147066534513 -0.2668154592314953 -0.9882518367796657 -1.9481240939753741
Ni 6.8869337863055184 3.1431511162603654 10.737475851556674 0.44391690163560965 0.4628358500272996 1.6149885713604057
Ni 7.982861599259098 8.27000583460866 1.6646328463589757 -2.9562166196300503 0.19123736758486418 1.8096182524562705
Ni 6.934990236644567 8.337960803594841 6.142658817222133 0.5398771564830186 1.4877619022995474 -0.15646628265226603
Ni 3.3863315700666137 5.953916414058146 10.957779027549302 0.789813323460672 1.4411804549955824 -0.48866103862051974
Ni 6.615891702620621 3.2412640541780062 6.2075998412015 -1.284555278167949 -2.103744483687577 -0.016856152325390325
Ni 4.6582256223734255 2.00236135689201 10.588646228582759 -0.8750307379692801 -0.14885813128770495 -1.3057846198603704
Ni 9.315543820443722 1.9193875897459192 4.445418882256422 -1.0101602068169828 0.4542730480589531 -1.3535744856501397
Ni 8.752570375238687 7.392424679736988 6.623866851113302 2.5260234953384364 -0.32718778967196555 -0.93746586447605
Ni 4.887146551416255 8.74123683088127 12.50154110484549 -0.46389540164006554 1.0551719956409826 -0.20452739982555096
Ni 2.0625661815749563 2.272829355813706 2.5478381800237 -0.08058660060481605 1.4295685817882668 0.3216627460886783
Ni 3.286163038319441 4.052168041633208 9.0798625803426 -0.6438991052926395 -0.6214927125729812 -0.46769883454655575
Ni 0.5472787085336125 0.8464629828765974 6.3141740477742125 -0.9540191408490409 -1.9232898085405137 2.419252265918453
Ni 8.879128287229845 5.209689594019417 0.38791555609809686 0.852294472714029 0.8648070033587429 0.37396746902966566
Ni 6.191846770110591 6.726264128062135 12.351843873124606 1.968905035276467 0.1216769428872227 0.0111974113777162
Ni 3.465036739215344 0.606398327825473 3.0538466756852176 0.6961266951387882 0.5701644946126503 0.002009574230861055
Ni 0.7652346185992753 0.2967249692928786 2.94311220646562 0.976793715541395 -1.3136102865523762 -1.149109306521092
Ni 8.229449523917902 8.91474006141173 4.216076649072854 -0.4904505264207747 0.5055179622768584 1.0154394529380513
Ni 2.641058434249789 8.09565073636506 1.0980815567587554 0.7137127836516677 -0.9804657650763439 0.2981407517073381
Ni 4.01640811654469 6.781394784192903 5.151050539230948 0.6097389144711628 -0.653919722753435 0.05997843743616122
Ni 1.4513603568292457 6.451907167841324 12.553946710237382 1.7769454448135977 -0.7806437411462621 0.13431777157968477
Ni 0.9768793000423764 4.793422584107614 2.1765099698094894 0.9014925317052346 -1.1792480348880015 0.2978769565229902
P 7.446759024744606 1.2653661529832991 5.910117450398461 0.959939620098534 -0.07425063108445923 -0.13664359149938404
P 2.325950715273266 1.950915954563734 10.090565658312435 3.941430440914341 0.8599720438639447 1.0250263252955378
P 6.7749039225960495 5.572344494593437 1.008928970862906 -1.3629854945513946 0.07941392045295355 -1.1904914690123045
P 5.111048868496896 8.046844272061184 7.022515940396954 -2.6576529214526814 -1.4788257761521821 1.36459963311605
P 6.262236969624549 0.8626873590392332 9.506279779245089 -1.0391859046253717 -0.2367132405294762 1.8505977801924256
P 2.799042857310452 8.035251463617158 11.762219005759478 0.5507768341146579 0.23896501267813042 1.1672011310257964
P 2.0719830235778103 1.064306853819119 4.767471174981361 1.0664326561564665 -0.40917358461715336 -1.064194253744251
P 1.502963169495819 5.326145466064544 10.345684297363796 -2.1942696835623434 1.3492601745455022 -1.7711820599672592
Ni 6.453638681562597 6.816349138726604 3.7492198083185806 -0.6087384982311065 1.638238800137598 0.2525530357752102
Ni 0.9640086900286429 5.581205770696418 5.747492200187522 -0.48042322409175964 0.4085225812967158 0.5202709522163169
Ni 1.5846961727988593 3.7678571923729995 4.510698801434711 1.0244915358379905 -0.13562234932372128 -1.276327748051834
Ni 5.732866001930188 3.8504420633891794 8.8711327679875 -0.94715943761473 -3.3007138471147415 -1.3664927363737047
Ni 5.510889646635776 7.851988792112256 1.0272746828198918 -0.21687049477193618 -0.5010352439151565 2.5242772020712914
Ni 4.831376994500632 3.806450503550871 0.4899091218263534 0.020641587509751546 0.5143214195011013 -1.6088816871317193
Ni 0.058591831686980685 3.80929314907189 9.725132928239049 -1.1822045464131639 0.07253750504809443 1.7307666322646902
Ni 5.117548989525415 4.682364960722923 11.585729608517196 0.7352354882147919 -1.1082066547694593 -0.11648537138395423
Ni 8.646151727117939 6.716319498454401 9.968637462153554 -1.7571083554830125 0.012499418018591377 1.3174263178643568
Ni 8.95546304187245 3.415813600486561 6.086349435440466 -0.27076621634912723 0.1368960738298223 -0.19950886356503705
Ni 7.857053701232769 1.58593693664191 1.920998730855552 -1.0098383047011898 -1.2125512770258213 0.03102858717103043
Ni 8.738125661841979 7.325025276650681 12.80272263859852 -1.9469627266774212 0.9736752245170714 -0.6052119731350868
Ni 7.880665251977388 5.270875918458806 2.80332256662581 2.445005977843789 0.5037485290812614 0.7436849045337257
Ni 1.5395194057074881 7.401665592538215 10.008628947512774 0.42000641356659923 1.7192722584718456 0.8461510788204525
Ni 7.618391850078825 4.7752185414550965 7.474194720766686 1.1094289572123346 0.9669623312732702 1.1068480838590355
Ni 5.934906800850812 6.00988967847039 6.12658536979563 1.9346687398014166 1.7875697572966636 1.4661062717029847
Ni 4.4784167188794015 4.450823612519024 6.650672905782194 -0.6907865138727974 -1.4356422987861728 -0.8888781853753337
Ni 6.465564829546546 3.6492068350233726 2.1247275241686236 1.1427823358617997 -1.2202478743391307 0.11358516701802372
Ni 0.4427739849379284 6.014621248050979 8.12110398806776 1.534958100369376 -0.27638561941843365 0.5279806621557487
Ni 8.187022808030905 -0.10352137195290824 8.279406935577684 0.637020118784619 -0.6710612675297282 0.4482335267330925
Ni 4.4090913540068675 3.0468900646756363 2.6047975739082188 -1.5649392201124983 -0.9482626979812377 1.2503698905354919
Ni 0.2888942679341631 9.140031293242055 0.4848692131713352 1.6718307771604304 1.6959011878460728 -1.2905618893733453
Ni 4.560279354225746 5.640271685284623 2.1942630781399437 0.1195876644583618 0.470574356322138 0.6166916916399121
Ni 6.77447798873948 8.292913668546772 10.424191314674903 -0.4999402110787648 -0.37754798729207234 0.5901136840410676
P 2.91338757893606 5.66038317086004 7.124983589026435 -2.2468137762076466 1.192006362994934 0.547931908466695
P 9.032945966041458 3.17939253179544 12.108434711356244 0.13147593125551552 0.10482079056183237 -0.42678049906563914
P 5.275024143844528 2.327571115814564 12.55301150763926 0.869026183646413 0.17245108811629656 0.9937673672812563
P 0.4880618652092743 7.439684818952885 4.101398587907322 0.38695359687668845 -1.0494885721029603 -0.4171285777981719
P 1.2362915375565915 8.406999126085774 7.8738595697039395 -1.62921319960022 0.7804002576768883 -0.6974310157725085
P 7.735171802232212 5.213865597700132 5.1035228024399455 3.75848513813494 0.8430264171485418 2.0762503920323665
P 8.976713437542607 3.127947129467164 2.7276748618127162 -0.1067930837968548 1.4782449639480477 0.5889793133263083
P 2.5886870887550573 5.630067791590283 0.9152661158032509 -0.6841268424644348 -0.27764237464367025 0.6938780083139275
Ni 4.272116581393083 6.218245409786241 13.324655504836743 -1.6108218415772257 -0.059109661677962715 -0.28900716483718614
Ni 7.385396771103589 3.5905390759967424 -0.137809047406761 -1.8308486225899565 -1.6512503819059177 0.08851819674706692
Ni 3.3316268477924136 0.7012769462626841 7.384546755276783 -1.5358551582623485 -2.174236161950236 0.6649962922825708
Ni 7.718717792164294 2.107631835486353 8.851143506910056 0.653599620409855 1.7261623007234594 -2.014932924069807
Ni 5.519797219897079 1.3095521608865628 1.0784071163579056 0.023510681527430476 -0.02905937925980157 -0.4288021574813583
Ni 6.04666814104201 4.5543718368237585 4.385599249930721 -3.607654713612213 -2.0300625806223938 -2.5592470332782566
Ni 2.957156912414419 1.693485235425734 12.354283733368217 2.227879144086673 -0.9178779150417933 1.0680275114474123
Ni 0.8199597116231372 1.4485547490348851 8.988033092752527 -1.7823982403980527 -1.4170858759402238 -2.5242751451887626
Ni 0.9349988906235873 1.2378934192345599 11.559194855196079 -1.8632159831770685 -0.17363533823238483 0.3637051678717091
Ni 4.429952853547113 1.7813109447640523 5.307359931103492 -1.6530900062178178 1.4247896723423847 0.1465477379869734
Ni 3.116039500346544 7.6602537406342845 8.399166572840725 1.670956087864961 -0.7970885169658467 -2.223135201643784
Ni 6.911258313288308 7.033158731152195 8.168170605161867 -0.4788324825658721 0.7643126080864063 0.05758011240731374
Ni 2.2610513587363896 2.4614439788207214 6.366661136164752 0.7764991228502692 1.4443917628440288 0.13674283608140966
Ni 4.146901286993285 8.598363800297163 10.258218779917227 0.75781388773594 0.36526377060808063 -0.9245363008985755
Ni 0.5168142524140552 2.4614347193890573 0.8672494810203603 -1.1382435674511817 -0.07072924819476206 -2.404448368136401
Ni 1.9570086605990122 7.793043250135689 5.585516962079435 -0.21839747293942385 1.3949774740769587 1.255803145735921
Ni 2.452962339415988 3.464990442057021 0.2808015246593407 0.4691831324015661 1.1369657291800224 0.33168799153516426
Ni 6.18631888940685 1.7569216017596105 3.912020987731146 1.4819380965289186 -0.5741234792603983 -0.6988101555082223
Ni 1.0911869839413266 3.8328584026581867 7.777219807364128 0.9332947638174959 0.10594847640837238 -0.30885093903599065
Ni 7.686198668158372 1.3115336792627776 12.104910571664714 -0.4536796374493283 -0.701706760329727 1.0092099270885715
Ni 0.44285361605024365 7.095354333643021 1.9336563739410004 2.392382181000486 -1.3240535933728874 0.19833721185443906
Ni 5.62051205811246 0.8988491434619923 7.511774124177289 3.1229462318815377 -1.4956865564632629 -1.2521200404573791
Ni 4.758181187192313 5.906637755978921 8.840084967673077 -0.6102742181493425 1.7850665312588354 -0.2245768622772584
Ni 2.2206802366789233 3.724087858894641 11.284167512122755 0.3712477561056574 -1.0618728046999262 2.0100205743698547
P 6.744431132987994 5.420999084036261 9.519086499180338 2.0893815300976857 1.13481345872371 2.4507187119578506
P 7.0550387681755415 8.710264031963328 13.39202342585539 -0.12434446241705684 0.8090600875054259 -1.9462083650099002
P 4.051038390970132 7.923656793195924 3.213232976699895 0.05822623063174489 -2.7159660553712777 -0.08587201737347147
P 4.442110487322676 2.4996113561420237 7.410160195147279 -1.5906142562810992 2.1846858965286504 0.42002029752367015
P 8.712884451124397 9.139910920630415 10.760093865283686 0.7148476685870592 -1.011002243102304 -0.9355529637240532
P 2.241171358952587 0.8831534808474025 0.7991463611275471 -0.15581913598657032 1.297019986293863 0.011349363574548195
P 6.468814890060805 8.90524914395556 3.0555680040316586 -1.3390984035211517 1.284299196293085 -0.9326694715286711
P 3.837775160872066 4.456694092194352 4.095719778467449 -1.3952186435534875 0.1394566354681469 0.7334940800436529
