# total energy = -340862.8956900857 ev
CRYSTAL
PRIMVEC
9.32510516964965 0.00000000000000 0.00000000000000
0.00000000000000 9.32510516964965 0.00000000000000
0.00000000000000 0.00000000000000 13.64823401185780
PRIMCOORD
 96 1
Ni 4.455917594828513 0.405402421083275 6.085434035862387 -0.4126093497715797 1.3122987668298045 -0.34791679468920084
Ni 0.4642447674184103 1.8595005781202618 7.077182286858011 -1.6048885068119263 0.7603849908972259 0.5308870371692663
Ni 2.6577668838322035 4.695087893049388 7.858188755351573 0.17625914900847708 0.6159982651173134 -0.9305470258690296
Ni 2.56049671147015 8.005351038075883 7.083761148578021 0.38441437539460244 0.7069212146511309 -0.37252867970061
Ni 4.9146101946096525 2.7716916940850282 12.454245896176769 2.3097734077593186 0.1483361973459639 -0.29178652735453614
Ni 5.051689241079042 2.5109151271111196 7.278139236471614 0.6052577387713576 0.20952639570203915 -1.431072420027303
Ni 3.3418566014508673 5.023919077787488 1.0881026980268405 2.197692078980331 -0.5777405071876953 0.5752735337044416
Ni 7.411873367705046 6.761493905391609 7.2968239497648595 0.31006604239001434 -1.553063808831151 1.2255456324029603
Ni 6.555931286318739 3.7721822312075255 11.149324244587726 0.48259040694640754 0.628696429410272 -0.7886768958633837
Ni 5.529936586468773 5.152465652997046 7.76652763376852 0.05757162776688149 0.8006286689086212 -0.812321274755201
Ni 8.285654375342776 2.944644420266508 1.5608258510949085 0.03550667754704207 0.030999276594991774 0.9986234098219771
Ni 7.780242998499621 1.4306856154063274 3.4187868543463202 1.518102719374934 -0.5497867022872467 0.787677765174908
Ni 4.62694934933838 4.66024930001472 3.7419632952899264 1.5040976633450933 0.8164514948734906 -2.074485843932776
Ni 4.202041605704084 2.6246907356807125 4.800916646965837 0.8280826513545158 -0.915813833423913 -0.022353685104851823
Ni 4.927441539367604 7.685891584065793 6.812434157578571 0.9397299779198784 -1.543144235724594 0.401462846236457
Ni 1.0157464092329678 9.018383841695067 2.6822462174979718 0.8023389667315086 0.40114325811350915 1.24145279055152
Ni 1.6942410637304315 6.7787080495945 8.740397793070871 0.24771524806693468 -0.533783641990771 0.7234647208321089
Ni 2.411826559234676 0.32654187141100793 0.9351206171459623 0.7366709351097378 -1.4037428789744146 -2.6873915861676942
Ni 4.703797541308056 8.48189188921365 -0.004245720398470248 -1.4395323778691982 -0.19399153329123367 0.25718076435520865
Ni 3.524768539988082 1.0297433921411685 2.770058868164158 1.1253502564282813 1.2740592637326318 0.7035024187775691
Ni 5.177111906045931 1.2471022692945686 10.682144866562245 -0.22644014073824226 0.14730364231639148 -2.0965307395479567
Ni 6.965182178318879 2.3895209075914936 8.509728260752137 1.0706225258680981 -0.20269728859534772 1.1471583534423082
Ni 7.565588401854801 5.060389564232507 2.875478249962239 -1.220160456831647 -0.8049483793298975 -1.0026878096993377
Ni 1.3537628225950358 7.343436420627573 5.087720515069046 -0.3422822221112428 -0.15735254191196127 -0.5236498959908789
P 8.853096351989631 0.7873382149257189 1.4590507204097685 -0.49845951276818024 -0.4372397467257502 0.13237453181038494
P 3.9120308339219076 6.687415269666928 8.31995024725469 -0.8986018404210009 -0.22145965680451538 -0.7481241712520019
P 4.66520093087698 1.336716530285781 0.5482005545730497 -3.043157958808301 0.43235156539551345 -1.2288235318232836
P 3.5629361955798644 3.2972919236905125 2.3700836583084466 -0.09723680756698737 -1.4957222947972046 0.03492380846037856
P 7.586914917451773 1.9027970415731443 10.690879692604957 -0.27518002914610673 -0.43825430403319354 0.22973038145373983
P 6.021929136926253 5.5275680097474655 1.3480838335270182 1.0323557690774157 -1.1724747207199095 -1.0049706921962434
P 2.375617175735313 0.16109398989609724 5.607472038691837 0.4365985135973255 0.0035491508038390488 -0.7348824757507473
P 5.141079699545406 8.434594955629109 11.525005690371188 -0.24388276169472192 -0.9946297152815515 -1.322207027082452
Ni 1.892250347589683 5.64149282000029 13.19410254043495 -0.411626159922704 1.0053208764468107 -0.8028444456130174
Ni 0.49982750384819896 3.8221368197746353 13.534394279466305 1.1383692943957686 -2.1858320943179517 0.5440305165297599
Ni 5.0262503540879875 7.157353946321678 1.959490883669739 -1.0609652052839922 0.26611817605415455 -0.1267787828901623
Ni 4.4463873373120695 5.982278789607352 10.137949444673454 0.7172876454871195 -0.5679271206416994 1.779821480809812
Ni 0.8260140887510107 3.874702437798305 5.692774371037645 0.5667166452733658 -1.4889034721031584 -0.01593466895238546
Ni 0.031060060406819027 4.990292748429078 8.787756272349744 -0.40589568519683 -0.5630132282798497 -0.8660992398076052
Ni 5.991538619072937 2.876207473189036 2.9734450076828822 -1.0846939163594997 0.20398541127915193 -1.7881287151239267
Ni 0.10473305405521391 7.877895500174957 7.198542935998909 0.8567489089409568 -0.22115472396958685 -0.5820270503781912
Ni 3.0161959524814477 2.8745382793578775 13.34831367018145 -3.2248323652950783 -0.09158089483279067 1.5705457676659984
Ni 8.016662390685907 2.3313042758154126 12.886990458222826 0.03264246862536959 0.10665013046108728 -1.0803978600873072
Ni 7.569738073669691 4.395472262909153 6.643660011038107 0.5860600827969843 -1.882375843934971 0.998001717077578
Ni 1.474177906068452 2.146974921287494 1.8950982347183738 -0.943946329994071 1.5458096983718992 0.7003363623447616
Ni 6.711110361985208 6.734991956407527 11.516489071790202 1.8725346894748331 0.29820348662447355 -1.9835361549260808
Ni 8.601691515743733 5.116088417604048 11.89611503707411 -0.6208687058357373 -0.7949095070366567 -0.3943959120873466
Ni 1.1178190107740513 4.842890810501077 2.0304614618305945 0.5786103113871583 -0.5702305719638954 0.2639959875048292
Ni 0.3522278736899148 0.8582621675605645 10.370623874610617 -1.733137960710344 1.9792526970593782 0.23105989889844075
Ni 8.47018888218514 5.491470527510527 4.84081037953051 2.5166405114616395 1.3565474522355345 0.5203424288842007
Ni 0.3403430271099668 7.765723809700108 0.8740803435147158 -0.38012243288746794 -0.3820618160020258 -0.8068934188714103
Ni 8.841551871749557 6.99657980753401 9.796429589286994 -1.1967055682428165 2.0421223400004056 0.5802226501796008
Ni 6.994416383127146 7.593451816198374 0.1169228315752673 0.34575244004803035 -0.05496427205102147 0.8774987398937985
Ni 3.7108137138731685 8.707960414625715 9.625553564034 0.3724867707190811 0.24487906416972016 -0.2854994087942438
Ni 1.292804609889567 8.626505620686252 12.400457756861119 2.1788831738039445 -1.1492131790888078 -0.3565371893683602
Ni 7.883779641557418 9.259792165164423 8.252268633698579 0.4589889654773837 0.4172159953056557 -0.39124991025919714
Ni 6.188083861415475 0.8106677631200805 1.670735271047752 2.3420916602760506 -1.1460000714681489 0.7725085136336373
P 3.804876050045735 4.536421228037372 11.775710211216417 -0.7551679654726607 0.15518972993268756 0.1475584386396749
P 4.067452362323628 4.481421757555981 5.9978936782681 -0.10634725450868782 -0.5299043615410228 0.5402623077365792
P 9.295507318088081 6.531900490213186 2.755100466909631 -0.5426729740606009 1.4394326190665405 0.6666744513159422
P 1.409153947494911 8.488009158226161 10.035709923749256 1.2011957428036861 -1.5836959318947113 0.3004161780050762
P 0.21288469167748075 3.5880766792044545 3.6681271123004966 -0.5434553607525802 -0.4764092178363602 -0.8812044708801599
P 5.386591069303642 7.484189558546549 4.23290397388062 0.03342151288323921 -1.245211486263004 0.3607651114067787
P 0.561910324241029 5.62026888056054 6.6929301368833904 -0.3742749729677554 2.4937443235897567 0.6581998381860277
P 6.699118276695437 2.7712254388249287 4.857352183648336 -0.3775623854697755 0.4157034153158711 2.0268566720905867
Ni 3.493687964349818 6.304069519917941 4.819478268870418 0.46807472982873577 -0.15417902927998609 2.1147580611892614
Ni 6.218129350376316 5.455307769537174 5.120394751186331 -1.0750522795046773 1.3793238267001018 0.6557637179407094
Ni 0.8143418545696682 1.2941474250386547 4.7611450732793115 1.0685486740582049 1.7618862364876302 -1.9853667803769164
Ni 8.610606316316844 8.379073279256405 4.122257870616819 1.1929121626386552 -0.002683717479750217 0.5951108801453429
Ni 2.787991977978123 2.5376502037252515 6.773126974131104 -0.7690696631554174 -0.8465262027716841 -0.29966618721292904
Ni 6.170114383691223 0.7139207291598588 12.643628525213652 1.4304245020306592 -0.04091756414996824 1.2625276089439483
Ni 2.6934447363350524 1.2208987236769506 11.418658460605506 0.194160197658614 0.14896560339984666 -0.3543802909263574
Ni 7.316692018908239 9.03728582993952 10.615433063947142 0.5185783950052424 1.041159997632607 0.8615018502449099
Ni 1.8386589679937935 0.8169678041945513 8.49365084687337 1.4939999127894594 -0.25728900779829883 0.5282562844146387
Ni 6.251382675526646 7.599373258001644 9.290707686440612 -1.3404487469014592 -0.8931354179897909 -1.6139863553481364
Ni 0.8287454120646762 3.148276742562565 11.435977978497181 -0.28892257554317985 -0.2350263397453565 -1.2813678815789027
Ni 8.716828589672817 5.441198885366549 0.7838179877119642 -1.2857220447825408 3.0013515642954762 -0.2993548266200974
Ni 5.782012830289217 0.22012750088787353 4.0755400260653225 -0.377131468579944 1.395587339746816 -0.546360193104201
Ni 2.894596580647378 7.290964053655924 11.453665838044333 0.9504921015323889 0.07480958891172276 0.26690030563581774
Ni 3.4585975934746953 8.070766651067908 3.444090527311945 -1.5671148876075787 1.3322680108628797 -0.3887076034533177
Ni 2.603867775764648 3.517606859192947 9.919959257897878 -0.4080099033263554 -0.384827294562305 0.693147043685174
Ni 2.435409750290532 4.408462134455538 3.847436762698179 -1.6046501655488752 -0.7581622722142943 0.9640551849288042
Ni 1.218679348638875 5.719469349699408 10.850482598179255 1.1307279758004267 -0.6894071170267675 -0.07275167794142955
Ni 4.827868066020655 3.6963504757048673 9.304956447189268 0.39155741419728696 -0.9546434046966009 1.309684983356041
Ni 7.041993069867746 4.280614942136129 13.555590243590448 -1.8445173783263007 0.044345101774278466 -0.2986521441261179
Ni 6.851602396958527 8.122866013831477 5.722240770965442 0.9238369608387056 1.598417297265286 -0.8399650046143986
Ni 7.01365407515887 7.761639413621633 2.7370172229019145 0.9318045524252145 -0.3859464957684128 -0.4372011801783309
Ni 5.180916548968346 6.0349003582622345 12.800091667866436 -2.2552325963989612 -1.0975327199953808 1.7598404097021951
Ni 8.6728980190662 0.11869087152156635 12.537772728492117 -3.0668846130012795 0.16384226340136301 1.5187874041467841
P 1.0266101567932968 1.4649553770236745 12.875238960647266 1.2116537049122167 0.947341214608233 0.5115441138662804
P 0.45911036449418957 2.960459798689098 9.128934828885809 0.8597910382013902 -1.7913850172776955 -0.008462014724424136
P 7.320412735883837 5.302422669750396 9.642149453761997 -0.9574538775622027 0.4798395836741478 -0.10426029007267205
P 3.8817522173310164 1.7312803815927724 8.931814227552309 -1.2586028199682453 0.03602372639277667 0.3979844007695533
P 5.816114740012927 0.294418749011161 7.97744752577994 -0.2864342619036873 -0.07026439274320156 -0.448886329825743
P 3.002450747413701 7.1118567580411245 1.3214233577545025 -1.6187547232710573 1.8091721660577875 -0.6341363694789207
P 8.772089163099864 7.122151674184131 12.449386583856008 0.5719113021004278 0.8033944045792164 0.5873620894378594
P 8.762279152427363 0.31028168547028184 5.856771266183125 -1.8689919664288974 -1.585391317319263 1.8404100410261466
