# total energy = -381170.4749067658 ev
CRYSTAL
PRIMVEC
9.29202759996423 0.00000000000000 0.00000000000000
0.00000000000000 9.29202759996423 0.00000000000000
0.00000000000000 0.00000000000000 13.59982164509533
PRIMCOORD
 96 1
Ni 1.7184489620176313 0.9227782315663852 13.24498872205868 -0.0288950857677954 -1.1264843700327245 0.08115584284472475
Ni 7.380369305457949 8.548953254463893 1.7004809686476723 1.270776736326618 -0.7054963092791463 -0.2516431223664311
Ni 7.3399675703529255 5.17064156314187 5.128071068843307 0.9839408681091376 0.21211472525450567 1.234538837040506
Ni 1.6174910843920403 6.613702709311398 2.4386795804701062 0.049529731299011476 0.4775428172201711 0.9696843581901234
Ni 2.807548908703345 0.7816611407507303 6.319754997948397 -0.2204319868709494 1.2334276062541984 -0.7816495567029571
Ni 7.561192158526886 7.9985121357538365 12.682349958989757 -0.1972748320281957 0.4437904033600744 0.07105217875181956
Ni 3.962445701359313 0.88169724925893 4.110804069122379 1.1614531727984254 -0.30390490788462504 -0.08827445616737702
Ni 7.833894578458394 8.923858683691662 7.364479938615816 -1.2641774858425454 -0.9344790139335842 -0.8866040446291763
Ni 4.181579583369834 6.283408303597707 12.75421171123946 1.249954400264628 0.5183801629515072 0.00025993852960600394
Ni 3.2119658169314724 3.440689071211631 5.296477914909638 0.2793896963520801 -0.6887571421475944 -0.2674042418554298
Ni 9.230272579005192 3.4644580772830773 4.398209263997926 0.31709878086707965 -0.18849760005619795 0.40833411943499354
Ni 9.092044379506039 5.310059142147334 12.49294591862333 0.057329944069720626 -0.3237731075634617 1.5384717699495891
Ni 0.8041459886364556 2.908246609561931 12.626700006932724 -0.9829751617617587 0.844136876603901 0.14384448012319742
Ni 6.5921452057595 1.232736106127627 13.252807963109943 0.6538737000068481 0.7205760864304042 0.4313295518889023
Ni 5.398658623340157 2.023682769852242 6.561777931036242 -2.6747872671401223 0.13565551655450186 0.23866007984320187
Ni 0.7001682021081203 7.906493188480368 12.077361851874223 -0.19132684197487693 0.9586489263115684 0.5076154682358355
Ni 2.7025582911891664 3.0888464539734346 0.691979138366617 -1.238851348372931 0.95186609906178 0.6617124793249766
Ni 4.720284871482457 4.528971319486756 0.9959994074236938 0.18649265381102723 0.28273341601333246 1.440773449365151
Ni 6.87666708453498 3.0885584011242497 1.6905803134603674 -0.8159868965322463 -0.7169132928668362 -0.4442467741712027
Ni 5.895837841033195 5.182265889410587 3.3248165604174402 -1.9150915890004372 -0.7355388783878235 -1.230657242597913
Ni 7.183945138396064 4.3123277008175736 10.904731224938601 -0.19592397442725612 -0.9059611089995494 -1.122848058831718
Ni 6.307530406710089 1.8426740762354434 8.894827602507528 0.5552186719360954 -0.05554791246863336 -0.5335208752476877
Ni 6.893578574390349 6.500739532293974 9.809673230288457 0.40988295197935215 -0.6066057681588198 -0.796927308797634
Ni 7.406823707445989 1.7231600199059125 11.104199460174453 0.5137681181007926 0.7079296013109873 0.04142921367906413
P 7.332803417232877 6.742824721965352 3.1231033713634266 0.9740971425458383 0.1658531231838047 -0.739754459131068
Ni 1.7669440529820086 5.677530949460657 11.5281602896184 2.1037696804985577 -0.9436984756493232 1.4947506749125548
P 2.7400051615831957 5.205821178851993 0.11015048032554481 -1.31282172921281 -1.5038894039890291 0.3161104488118814
Ni 4.049196069100916 5.373570149378896 10.400436172667956 -0.3896244588406322 -0.3344961504079207 -0.2151889933044552
P 7.02259837474298 5.8703498098940345 12.330917120159594 -1.118811426868499 1.504942784954208 -0.35581830892446464
P 4.027527061220302 6.700666793683041 6.268007697396449 1.6465162096550416 -1.2712238511663654 0.8019270760050705
P 8.15487837272424 3.248502068640982 9.227628068009126 -0.7455181010877225 -0.7362109647541837 0.5155159540298347
Ni 5.96807406198684 8.697560648561092 8.77773226090841 -1.0566262115890062 -0.17968462975025828 0.3275094346774424
Ni 4.6686119071496535 6.629034554509946 8.316113632048609 -0.7724663475417922 0.09207017576438337 0.955983206553947
Ni 1.4049917099401634 5.469528916267021 9.030580405909168 0.8357072577793091 -0.3271422811460108 -1.1029410354951454
Ni 5.158385379010425 7.303951672177427 4.284392149663081 1.1520542480820288 1.251665983639096 -0.08515082293673078
Ni 4.945997508887264 2.61036279539523 10.582551546747268 -0.13092134430362615 0.8685770119241365 -0.6172858735804853
Ni 5.523905860571205 8.596426222415033 0.4044262002555202 -1.2575067586905893 -0.9260812767881922 -1.7400709403847514
Ni 0.6345729931322955 3.6695238298205064 10.438692378647922 -0.17990394484991595 0.8320154107500186 0.49175330439259823
Ni 3.854472343051962 1.2138918745745024 8.394720466982935 0.9166941791463373 0.41708306927221717 0.5613219566203559
Ni 7.494363897516001 7.6295257279754445 5.054741176265501 0.008287179709456697 0.36610863510687913 1.6606534203873724
Ni 2.604908375315504 7.894041871773669 7.705550308497239 0.3717303521690308 -0.46361438006453703 -0.16292463668310006
Ni 0.6487767862053263 8.8363835378134 1.5600487002508858 0.8540086271916582 0.7218156152644601 -0.18920619608744835
Ni 4.170707911319955 6.739330919665561 2.101771109658035 0.03477314181512721 0.5031080672837852 -0.839775771421728
Ni 0.21458543460161875 1.328063015153024 9.998344129693573 0.7493778411534449 -0.6815112592184586 2.415771506458704
Ni 0.6803510952869424 1.3168754141717807 4.132237988709949 0.19741907091554386 -0.23399661292926152 0.6915671007925638
Ni 8.262712350620696 5.195107471267795 8.452424886296573 0.9743815065554767 -0.11982857682457426 -0.8136086261080568
Ni 2.7116180178973996 1.3648501516021463 10.647218482186526 -0.3074016081839738 -0.3865792442564052 -0.22966121877870127
Ni 6.444160377497635 3.0860681377829096 4.408341290667318 -0.5484443293267394 -1.0318055530009005 -0.3842025164941126
Ni 3.003090333162888 4.6189181446515715 7.495745621989349 0.7032206258710921 -0.49138537953021816 0.3927267519150398
Ni 3.6776450617620404 5.582863774380167 4.278925649947744 -0.05853939099678951 -0.5027792231894567 -0.26422918656155786
Ni 1.997934561946074 6.156841598476843 5.886274486440259 -2.043653946153584 -1.2412424743129267 1.337285518682129
Ni 2.3039953602186665 1.406366929994336 2.5726511022204983 -0.03090697399150161 1.2211598446304388 -0.8484815267258419
Ni 9.105369146787687 8.588081981816066 3.7810225833207842 0.580893193884064 -1.2215473098768446 -0.5859641806490682
Ni 3.9459895208462044 1.688993235181633 13.075358115984685 1.3011044407758818 -0.7911680377163536 -2.1985402859132392
Ni 3.2779299193948015 8.775873855429797 12.23929494245581 0.5682030000109053 -1.006235932061912 -0.5709648790267586
Ni 7.818655653533777 8.604277985562168 10.234640386299075 0.5820669024771911 0.5894233428422623 0.3390169210964097
P 1.4013213591199047 2.4251541053967687 5.992135766921167 -0.2534356954904797 -0.7201909351768436 -0.019078356787689724
Ni 8.989859954264565 6.872123283139775 0.832276672366204 0.22210448947736589 -0.7085109277357539 -0.12895496460587466
P 2.1771313102212257 8.62958017615347 3.3007855191735094 -1.9614943446346926 1.2264426902959331 -3.0224767763098654
Ni 5.177164566371798 4.66541544972644 6.356774435082347 0.40022460295398166 0.3247907501946987 -0.4191579495233749
P 8.12823813018834 2.112811896606468 3.098229543234946 0.867142850580771 0.2859023006596173 -0.37901634430748277
P 3.9036085839064603 8.750664585112428 9.822035343532184 -0.13836545928649716 -0.028818981114221338 -0.2786739012319781
P 5.163235817309602 8.807513208703165 2.456916113431725 -0.925959149388031 0.07889687160721896 0.3555300882600845
Ni 2.8927382158429142 7.977224100996336 4.994071671010737 -0.015588084246244121 1.3544856846104998 0.8767652041618835
Ni 7.346574201829391 3.9101222951089953 13.205644419670989 0.20787857568597104 -1.025704325199169 0.8693416580043029
Ni 0.36850136394847366 5.838227271196227 4.259165224493663 -1.1877676423232384 0.5461393353426466 0.1922940909841527
Ni 2.206521992865473 7.230544655772257 0.3833082095993139 -0.22342655072289908 0.632767257045536 -1.4783120697405572
Ni 5.652284511033714 4.4158130098940775 8.902103259956293 0.36777496706570856 -0.36582324265597643 -0.8275905422094456
Ni 4.703791522859776 2.068423881749823 1.6412944709648407 0.4437310108770487 -1.0501704286613334 0.8395765109267282
Ni 0.4330279897740965 4.290863117539606 6.454924262029755 -0.13653689071819064 1.0528693156497353 0.8806190306903349
Ni 0.633350162327369 9.180290763657926 6.350708599600157 -0.27766577168243795 -0.6839700051715962 -0.9964603407323872
Ni 4.733349461997099 8.885222433791322 6.221782648724196 2.049576739395922 -0.3873631736102812 0.9400125421573038
Ni 2.9698341671231283 3.614617239954918 11.566213000198458 -1.4164189317801865 -0.2885096563754773 0.7226162567888845
Ni 6.675903540680538 6.1410265678538565 0.8529226280308428 -0.6167389999380798 -0.027895955079319697 0.6370710266272125
Ni 5.330771071206463 7.322191921950004 11.004145696814204 -0.7162437776036374 1.516569313449543 0.5143705275714818
Ni 1.5810291689016749 0.5781666700454674 8.30553372965887 -0.30483770411153954 0.32941025124458106 1.094508074236444
Ni 6.698083610067771 6.445191792538264 7.320538870276778 0.5945444661189117 0.652818005048824 -0.9840074596810151
Ni 2.2768347641487536 7.397986989395189 10.196152808837022 0.8474276315400309 1.1457954116565108 -0.36437005514921766
Ni 1.99637350134404 4.371908180461872 3.1481407391740253 -0.39003197869169604 -1.1202882685243414 0.0029305433832336625
Ni 8.587115610967189 1.6012579125363655 8.0674273861172 -0.01687903514352577 -0.7585705633963065 -2.342004242768567
Ni 6.823897660969796 0.4741582198267349 3.5651520613307053 -0.4679942542997875 0.11120561104225365 0.3718910461166111
Ni 0.2227661355184683 2.0124394167066395 1.2742705393718636 -0.7477757867736478 0.2048143349383505 0.41023493600213223
Ni 5.323281697127658 0.4821530801957233 11.133630098536488 0.3440403424529301 -0.8241889727270644 0.5822268250938231
Ni 0.373465164981846 7.783922055138521 8.81033148061148 -0.6124324021429258 0.5211199304801735 -1.302552486076318
Ni 3.3404652637500916 9.26339865666145 1.0746852245908607 0.3363260045278079 -0.9618298951427112 0.8978320521345118
Ni 7.313894141488001 3.101641575693677 6.641187597137329 1.2253216893176122 1.0020874571111775 0.5942786140520346
Ni 5.017072226416776 3.783434793632022 12.475633013184579 1.4209445875646818 0.6275751713216353 0.4979576334310973
Ni 9.198001367869097 6.282060959625712 10.468530937012513 -1.8444852395367846 0.8203294897716582 -0.14539845487387862
P 8.928541865497765 0.8912150729176408 12.848281408958577 -1.4057043735761596 -0.14314539717364377 -0.609775424136053
Ni 8.10956115512829 4.564085891005127 2.835562512887941 0.11131745402976957 1.7223755799875176 -0.5061843922162638
P 3.9957390355086453 3.5000465421984948 3.0497056469856503 0.2765828230309043 0.3303420190302311 0.4908212794966322
Ni 1.2128139993969076 2.9624562973730395 8.239941308291264 1.13782062098115 0.15560624864481587 0.21997098807413085
P 6.793187510435734 0.8460372357325857 5.600922829618578 0.3871808823961461 -0.7534386414863797 2.1320358744331025
P 3.2321852685387698 3.4096815758009917 9.399639291501225 -0.25230826675425577 -0.07394981201458876 -0.593351731362391
P 8.947636981790502 6.389290955741619 6.470795044817101 -0.42087133267005583 0.7487227240679493 0.16480308465273555
Ni 0.505820803168585 4.502340368978247 1.306180290642369 0.5288764344971407 0.19675701185151276 -1.6135317843092214
