# total energy = -340857.2969795566 ev
CRYSTAL
PRIMVEC
9.34760914263313 0.00000000000000 0.00000000000000

0.00000000000000 9.34760914263313 0.00000000000000

0.00000000000000 0.00000000000000 13.68117085104992

PRIMCOORD
 96 1
Ni 0.4579449730815975 6.026412864726681 3.406939874996456 0.3830568329254435 -0.5806677081368193 -0.30671203831611693
Ni 1.4809884306414474 5.141156902751943 10.04375815022453 1.11970128567262 0.4207003543098303 -2.33919145591012
Ni 8.225288318341793 1.9987524927062041 13.514287939671503 -1.642242264870036 -1.4917432555447987 -1.395301690185597
Ni 7.395117816156685 7.819676868962593 5.1864909368411585 -0.8023783046098761 0.20289372087686994 1.5535196654216472
Ni 8.4935553488021 4.944548642824014 9.73126571210145 -0.7227959768998585 0.8575413229352652 -1.6796394745715717
Ni -0.09024181720839797 6.6518894252058125 1.0958632011290297 -0.6538202210610934 -0.1142449120892097 0.5044021035048603
Ni 1.3531879205033475 1.8284203616546788 7.446113697012332 1.6863567386907472 0.3526856768327539 -2.137927043106557
Ni 7.303099953239815 4.325933227344982 11.683527871486135 0.2633830365111786 -0.5622244138299672 0.4641715381195877
Ni 0.6088602507350201 7.667815613279183 5.02928004453165 0.5965476125918693 1.3042800102903862 -0.439224895476579
Ni 8.987641917290219 2.0804599429049415 8.608986167961138 -3.046757760344417 0.8586692658921211 0.34346904333049233
Ni 0.5000036049800298 2.1980528640238193 4.932472466767298 1.194493648193162 -0.2443494169184953 -0.34825206654143254
Ni 8.727488611434934 6.491998573398309 11.870987626493632 -1.2187000702360367 -0.2791130456519258 0.31304697939520926
Ni 0.5298047172073028 9.012665466561701 8.653559306678408 -1.8196872066564982 3.1041545530963313 -0.630477946790727
Ni 7.12872030749477 6.284808820091478 3.313839558958316 -0.18905732921440987 0.40945152086888836 -1.2018290055123109
Ni -0.44195682266174624 1.7211565484719185 1.9217936278753838 1.1836785598555293 -0.6462529502367966 1.2466762437339884
Ni 6.067065616232723 5.849817835650541 10.0408846952204 2.0291225853066277 1.1515816793209843 0.7835385461955537
Ni 6.287267241256363 2.9905805447982976 4.897558212421422 -2.5403946764584444 -1.2315568715940468 -1.3439032811089628
Ni 6.51406827822833 5.730523649695127 7.622203955202906 -2.3488405489641098 0.7987579342484695 -0.2303235349530485
Ni 7.1363199136052335 4.959570250474096 5.501472643238795 -2.0608713384731345 1.3484178811498648 1.3816475897372722
Ni 1.5573210056698064 -0.3917246414607426 6.673128127596448 -0.4272726082107093 1.7080697048878066 -0.781343338316448
Ni 8.592453051937055 8.543265933421353 3.4672599958215846 0.23315920462963072 0.1417803985053171 -3.3721876867850122
Ni 3.5491562677219592 8.115762383782979 6.968654655399115 2.547276491179942 1.0966348907714596 0.5431496565867032
Ni 2.1262538793565615 4.539142840842636 12.24161004065502 1.9170715955449436 -0.7766063378520948 0.26604335695216114
Ni 5.304422241405546 7.569076819497091 8.595400353052222 -0.4545859513136817 0.5289743935275858 0.750601686258217
P 2.6184054927833436 6.809041427578673 3.8664496378233078 -0.12981962659901514 0.5906908967007762 -2.47314155973774
P 7.259128800541627 7.718816167939326 10.839221914983382 -0.2160675392546666 0.7786956162809557 -1.2863992733552232
P 2.2326577125120615 3.859197762767344 5.674730575904805 0.15066587392040504 -0.2469035507989167 -0.10395895678216935
P 0.2986392815969899 3.8767899628902156 11.138196775743184 -0.15675887419202036 -0.650194708493364 1.474808427462673
P 5.774952835233921 4.612932866225181 3.412754087789456 1.5342998979600866 -0.49433494907684544 -0.3337163348191027
P 7.482826431328261 4.0379053514756675 7.91751268371606 1.5879356810076717 -2.133656697865977 -1.386724490039547
P 8.762990830386405 6.135359247527995 5.744641343555686 0.25867431818159964 -0.5354129500640779 -0.628166525048731
P 5.822261084342238 8.159742884090157 6.662401746278173 0.11587833392757463 0.4322998862219716 -0.3834067600656945
Ni 0.6747936107598219 6.771828596181673 7.250377569003352 0.4412486107748272 -0.12045489755466353 2.401231403861
Ni 4.535852482477465 2.0665039626799424 3.346222480789169 -0.018963942697012504 -0.33811960609312086 0.15474467197546896
Ni 0.9231792116551266 4.328186001112044 7.372673272206086 0.03575890276716422 -0.2786852140858878 0.24673025844584603
Ni 3.1990602681460185 9.227641778158835 12.183219266325832 2.289887467468669 -0.38772364227349354 0.6250639748640073
Ni 4.424756149608001 4.689031751028741 8.982865289095326 -1.1772502877316822 -0.6452929003163725 -1.8706439002100237
Ni 4.8517736235787945 6.758125001399457 4.684719699000749 0.5865282806826544 1.2258701056219148 0.3160153179949138
Ni 4.020341194179771 5.05799122555046 6.531445483344387 1.1928805380697713 -1.3683940671614756 0.28008003755088534
Ni 1.6858319340912955 7.725060370745956 11.430016041819638 -1.8338419008903255 -0.37036586772133634 1.411437162294879
Ni 8.59122851515911 2.105857396536101 10.93582478011081 -1.237979744401255 -1.1944404263577235 1.2338760066455268
Ni 4.106750491701464 2.50655200358553 10.325508171894842 -0.21506043814639092 -0.7790170041761164 -0.3305253386856308
Ni 8.941118867337225 8.922965810674835 13.066024285222879 0.6262052875573022 -0.321372211431453 -0.1451328599173178
Ni 5.936862770583689 5.913119843744106 12.676466419526474 0.6820787016861544 0.8811561341407277 0.4047206910521223
Ni 2.8985626818814265 7.41043854729451 1.5825558109045061 -1.1619175140293538 0.7167911654666751 1.5652948036797043
Ni 7.767741553403254 1.297952898969846 3.9882115925526 0.18403416496820565 0.30102013013766227 1.1559021610732092
Ni 3.848896697658202 3.847859113060094 2.0273440243299174 1.7247006285762685 -0.6049960004695386 -2.418017365070087
Ni 5.041745081122431 2.8270908635288876 7.326855031971087 -0.9517367725727673 0.38724618841644276 -0.02411694765286169
Ni 1.5831391017056047 2.931466265533132 0.5071405044453926 3.3663345704383443 -2.1103316499867915 2.667258048642613
Ni 9.367425923024628 3.8269204689181002 13.369267264248409 -2.5893723919087277 4.056967589452413 -2.5872149792460926
Ni 3.295471507289111 6.4941485234664595 10.447707594724958 0.4878213163280437 -1.6754951133858953 -0.7237801951899987
Ni 4.228549836866725 1.8036024597810205 -0.01685467377340609 -0.39430335237354025 -0.6747847391279024 0.44566345201307117
Ni 7.089114488195827 9.716746071054239 11.911373971143401 -1.3295413559603362 -0.8441792998060622 -0.08707709342516616
Ni 6.00067889717181 3.108061294609272 0.40852229481929775 0.029761290422832612 1.2174749395796838 0.9931760135541604
Ni 2.490427378074396 8.209201083266628 9.173758420885571 0.1756305142855427 -0.8171408076310314 -1.3362267384003117
Ni 2.567049728981506 1.3604603602990937 1.9185378556634836 -0.34862744760298026 0.050941781155189686 1.116283775350639
P 7.356044810570285 5.738964540614868 0.5694011888972524 -0.33138383003118416 -0.2605769345209512 -0.19481197230999997
P 0.6151072578243483 3.96944346321854 2.4764835497410873 0.6409639339237154 -0.13300856584995802 -0.49237319736478435
P 0.8651931887952908 0.5587103284931458 11.446173383962243 -1.2793914745788222 -3.329252320874066 3.05323745453149
P 5.491215511891916 7.994664109292115 2.8555889190626815 0.9141017358288127 -0.38952752825145176 1.54638742525224
P 5.178696900463661 8.613513214995946 13.332656418870492 -0.5016674781825167 -0.1928103684989389 -2.0912952021806306
P 2.8372797573301263 6.136462265389046 8.087282088706269 0.10848204146350349 0.016836354831048422 1.2553385473946765
P 0.35570082592752067 8.702465062163453 1.4350449324459558 -1.2733619805552907 0.5169943383475741 0.8640050762827378
P 2.60414104146161 3.1116133860262174 8.70331756410352 1.2143055407127668 0.7492742256960451 -0.1418899274999879
Ni 6.681867207243034 1.2894465747871608 7.403729768320979 0.4730480146736111 -1.7797605456648897 -0.34431905003561347
Ni 8.034840132739566 2.7086286147737577 6.166431634578174 0.9012449344708028 0.9545721851390333 1.8064077159387728
Ni 4.5528464356248515 4.701426680552083 11.219093788242317 -0.871989380039795 -1.327513784007346 2.426156192127138
Ni 7.926669601484585 3.8851654205470134 1.580011391736894 -0.4230200035819424 0.6789311571961082 0.29715807607909467
Ni 2.1545864822111973 5.184006342371095 1.214617095284709 -0.7914012367730822 0.5417031539481639 -0.44448331566204097
Ni 2.4683950636803424 1.9786644809824787 12.29595236552979 -0.6682507946641265 0.8571019214050012 0.17566599550916842
Ni 6.807667329056854 8.587620338088211 1.0866894576643185 0.9507453551937756 0.14633227954205766 0.4502544138178633
Ni 1.9370302305322813 9.250636896279062 0.2611226529077517 0.08482069329082166 0.704895956690986 0.25783588144070435
Ni 8.32533577738276 4.076473586176501 3.9328167269053362 1.0022599781332997 -1.245255452127062 -0.8832731804837305
Ni 3.782351069244427 6.719855890186366 13.144663850150454 -1.2380013416678097 1.2816625300011864 -0.8938992927390088
Ni 4.458257980235191 9.27794126214458 1.5349456340257477 -0.17307792306701808 1.0114876673791546 0.30329015711876156
Ni 3.4769085978230874 1.0120749731686822 8.255834435005726 0.5577460663436393 0.22069218251087155 -0.4797277406866318
Ni 6.835467118198948 3.062014972714868 9.57709279271433 -1.7818567660722862 -0.9881572201833303 0.8086345699322333
Ni 7.872004784099594 7.382451805972577 8.198496201449032 -0.7819871425480339 1.24317620100053 -0.5251563053330762
Ni 0.14836524992041566 7.2159148041717875 9.683915398752669 -0.06623161743472464 -1.7977325567622782 1.5962334022400897
Ni 1.481063211513383 1.9649982766362308 10.266993074366061 1.2661238109356387 2.5280780638746205 -3.581108844802884
Ni 3.8785005753357447 4.6989495641692125 4.091230656492111 -1.7778512444573191 0.6971695345810058 1.9733808116596334
Ni 5.579793454699744 0.3374243808264372 4.6916705810471715 0.594145688018596 -1.0069494131891692 0.4376575509894592
Ni 7.487696535613074 0.31134735602156177 9.374570300577187 0.05898316340242745 -0.7411695943110397 0.5843073617719357
Ni 2.5081597923321475 6.57101391220736 5.874708648874337 -0.7620862898590488 -1.6364865933331816 -0.6956096462930537
Ni 2.3333875470094405 3.1148476587374363 3.5743293787373123 -1.6381662950284497 -0.8461659912187879 0.5963416672286505
Ni 4.919637264860436 6.2250775986328435 1.669294144262717 0.9834595575973449 -0.9162385796661576 0.13936587552655352
Ni 3.183636713309282 -0.012561316963398093 4.094145240975805 -0.8292764145523008 -0.6479987292833098 -0.25276952266139047
Ni 4.814271016303044 7.961162278664924 10.983120877327439 3.574417805935954 -0.6443076535849679 1.8381865510122666
P 6.371750931325713 2.4381648962003384 12.133638613471568 -0.1345550844014715 -0.8224341948194868 -1.070128616950815
P 3.907898805615464 0.8589592683585515 5.9998778070812 -0.15243762110884715 0.49599716727061677 0.8205608890561739
P 4.225857725477041 4.666242280306339 13.621383495892406 -0.08528169208764022 -0.9533748223968227 -0.1990401514587346
P 3.749849432779376 0.13208919314361198 10.214115519820334 0.5065399757834695 2.6924368619010854 -1.324004999523139
P 0.9947538537065771 0.5388812455384976 3.485538310444466 0.8211990368608051 0.7450365334656136 0.3059255378590796
P 1.0321442896744237 6.088920326055929 13.063739729585244 1.4333532456416798 0.9202492434874474 0.5827960673337317
P 6.363235259534036 1.4264451321733511 2.3634363708750006 0.23657131563497322 0.0038134602088192382 -0.984183323137247
P 8.638003950554884 0.5030322302934254 6.196106554084056 0.30323693528332296 0.24658833355134308 0.1609564572131357
