# total energy = -381164.62921918597 ev
CRYSTAL
PRIMVEC
9.28752127614264 0.00000000000000 0.00000000000000
0.00000000000000 9.28752127614264 0.00000000000000
0.00000000000000 0.00000000000000 13.59322618468089
PRIMCOORD
 96 1
Ni 1.418576026140167 7.157521279986782 2.3341742544247968 0.9026783244832195 -0.10028562169564019 -0.4255093456626995
Ni 8.617863290083688 8.626054884001821 2.562458745387986 -0.4019256448054884 -0.7514079842095963 -0.08385832937755235
Ni 4.418036803265503 3.6090193848746575 12.090495422477868 0.22008900170923384 -1.5712183682529908 0.8535224315838592
Ni 6.667130859951252 0.38165026140482294 3.573659004461384 1.3956202498672803 0.41822283930361526 -0.5143278472590045
Ni 6.153224435606522 5.060343211644458 11.838572331922352 0.7157881781234576 1.1731414077696312 0.5944598768249052
Ni -0.06288859398849622 5.393059380038103 13.076752185195335 1.746102491290812 -1.6567183469990243 0.9713658596576046
Ni 7.784438265324529 8.730121561839328 9.447999603497712 0.03181714451059682 -0.37291203118195776 1.0495230248853216
Ni 6.241093676036745 5.127612729500509 2.537148391934816 0.5671244222347459 -1.7162915785769668 0.6536842097038613
Ni 1.4264704193719278 6.983073764607767 4.670088990369162 1.1299679577059507 0.4514972850860288 -1.2831851372932999
Ni 8.198420246398065 6.679158200227875 11.645615715047365 -1.645577499890856 1.6458148127126428 -0.4550556918612485
Ni 5.872286199291779 8.385953879498905 5.205824805127925 0.1918364346214438 -2.1788962864300667 0.10198460666461791
Ni 8.9381341797355 2.2464192505083993 3.194149516750586 0.04510049188306426 -1.0011770294817661 -0.16090452092927773
Ni 4.186554618667379 2.6122361453467446 7.945825668041777 1.443528643512785 2.1162986662035035 -3.987111487891224
Ni 2.606867957949148 5.859135068919811 6.822549172633144 -0.740744333848163 -2.5971083271004045 -0.5684246291034082
Ni 6.0524269653191105 2.5219428618182995 3.6821056774142993 2.44700295366916 -0.6282912235520535 -0.5748431310352423
Ni 3.6277430281161047 7.13094968112082 8.55974941087219 0.1510335416724689 0.18928204363070628 -0.23355541162678484
Ni 7.088180644847576 5.169490163714639 6.878213003686362 0.1302590281292789 2.4240422311079284 -1.6190162044625602
Ni 5.562835272128206 5.667134138001939 4.682811966002324 -0.44304684032583047 1.1435336122055275 0.8703744701441914
Ni 6.070277581544341 7.910711406946905 11.408319542022085 0.12908531953615188 0.6834588698631326 0.15840129489144977
Ni 8.310520630289068 1.7526946102726306 9.06916996235699 0.17322910393290167 0.7494832563830576 -0.3646117388463785
Ni 1.7973304383571511 8.498797265105837 9.727856772315775 1.4394832697988178 0.1301736675043242 -2.04632995032385
Ni 0.31214059337524175 5.51323990758985 5.863329313606238 -0.9257359776336315 -0.5148919472925907 0.3718303680820048
Ni 2.183979243805896 8.94825757811505 5.666159877001926 1.592887111475676 1.1116902424426856 -1.26350308548334
Ni 4.183740499668292 7.147955132894179 6.0300366086095485 0.0785500297907615 0.62972795599858 0.5208898167472383
P 1.9386865148129149 6.710633610418978 13.451843598952784 1.3212986563355695 -0.1845329589814951 0.7998326553698871
Ni 9.32857229393549 7.497723190668426 0.40630027208295977 -1.2550264154708966 1.5914043562825624 -0.11534277313907877
P 7.886907489472784 8.633113400303161 12.527843878765271 -0.15622819849953093 0.9379021806825202 0.21437575337454048
Ni 7.8989719798352045 7.608588334206695 5.917906504649908 0.8654857745933223 -0.8874666497397877 0.2431263431446716
P 4.9930551187455094 4.722193843203073 0.32829159317527934 -0.286291565678236 0.12136995316976516 0.5065826560959469
P 1.2027990403125222 1.735113332169427 9.338940882881298 1.366696881964711 -2.332421741286454 -1.6589135548781302
P 1.1133230586716003 2.026797230800814 1.3911991991645654 0.507530621831513 -0.4409318508653568 -0.7316842805284237
Ni 2.6757070669301015 4.923556595741666 12.234406496084286 -1.587188518429002 1.1377619998290727 -0.32053171780802864
Ni 5.859079343791117 1.8349820503119256 10.491618884941444 0.29566400803207143 -0.4388274029278442 -0.27093565204745595
Ni 3.6668434934169434 2.0032905140130652 9.795360335712346 -2.1733673861920373 -0.9175837808401422 4.0111029657098145
Ni 3.6637228862100355 8.099935368951487 3.888805039777564 0.09194522015074487 -0.10170101398592807 0.5901471083821643
Ni 4.6401943163287 6.824675086292849 13.164373448802866 -0.34208141895434635 -1.2476740888708837 1.023068944458851
Ni 8.587753145545609 6.540328329606275 8.112179108477875 0.37583280437317856 -0.04271245126686192 1.1395430029888955
Ni 1.4170157225367133 3.14860908407692 7.416124884720657 -0.07481833066247115 -0.5430285576278068 -0.6938666954600179
Ni 4.305267717830162 3.606130965703978 3.4867305899539587 -2.0388071595842434 2.5582797842689815 -0.6407302206463545
Ni 2.0568795127745476 0.9142403926487671 11.516847945163752 -0.7696597313309325 1.5459436528466022 -1.3356824358610673
Ni 4.830672093728914 5.225883993953757 7.610983585988426 -0.03797313680966363 -0.8433025536280638 -0.041223268315845135
Ni 4.73320884364174 8.95103454702834 9.56532236069956 -0.22639566065355204 -0.1196311161017875 0.8747042078677968
Ni 0.8684854182296265 0.8012028978435468 7.077108990528067 -1.4476565496382294 0.8656148439720189 0.29671173257029543
Ni 6.150865405158443 0.899867953206238 8.16921656395342 0.6799719397557967 0.40958676089517204 -0.980228452254557
Ni 8.828922215015176 5.8753603688914415 2.3457557936718625 -1.6334874014955414 1.3722602349851012 -1.1437313300386303
Ni 8.981386167124098 4.282476140193997 8.658749745759195 -0.8027832533577788 -1.4794801219067295 -2.3339985988552705
Ni 3.2330047914851674 2.584252843220515 0.8452944771711481 -3.706534713209578 -0.37843398944145146 -1.695717353970041
Ni 6.413377198918112 7.326582032925302 8.055223383191082 -2.130191365025196 0.3667778932597619 -0.9897844713741082
Ni 2.2679570127489326 4.5372328535436415 9.036383154137269 0.38599123296341914 0.5927310670592565 0.8547321356212442
Ni 0.9843286732646291 3.073036522045346 12.902500636518898 0.13209608133801765 -0.5299298154623195 1.2491661000353778
Ni 7.805660251835792 3.4919966146156156 12.670300526512756 1.5327873179703022 1.1221960270700158 -0.4356487480895465
Ni 0.9121664891091763 2.2027771872189357 4.966693417864297 0.979356848282881 -0.1158413100420521 2.482229123861306
Ni 5.290422980503764 3.4333087665785613 5.554845217425519 0.5455330692172153 0.9235448835195837 2.723252047509729
Ni 0.31016606631515664 8.878499004510633 11.25428042627539 -2.3852566256992986 1.060830993698973 0.9560384852719147
Ni 2.2921045685166717 4.632550686176066 1.0748708623679109 -0.5527802376979318 1.474834395604602 0.3458830520886237
Ni 5.12419492160723 1.0855998071459465 5.5356376943165735 0.3804458776651577 1.2101544946588707 2.0870654803699993
P 2.7022229406673683 5.154583691788783 4.243764822041876 0.1266476566289367 0.2627042652765992 -0.0949508397462881
Ni 2.870624279583 0.625076198586529 8.093747093409931 0.18430695901361807 -0.3770029134218798 -0.39422236262395977
P 1.5372334001742562 6.537755686164866 8.699474598561487 -0.6808587132361242 -0.5344721834173634 1.678026364448181
Ni 2.9414230555897203 3.380286306625476 5.5921578348473995 0.2829175069996805 0.24027858928323134 -0.03616205174285385
P 8.724725511877383 3.7323576697191085 6.381747615870954 -0.003958213316799635 -1.910227061819284 0.973652341698936
P 7.558426430859943 6.63553471198131 3.8297419758739646 -0.3161320460784362 0.14699151039261138 1.0100609622349572
P 3.941949166261633 1.499247437447313 12.066775092696787 1.4682348880102134 0.1643171461552525 -0.6563491581305341
Ni 6.683411885051577 3.355906562821509 7.884723993180093 -0.8868210457359889 -2.5060341967007034 -0.35176316501848454
Ni 0.7917147659311152 3.177344675440529 10.626028824105402 0.3941822534146437 -0.9365986313797482 1.0911594694791853
Ni 4.075624462478966 5.984646633783359 2.5195318212501054 -1.1022170128449276 -1.1176325760690493 0.4652156631133859
Ni 6.909730207723984 3.885945411923377 10.008094729513255 1.338578783572256 0.5857140123114751 0.9134286210211882
Ni 8.491107197345958 1.005903585590959 0.2986374659403511 0.07623526561465581 0.46779807912858146 0.6512678869528848
Ni 0.014101243816214585 5.109149136859638 10.56677629476424 0.1856776141088996 2.510725431528786 1.3719077367416888
Ni 6.206451221031489 2.097902495015356 12.819214787923821 -0.9567175136168105 -1.9334096705833348 0.34329857919089907
Ni 9.025780519650942 3.803175020768727 1.4172571980943907 -0.6309682561635842 -0.6732618747254727 -1.337629018064477
Ni 2.0501367722024786 0.09402686715099548 0.1012033349747385 -1.4666032659440613 -0.08970553218694874 0.7430043335269333
Ni 4.324808662959133 0.5305255152258025 0.2781269035720917 0.8481130876428296 -0.6702994496630391 -0.18821812114256614
Ni 1.025927481835284 7.511738060535165 6.937452530497494 -0.9889599185902838 2.054439981025494 -0.03872929824939782
Ni 3.589246251709459 1.2196558917426936 4.000119699353971 -0.31095847229729673 -0.2601429323073262 -0.6705048808056259
Ni 4.5005935814268225 6.277417172424293 10.645861397407876 -0.44428405516704134 1.1931864993459644 -0.4213207615026485
Ni 8.971485669259327 0.17131762065065811 4.820701939453273 0.8116743851998214 -1.0748247368749035 -0.06906291623593268
Ni 7.7725688129125405 1.9699575995321366 5.471803630644555 -1.0325676279779055 0.14710592448328857 1.0896504890338266
Ni 5.976501477472471 7.565076296217519 2.7168377844197202 -0.4335944366636791 0.12294372541478828 -0.47492671975356265
Ni 6.813325735082013 5.872230474163085 0.5806019733752235 1.156851669470672 1.1038265234238926 -1.9761396053516935
Ni 3.4516609089620425 8.042882124689479 1.644861842487503 0.3484096751652193 0.46873678889276693 -1.7123829875511798
Ni 2.256003972643902 2.8344586710600863 3.161553102720573 -1.198945513316929 -0.10654342967989393 -1.3637036036643415
Ni 4.509342426631903 4.1997150365607965 9.908306812807364 0.5752061708016158 -0.6920895489549371 -1.4227099069952207
Ni 1.4839323145776973 0.3362435690400248 2.7668464436625624 0.49762004758602046 -0.029391822898555835 0.44297382099605004
Ni 5.209825869368212 2.671184043984375 1.268539832138046 3.515773513930184 0.7094761198625007 1.6175136517751048
Ni 6.238409582337947 8.483008478642317 0.24915726666796434 0.5275438317286463 -0.31612973208559103 0.9721621303066547
Ni 1.322450179141668 7.044315681043333 11.39261898701233 1.560617709919009 -3.1069542273286554 0.5974876079076356
Ni 7.482686693442284 4.267216742453075 4.675730230897362 0.9522857030977019 0.41095690176982125 -1.1345987716097428
P 7.324223002477223 2.257239212996636 1.9660429092413283 -0.9186916691923404 0.03755970342132886 -2.171858148636363
Ni 3.5955246162090715 8.266627803920477 11.771407763058678 -0.6374654338521537 1.11156708660126 -0.1880602554084632
P 4.898452425264668 0.4324901538173624 2.357650322391764 -0.7063329462478287 -0.7275566315132953 0.3598883652287802
Ni 0.675920734759793 4.484201106069108 3.564796851494624 0.8060403268424957 -0.02594525911085209 1.3663708660838598
P 8.223125053452751 0.047260481646044614 7.419740516820804 -1.0904431601384512 -0.5048967837530918 -0.5599075927713326
P 4.596134314574026 8.926924141346399 7.2711253136003995 0.37986352279912644 -0.36699875102131635 -0.6811165948832011
P 6.794927155091285 6.428395121101357 9.939543533697224 -0.07624992090267513 -0.8598897685627835 0.32529957151031713
Ni 8.10717034816036 1.3509442949476 11.390023124767298 -0.38227418912314814 0.6168156188122862 0.3566060949330826
