# total energy = -340872.540633938 ev
CRYSTAL
PRIMVEC
9.22785813901242 0.00000000000000 0.00000000000000

0.00000000000000 9.22785813901242 0.00000000000000

0.00000000000000 0.00000000000000 13.50590315263943

PRIMCOORD
 96 1
Ni 8.308652884800978 3.4596809526681036 10.298467044844312 -0.7491536409577808 0.6073529307374895 -0.27523607919502274
Ni 6.498663845146515 7.02058228309933 12.763713383836038 -0.6445729914312125 -1.1370870852492352 -0.895085085516994
Ni 1.691226503250837 3.2106856519859703 9.663690054232319 -1.3023437124996218 -0.014574812490381351 0.12609564078020863
Ni 5.769949102546827 8.30820994760227 8.93728873571005 -0.6254923206506776 0.0884354072252735 0.49649133329821593
Ni 0.5531750396083205 6.131062881651964 11.14237037432555 1.7253009811644284 1.8032079780545525 -0.8782217341027521
Ni 6.427637019762 4.6405607522823775 0.8984907252928669 1.3260672813688066 -0.36883863244353254 -1.3583924758640735
Ni 7.265378908252042 0.015605231181987029 7.593099836503737 0.024052155853197286 1.042917603753662 -0.05579113882769101
Ni 3.8570417592008597 8.263971594881292 12.283037935797937 0.0057037352529966286 -1.5853188122101147 -0.32496995608504037
Ni 0.24536506122438784 6.3815992346712695 5.931914625969451 -0.26911813922274297 -0.7287858759347061 0.6172128542507048
Ni 2.6725077276972438 8.729830793622606 2.8390890258447397 -0.3829910126845146 -0.11493113952295692 0.2460257761796537
Ni 4.457240119167036 6.996073091437478 4.076325201707982 0.34307952120155755 0.015097517763070771 0.33159054672535154
Ni 6.679391450077753 6.364767621120359 7.742097450648349 -1.6996691395289372 2.29521170789506 -1.0689829333821461
Ni 4.28354414226529 4.455597560388493 4.8002820605648795 1.7545742762072492 1.1596927384638929 -0.8623186897192503
Ni 2.8403440145744123 5.700952405989723 6.336983462545559 -0.7085145272801798 -1.046830822765139 -1.5941258689787838
Ni 1.0919509291153031 1.4371558805001723 2.1836480921271795 1.0532331267470572 -0.6385692084392938 0.5996326792750963
Ni 1.690303717420195 5.062670674792952 4.217123863747339 0.08459932130863494 0.11825634724144793 0.09907308944477776
Ni 6.867593620237191 7.204225891255396 4.725175599023096 0.3882026387924411 0.0222572687363036 0.1980495054106912
Ni 2.7508522447187502 3.066426543081705 5.584434084726218 -0.8143964121166748 -0.746950719769191 -0.43053842344617466
Ni 1.4604746784404958 6.170493520195297 0.27394927511435474 -0.3211858064522598 0.19112989547272244 -1.6125136274573522
Ni 3.410884037943754 4.6156547627133495 9.650778434889977 0.8811826165032888 -0.04785671447196274 -0.12753237322673522
Ni 2.209241557140036 0.9107462439096234 9.902582695640582 0.6979375230952819 -0.6570798656489716 -0.848947410618667
Ni 4.946741090889397 1.1006620273565635 12.455562897480599 -0.19328987923851873 -0.4832547800032838 0.12282725444158202
Ni 3.8988162737540235 6.992668011722408 7.7066034164585355 0.7775810430605383 1.4467584633039923 1.588320575150916
Ni 8.597318748342412 8.61235092952357 5.777825079611356 -0.2741436174617924 -0.3856161090121875 0.15344755043060027
P 5.74823595195182 8.05487755351612 11.083389595174236 0.12219527728453794 1.111349057053183 -0.7934774025758206
P 5.954515496533535 7.511024496368945 2.541175925494442 0.5796068709724728 -0.4814804617116805 -0.147082784554837
P 0.8473074864104773 4.092029170973847 11.539308544947874 0.0682375921211599 -0.9975083223809273 -0.049410432112327804
P 8.24595881546716 1.327012163754742 9.36241339952933 0.5131014310510712 -0.05374068405656551 0.3591895393895427
P 5.201291562271995 6.16092423113154 6.059382723899354 0.3128983696324869 -0.6301588728884115 -0.357770547554829
P 9.102765459218267 4.0092645098235655 5.956940577696462 0.5168894373385937 -0.6217950743047486 2.8215900585606954
P 2.844136664338351 7.901473637030192 0.6418990516528884 0.3811935544644596 0.6767925135865505 0.11629742374286424
P 8.59603607603782 7.459662237035411 12.69296985370153 2.1461057222626074 -1.0336019827796907 -0.9146164706817023
Ni 2.7447249468032875 2.9228687514087275 12.114160746503805 -1.637207016438974 -0.41950916221520657 -1.244363536440412
Ni 7.782360442010921 2.794306229483683 3.0423935089084644 0.9470167413892787 -0.9607330625341067 -1.1403631848973457
Ni 6.899475870685872 5.704597410020759 2.931578004078327 -0.06759764454431584 -1.1467323216484833 -0.4802149647356955
Ni 5.514097503143023 8.611557333709218 0.7485472556718468 -0.46988915732965525 0.13460676357501333 -0.3160842235596363
Ni 0.8072124420690819 8.341393326072158 1.4228471634102375 -0.12345023273756159 -0.2566508599936677 -1.2454709105719777
Ni 7.822150967028205 1.9885480978836925 5.846422209903791 3.454808029990405 1.0972355004699361 1.4652773480437862
Ni 4.752697686421994 6.414588828116722 9.881688978863187 1.2961614949483096 0.19034108102283995 0.677559473659562
Ni 5.656750964701971 3.2764987374273584 10.321022698902695 -0.5712978368861451 -0.3632446832955228 2.085529503341447
Ni 2.202459081284817 1.886700225755734 7.668112173890796 1.3158818561953727 -1.0604412144597222 0.12851196353118513
Ni 8.334158685159924 5.12631521353233 12.586583720858474 -1.0908221407444245 -1.0642181650036509 1.4086626848735353
Ni 7.816651163477578 7.178969243070724 1.200061748675829 0.27229679406104074 -0.8664543091541788 0.4631875769397636
Ni 8.767277442630059 8.322900698026091 10.37997579447909 -0.6721606712414939 1.1560345728860153 -0.5673362811352359
Ni 3.813652369444072 1.1873116168538482 1.2684355647972487 -2.4648029579650585 -0.9198656348957835 -0.8800490171194779
Ni 6.36708381355527 1.0108565103184832 10.545409147053267 0.7713864842140521 -1.0546834860403385 -0.3154162509583342
Ni 1.5364937751687846 7.692065848482601 9.167456437089594 1.2072087817669854 0.2584282636090646 0.11562405182492344
Ni 1.5595818766514478 8.821241958006002 11.662941544965628 -0.31998921504099725 -0.7080149619359419 1.2350831395797501
Ni 8.107753181611907 0.2613486345969381 12.515866951513054 -0.3624869791938919 0.37494834488569617 -0.38850782873768575
Ni 4.590721089569402 4.9769161875513905 2.378011703277814 0.1371678394339702 -2.3107303723559496 1.8395767464915738
Ni 2.764786310761445 3.414519814116484 2.850583246151216 0.3064811532522335 -0.6730870397105053 -0.34516082921061847
Ni 6.593470861386675 0.9463630086149131 4.328628689592967 0.9483256900086895 0.002151756235680165 0.6778528365302648
Ni 6.827673905203617 2.747262607837553 8.22366338701302 -0.12356130439412913 -0.31809302645954896 -0.24916560736021606
Ni 0.44354070064140455 1.8554177860969698 11.332506703586015 -0.09174287433195168 -1.0995070701129321 0.8976867848058991
Ni 8.204387313796738 4.936193648845158 8.20755062362418 0.9165728230771247 -1.6020800908288537 -0.01312213920425482
Ni 6.653571902536389 4.0992730397443875 6.039758760424921 1.192793891893236 1.2269342852203708 -1.3397697185565636
P 4.042697040467726 1.798943293261679 10.59837982208961 0.028150751402603133 -0.039842843028550734 -0.2118049073235707
P 2.6833227776323683 3.9255770628426414 7.626270295971995 -0.3090142040867323 0.5871263192779695 0.6910924751489904
P 6.754238608801127 1.051865112632214 0.5672115348782161 -0.3278094824163645 0.7073436469005302 0.38239014587572207
P 1.666735767305598 1.4942025005504616 0.03291023386401663 -0.07479313385149054 -0.9804361973899888 -0.6091552740535509
P 6.103499268890688 4.718213179930903 12.119360644659471 -0.35229795447603196 0.5828156077177575 0.10205608333250166
P 3.129803473930198 9.04728757508007 7.945455455290252 0.19115046429801272 0.3327282598742205 0.6766297627564412
P 8.792377217223521 7.339044901112193 8.175191292901056 -0.244336818513005 -0.6444305523160773 -0.21694248566045216
P 8.850678826003483 0.7830557545945354 4.25111837096236 0.21981132256781497 0.319384748687779 -2.1204713095239547
Ni 3.831655920999898 5.219451987419029 12.263049471920402 0.6714708442633209 0.5113088579270226 -1.322753129393909
Ni 0.0011765519340685626 2.678284366997063 7.85843675146071 0.13133683457448994 0.8892134572275654 -0.44023173947453853
Ni 1.3436499922812175 1.1401757166246544 5.6595949906320095 -0.29530148248633015 -0.5202056461960202 -1.4568742115817555
Ni 0.3665462192901272 5.826792709714374 2.2415750498599007 -0.27127220945126834 0.04643823685788131 1.0633391048328074
Ni 0.7178609356596773 2.838886012961998 4.007309126648435 -0.042257880227946576 0.2628122516093732 1.3878706878288485
Ni 2.7891663124070067 6.495978538379347 2.3441657645815264 -0.7216410373598088 -1.1684414311908005 -0.13971426000490778
Ni 4.79116862770146 3.5828544053421996 7.095677671211146 -1.490054812098782 -0.667095855124077 1.185623342286726
Ni 8.438581129755374 4.79413077021782 4.281722563035603 -0.32187100544474245 1.2418430840114032 -1.570712889371482
Ni 0.39156571151632397 0.33144160072084383 7.601730652377731 0.3733792006263634 -0.5257486875014364 2.5967530006435147
Ni 1.961759625220155 8.052828968972095 6.400420374473045 -0.061780780752222625 0.3201401387965647 0.16311772653051262
Ni 7.4467709189813425 6.284023860939184 10.467399601288284 -1.4827803899245557 -0.4153920547230394 -0.527125513244305
Ni 0.08183264746133342 7.788358549910095 3.6417585932695706 0.3966070608060524 -0.440680396976183 0.4777032540574354
Ni 1.2537891080932986 3.5571363642422065 0.6755973446162733 -0.1655121949046182 0.4904713523563811 -0.24455227695792078
Ni 8.695373970706433 2.012189870864741 0.6106812070022692 -0.19783430407609154 0.3737640947696079 -0.1517385381592935
Ni 4.692199847365104 6.368744828050427 0.7225459193218469 -0.3040293492776312 1.587760588882388 -1.0398667327424802
Ni 4.807557304053661 1.2915402764248634 8.448321134197801 -0.8500367870281038 -0.3866602340059857 -0.23294580306724397
Ni 5.5184161408304275 2.405010571110738 1.90592646853716 1.4141357921729645 0.560666582424544 0.8966817405801526
Ni 4.017901785198375 0.5945103081060986 5.396242987996748 -1.3559874659670066 1.644225870958968 -0.20903865743234323
Ni 7.882519616068805 0.03798740150420897 2.210902571635191 -0.41642101020818606 1.2056730618487494 0.8256208200775845
Ni 5.360176826591935 8.353518731886794 6.239943304595245 1.2910550269596799 -0.6437173282991365 1.3190893073890766
Ni 6.6989821932622835 2.716552295393787 12.746993427370636 1.4309685474595872 0.3408840562121355 -1.144250435766894
Ni 5.180787261115128 0.16546934122157197 3.064003307490439 -2.415686145833749 -0.7393399973014686 -1.315970302144121
Ni 4.484010136113961 3.169012643874177 13.457241379927515 0.4546743972624299 1.3287918793888212 1.145162406058202
Ni 1.2187417022455151 5.434424174525391 8.29347582624441 0.8412598121664222 0.2639147406449326 0.09895944668504893
P 5.981479298504895 3.4519387795490175 3.744566162661397 -1.2718054347014485 1.6494835198134816 0.9610325960523963
P 5.8269403554472765 1.6791841481609586 6.215268011483878 -1.5290877576315278 -0.13613142774965586 1.8642192276306022
P 5.979273840369659 4.713220908587129 8.959707817465496 0.39391203047239254 1.2625641186088385 -1.4776903769961585
P 8.577441941550383 4.210394909470298 1.455071767402087 -1.5898717216881202 -0.4519004340617184 -0.0987568437559396
P 2.8366620991101508 6.585405713226864 10.844876218742366 -1.5736007524422382 0.7912662538571147 -0.1792367435795623
P 3.29551735339689 1.3568273739427854 3.4994068826772424 -0.3172828718534278 2.0060690459212744 0.2403274402432958
P 3.029745806313685 4.676669361835399 0.6660520479841124 1.1698593945842497 0.22758093921090483 1.3257471790252264
P 2.3352571901725088 7.159987538534418 4.501950015447472 -1.513370089785955 -0.19536218838651517 -0.44394107000532573
