# total energy = -381168.02603841125 ev
CRYSTAL
PRIMVEC
9.25071164976564 0.00000000000000 0.00000000000000

0.00000000000000 9.25071164976564 0.00000000000000

0.00000000000000 0.00000000000000 13.53935157569393

PRIMCOORD
 96 1
Ni 1.2377821819223127 2.2608276011995425 12.661215511390429 0.23749665566272 0.2792516281123191 0.36277622829953654
Ni 7.971374976018539 2.8482570228479895 12.911856134940095 0.8346019405302723 0.18044593339631504 -1.2461280845400022
Ni 2.6613371492424003 5.663322493360194 4.224805425497215 1.4903283774751428 -1.1311825468393422 -0.8318626872222382
Ni 0.5749206097564604 0.1726996801132348 3.530047400585046 0.44557500606432293 -0.7779916482353957 -0.8694954099733477
Ni 0.5322443030700967 3.7973152527212055 1.4275216723483999 -0.013985515645814623 -1.3096261050936477 0.5895521551106427
Ni 5.430519091442038 0.5339852869467954 7.544450946777354 0.1948695650208128 0.44709658491517196 1.448630997736357
Ni 4.217214291760664 3.403882498863653 7.075881140094568 0.3468739552469832 -1.3886258208273181 0.354833319303376
Ni 4.9689270963330765 8.992412990932094 1.7214334233244495 0.9940684434614427 -1.1045207212774397 0.2738731374092251
Ni 4.870897308121732 2.6552224290378423 9.242326508569388 0.9909206418610805 -0.09082781871685003 0.22810441581454266
Ni -0.015125838133846324 1.7961643699212717 5.070960592418148 0.9353655303035955 0.7542876197502365 -0.2521833111406173
Ni 2.1211048569186945 0.16452575156142354 13.665131384660087 0.16454263190249727 1.561627382130446 -1.2110685218327077
Ni 7.561392699549861 1.2970052360063957 9.433055825110282 0.8528148639938732 0.22240376588533955 -0.30674597687784594
Ni 3.081458205354339 0.8464419389728858 4.6003732055891975 -1.3728091655100358 0.2182475776251209 -0.8489654083407959
Ni 5.92719903471422 7.096960736055423 11.224907513398627 -2.1769443049100183 1.0492911113801737 1.461293937916006
Ni 3.6236146456395395 3.3542339310302776 4.819129402317306 0.6065119228934328 0.21085976980148202 -1.2810344094988841
Ni 5.591527722546922 4.7405362837304645 3.247724940792461 -0.5830668044966152 -0.26311769866493395 0.7756303470920707
Ni 2.1629735765039118 5.706107033369392 7.864088000955906 -2.76671371823779 -0.7014203394375598 -0.43018798208529135
Ni 6.145441816962219 7.95044061622593 6.409799395306617 0.5268306077117055 -0.8944075998339951 0.6867293130842883
Ni 5.977569158033157 4.126631326188758 5.663104176572256 -1.8249607963506118 0.9440175495516389 0.5165161131595749
Ni 7.244333818625484 7.927554356337767 8.77627474551698 -0.9884210153676783 0.18039913931877963 -0.38709629310213983
Ni 8.199987805693631 8.572939484614889 1.6808829301070833 -2.388686220206138 0.5354512595011811 0.6175118735483623
Ni 4.827751990369754 4.306650169124756 11.515340071834686 -1.681579629017078 -0.6334671113260381 0.259746725310172
Ni 1.7051651223384656 7.870403461596832 11.86764786329983 -0.25255843509184894 0.6810096369916917 -0.8005759612938148
Ni 5.5614814120712746 9.249018473162394 9.761519908062192 0.26720626691201077 -0.814286883122004 1.8441024022760693
P 7.8990344132354195 1.391168226872044 3.3339970748737104 1.619609615072185 -1.007984796432219 0.5859299849770232
Ni 9.192182102607473 1.5201508952716645 1.187547118989135 0.8037520450289513 -0.4426053819130378 0.8652008963630519
P 7.446859642284158 7.616378927834114 3.5199465488583344 0.1615267278943089 -0.9048509066545061 0.03308598392069141
Ni 1.2305573763553541 9.2669000982084 6.047865313607188 0.5793556741936151 2.0548253893893706 0.9166399288696342
P 3.819489207835162 8.579609247500647 11.289192556735257 0.11086673964559615 0.9807390733423884 0.7217572512226988
P 2.404814923414281 3.9350675954837926 10.981158669807199 -0.21643392145514984 0.3949170746981392 0.35491867992833065
P 6.0177634988634185 8.178304138281403 13.55668159518034 0.7275162651936632 -0.4071244153976086 -0.6081263185684043
Ni 7.305943556238729 8.969369468950923 11.305101005049597 1.3531312274651341 0.5530409475584862 0.7933272501512015
Ni 3.5713573772045217 0.41882965680701234 9.012347348827406 -2.2256656813751214 0.5108905394426814 -0.9665913210870967
Ni 4.299416112846444 0.767995906696562 13.166599448974967 0.091497591090365 -0.29850764812845365 -0.4471575200600944
Ni 2.3582560931729204 5.366494918165572 1.515662450123024 -0.507042626451501 2.1505125930810514 0.14757437947927488
Ni 0.985829807502743 7.760208987955845 1.244737791788889 1.0084499089940955 -2.0413222126966133 0.6951337350978997
Ni 7.028283454968227 2.237636067836719 1.6639050995602982 -0.9413705988470948 2.2860974042986175 1.7657773440119204
Ni 1.7797906108258599 3.7031522618555575 6.283991571043463 1.0563246211881872 -0.6884460386650789 -0.4108448016719892
Ni 3.3081746392019973 7.418829986883537 0.1979032431954098 0.9102895611715741 0.4940665259068072 0.6665996322139487
Ni 9.264309899029465 5.087151187428763 12.083491936093905 0.3254924042474136 -0.9879193931409114 0.4748619279538983
Ni 7.318006483843484 5.490278686784616 7.430314745028709 -1.957965248435512 -0.6388085781436095 -0.643584402265698
Ni 6.081038364520265 5.429816037379185 9.70238011038029 -0.08074652322144803 0.28926144693983735 -1.5484602486208687
Ni 5.401129581472477 6.488263929005647 4.7588517671389425 -0.14078435314063498 -0.37598372812874603 0.013858246039330972
Ni 6.354840919156424 6.618014406447595 1.7362456623434175 1.8386177250124143 0.9719145330722231 -0.3361033469940405
Ni 1.2929719258563395 1.1558208793317197 9.336181450746968 -0.8169752285874446 0.22606527389732678 -0.11474087788902175
Ni 8.322939010290874 8.695048874478978 5.373064773368714 -0.6327721421415425 -1.1348371128727939 -0.4689355351671343
Ni 3.167341809558748 1.849494720873277 10.975674848116938 -0.09104636248555932 0.11038825734728085 0.07256861539634599
Ni 7.562512035623614 4.685716568250571 0.6594989385889132 -0.45225961717335017 0.1409735863333056 1.6321596838230537
Ni 3.3996549237751768 7.247025775629306 9.695339393969261 0.313118456063093 -0.17136299725844037 -0.5545733250426127
Ni 8.395917872157373 4.745198642252548 9.531689684773 -1.0067838341455821 0.06443930142099225 -0.4667580678998413
Ni 0.28244549425358456 8.283567982771059 9.520167923782415 0.12851530596529478 0.34629622836664226 0.7371468463048917
Ni 0.7079245623813777 4.478685648162821 4.248052463128158 -0.6974104469472182 -0.41063217144055086 -1.7647252485983222
Ni 9.21956420821336 9.056215147136081 13.134836206472139 -1.6407409977341616 0.4954983732573273 -1.571228909775952
Ni 1.9951286697089097 7.913622785039637 7.825487557691824 -1.034986007611411 1.1778604105118555 2.122715882583757
Ni 4.530101101864685 1.7095129566745353 2.832798159105423 -0.8285971290970892 -0.17611208190765157 0.14973976256170984
Ni 3.466204541251105 8.308766920497558 6.2653079093231225 2.435978577534198 -1.4631171071676736 0.09215656483060258
P 4.92307132015457 6.831058288915017 7.830767863732311 -0.25035988477863336 -0.5786432215076228 0.5780336129480819
Ni 4.983709733075715 1.4479583438701986 5.6266027197142465 -1.6625130993039303 1.1098663018600692 -0.3597988908387674
P 3.1130123817805817 1.0201406959122812 6.827624424860657 -0.03692489805080738 1.7881999346814947 1.4147957943544667
Ni 6.264683486306772 2.4728354039953904 4.097089179481867 0.5264855656674611 0.28538833713767625 -0.7980686214909288
P 8.734503158400972 0.697445356560314 7.192915589710213 0.5910732197408595 0.03624638392654402 1.9501439526188802
P 0.5143497270281957 5.6299829296427575 0.5147373318339007 -0.39399996220050854 1.8901840271254802 -0.9498290140270932
P 0.419712174670121 5.308631718650431 6.162476076848259 -1.4983268222995871 -0.2857776021562949 1.5755640468161962
Ni 1.2714270191144106 7.141456657664989 5.5562788120061555 -0.13308415628289982 -1.0203142645318493 -0.06783804268989607
Ni 3.8474911111017223 4.9926736723771015 9.008150301086395 1.6776193588177495 -0.2692199549079299 1.013655107344119
Ni 3.8357889612397473 3.88060865774668 2.176532344134502 0.1671168203875767 -1.1163593657835806 -0.052723041425328555
Ni 2.7121790588403574 -0.1510317389103064 2.240775759270043 0.11794781486209363 0.33178260813149957 1.6666726299982586
Ni 3.112364831985848 3.86759290687253 13.359088250815269 -0.25429804349077495 -1.559386408615069 -0.6113481679398116
Ni 6.784277441601176 1.0503720206149965 13.504026546157128 -0.672692375375248 -3.161861935110129 -1.7088693179709666
Ni 3.765622315624663 7.877174982307476 4.095708048276813 -0.607453975091728 0.9422753700495514 -0.895604962576206
Ni 9.013550866374477 6.763999882314655 7.782094320875577 2.177649044286527 0.35510534201784 -0.24775587149688294
Ni 7.126479755983932 3.1213102698645283 7.800981498245691 -0.6223175224671219 0.17706776095270152 0.43479951271537376
Ni 3.713309542921525 5.44453391914235 6.274758436041695 1.3618657791246545 1.030958888729889 -0.029612166439478033
Ni 4.7900738430276 5.475708816403105 0.34761305545332394 0.6844297184168342 -0.7592981855909504 -0.6875448670070481
Ni 8.020644264686428 6.91363013845493 13.09886204016127 -0.06179209360613229 0.7981372699453351 0.8352097493176002
Ni 5.608188253694288 1.7415944236479186 11.43256008128932 0.8240046246304004 0.5644311916732989 -0.11039802753929374
Ni 1.098235201157178 5.871074968933505 10.303811408733152 1.7589114701300224 0.3147590769903095 -1.3696814185143316
Ni 8.12548257645383 6.764277403655255 10.625872149286279 0.426186317125066 -0.10505938893519971 0.4052832484238117
Ni 0.41017099098028603 3.4859825621245464 8.090845137933519 -2.0807467372408226 -0.2945327226411057 -0.2870315291680541
Ni 7.666212509894557 5.982444282916367 4.987138971774398 1.1259392961625319 0.621586043617736 -0.1019349843736051
Ni 2.9660370797987152 5.9691972642583835 12.043184736585134 0.15800071701892143 -1.5230402658858673 -1.223609334612196
Ni 6.041658086289096 8.97825015185013 4.291418872881482 -0.5258129650804686 1.1264247204393825 -0.9283402480256979
Ni 8.708194135312075 6.07883669521817 2.3786742632720124 0.8217317694358236 0.6897174491783348 0.5274808397011949
Ni 4.288981310439876 6.47766261379472 2.4359731693946007 -1.4975557484615178 0.2632387976238305 -0.28057240380627163
Ni 7.673169044832268 4.228731427395573 3.0619780573864754 1.161663746147335 -1.456479547246498 0.4897455299339501
Ni 6.9278207296709535 5.079149322108123 12.099075684439743 -0.5507333824712322 -0.0692079264542292 -1.0827838438209805
Ni 2.5005967887667637 3.1381650659503135 8.628330894056418 0.674624045180322 -0.828460860629541 1.2295290425307404
Ni 8.08809120116363 3.6939663054816907 5.4963129258003995 1.2005429397110357 0.36553605043286075 1.2358979221715618
P 6.631668456405126 3.552550681023181 10.581747181201983 1.1228177198144147 -1.5746816442112428 -1.074911125941123
Ni 0.1453240500052956 3.0444183570955654 10.631464204299375 0.6556122799645095 -0.6694810675268018 0.028803297384937494
P 0.16494573385686517 0.8596834072040567 11.278563489390269 -0.3321477047804021 -0.33615219795410495 -1.1992453039455346
Ni 1.889097016176926 2.603362941191018 3.241916419133699 -0.18950907203984782 -0.29431212198986734 0.10519925694717365
P 5.680417807941168 3.252670371081957 13.797004900357626 -0.5567024555704735 0.682799896122895 -0.8318763140689932
P 1.6898181922032744 7.331577277398834 3.4590065627470716 -0.3134670976517634 1.3323893669320923 -1.763421442185234
P 2.5016236177269846 2.0050084294342767 1.2753659720086628 -0.09951274808535765 0.5800850961604719 -0.7078496400026711
Ni 7.132705484724728 1.4144152645029877 6.095240056589913 0.07498545236795473 0.3630024853777297 -0.013444041320047815
