# total energy = -381173.78957278223 ev
CRYSTAL
PRIMVEC
9.18347433060595 0.00000000000000 0.00000000000000
0.00000000000000 9.18347433060595 0.00000000000000
0.00000000000000 0.00000000000000 13.44094296265467
PRIMCOORD
 96 1
Ni 1.1015393510165417 4.8540629862111775 12.266460023128149 0.261452138037053 0.15565972759057062 -0.06634500308413735
Ni 1.4600346293507591 5.8085841004048975 9.864886038567535 0.592385767904696 -0.9761190580718737 0.4204049345565985
Ni 7.910167046715211 6.203859192498588 4.155119792838652 -0.14777981062186163 1.5484741325779396 -1.9487059346207731
Ni 2.976419055762224 7.935192013630208 5.551620393342429 -1.0066485941192984 -0.29104270720997616 -3.0748622318901173
Ni 3.7260660463204682 3.3539333089518393 11.530944562510747 -0.2587321680027286 -1.1391367686894123 1.3993203244266867
Ni 4.356906432482632 0.796827088732849 12.705777220297414 0.5770026005804062 -0.48372889142622494 -0.026960844859560018
Ni 5.792430369467841 5.900694345600282 10.379378236349455 -0.21266391288975633 -1.8044955865177243 0.5044841216957053
Ni 1.2046605816545242 2.7202552292936257 11.815395325893684 0.44739714687472626 -2.2610340335720864 1.143094724895896
Ni 7.434582473641098 3.6576491642959805 9.878622679122197 -1.2876436872852857 -0.2676893771960164 2.6923088209636536
Ni 0.29931972629378933 3.0089744714369635 0.8178866315326551 0.3048284481401589 -0.864461447093866 -0.8720623993695756
Ni 7.084673743587806 6.2188190718030025 1.9694208155346073 -0.06927374669515811 -0.6379732267265077 -1.1085169869210263
Ni 5.956226813466332 7.267397327700722 6.02210721994516 0.26686173908839844 -1.2566942900916227 -0.8011580590495299
Ni 6.38999902897568 8.14411604934257 10.017601702720288 -0.10833394592141342 0.013137565823222536 -0.744973284327846
Ni 2.046684138156973 1.1180145035470022 0.12879822421388432 -0.32237879831909644 0.5229587834611252 -0.25319786844806075
Ni 6.223291423688361 4.8043069235522955 3.9108439735889386 -0.09135335220301687 -0.30203751565858306 1.2301147398308816
Ni 2.053838064478728 3.5258020266818106 5.326887925319068 0.9975096079325079 -0.12367340449196121 0.381120278024363
Ni 4.081200173135094 7.5596154734751115 10.495078071458433 -0.09121785506641711 0.5356811161238 -0.7944577642112189
Ni 7.955193620214011 2.4095048327909936 12.536917927029108 0.033137920204549386 0.5055184764974907 1.260657388504429
Ni 0.7227458398851797 0.3111498776258625 4.545579071115746 0.3663757727253368 -1.0800705586548753 -0.002024229518880385
Ni 8.235234479335451 5.512040538330706 11.116385093160249 0.30195086948204775 0.07775144514886609 0.18257043593848554
Ni 7.68193016497634 4.682644258711972 0.13069920335201438 -0.551206722563225 -0.4365684316903385 -0.38810442265168
Ni 6.85645522879713 1.1039913386005065 6.428452990063081 -0.5089341870472589 0.7571518286719089 -0.6870836110999133
Ni 0.9641545785217317 8.484657635816669 6.7554581357178405 -0.17952573557489082 1.5073164273927073 -0.01697185196764819
Ni 6.7744835390051055 1.20517485620397 9.043160714862232 -2.168707518822523 0.35021356114317753 -0.09243887195771176
P 8.77883186157377 4.948129311389275 8.910309823529232 -0.23164559619858172 1.758052721674153 -1.1629405559772295
Ni 3.9687301658661136 7.6627183371648995 1.1148948773961675 0.5176913644145987 0.22108144752949024 -0.5040524334749255
P 4.016796469291103 8.861106606011004 3.541593928739436 0.08989065161456132 0.07629491520799762 -0.4477432173602353
Ni 8.227694847101612 5.356536771442029 6.0705344339021705 -0.45474073172399104 -0.6949840968939127 2.8468974269772325
P 3.175507590716434 9.192749406084873 7.257195406326092 -0.3557015808409423 0.22355202055716986 0.4470474768447914
P 3.5910322431945536 5.376198589484233 9.372289079728274 0.9864304673002107 0.05631744364480623 0.1916610853858441
P -0.057366407643270674 0.4791147005170941 0.8241864947633663 0.105491848486928 0.5667930070372562 1.0630064040837368
Ni 8.689577676822632 1.1775325991712577 7.856015773353386 2.205069859501641 -0.677693171023949 0.2014824423516401
Ni 5.714545325649092 2.696975122457106 0.21144857274169448 -0.8853861130616753 -0.5541820031414649 -0.20762506491426824
Ni 0.6573438924068182 6.5669645748296235 7.852104531735368 -0.3361473128580985 -1.2363350097089805 -1.219062852892094
Ni 0.8967451236057121 3.869502728245364 7.408956907520142 -0.8247124493307022 1.7135934629195133 -0.48626631313609797
Ni 9.02802543120256 6.483973519412806 13.388563009343244 -1.6558048340458191 0.47031236091000295 0.6177916095723102
Ni 6.825405902874339 0.12894515979944027 12.066068353199539 -0.24740877257010938 2.0750774547701876 0.6950257487651256
Ni 4.869573873961428 5.10601159806914 0.8552293922542892 0.2967618690819405 -0.07902465543433486 -0.8187035241324611
Ni 1.6883633458306029 0.4305240207211523 2.420794077498739 -0.05067258665420306 1.0554306486190081 -0.82939468529772
Ni 0.2485406246204737 4.406386990918597 4.355927474143866 -0.48634113223809144 -0.24580748952126055 -0.638011793273927
Ni 5.134985458845953 3.518547082144986 9.505072013352954 -1.528272460819084 0.5290785232056179 -1.081265607404241
Ni 5.209288947766775 0.5139017003974644 1.6702792486383047 -0.8658418723811605 -0.026579293150425193 0.6044532405921913
Ni 1.2978728437415779 7.109698710502803 11.735273187784845 2.1429666624129933 0.0001830625450835557 -0.9060431271903945
Ni 3.7452044063391305 5.578216652675466 12.013635307841309 0.20346373444772703 1.0264185776573742 -0.2214059207484445
Ni 5.6476161664283575 5.119593956258967 7.874698633056824 -2.3678520570696056 -0.49020421473792347 -0.23033484780695818
Ni 8.46097345611987 1.5479847607800903 10.574553692990827 0.7172315954382035 -0.4549628750371262 -0.35520972880618823
Ni 1.8945966236324707 1.9017321830060314 7.1987673890771795 0.9971805067278634 -1.8936853554105195 0.5611478929363367
Ni 1.4586020073915889 7.934273666220483 0.610065531059373 0.7185590560003754 1.0588088210626219 0.28816538566218114
Ni 7.772121064085399 3.8138141413196602 2.2541672867834763 0.7778098712418927 0.6529661005909141 1.025464698384537
Ni 8.896049724951027 7.986068460128954 2.5073409740860106 0.06864511197222371 0.6088840226700352 0.3840292241410418
Ni 6.322601512575987 7.948645803182674 3.361982623998076 -0.7031892584125243 0.9941993126123524 0.48098578146344906
Ni 7.280042971532632 2.981791388109113 4.611224380657684 1.4139540151794616 -0.3758495165437269 0.6218778638265419
Ni 4.532016916568932 1.7180351506388067 7.7966069610708875 0.0883292206647124 -0.15738210959831606 -0.09229848972510556
Ni -0.008785829668835874 2.0781467204141397 5.702655481735386 -0.06592437060695099 0.813782946902392 0.14753272760806205
Ni 7.287904025359874 1.51546607900174 1.459915244187495 1.2132619299396008 0.7535216881184894 -0.11595958078747126
Ni 7.619675394071105 3.299861013467251 7.77725187106353 -0.20372984362492008 -0.08558662492256873 -2.553630458422428
P 1.0477792936512598 0.9396530696302776 9.485421215479665 1.1037923277518473 0.4489704048991171 -0.23186619684982004
Ni 3.6145603038316994 6.7129634460276515 7.242934389400477 -0.5572981801729434 -2.0626047762244735 2.2069256817634573
P 5.030404055826508 0.667968253589923 10.35681076710288 -1.491729628698044 -0.7797564534453022 -0.19615023150544927
Ni 2.2645896115364414 7.474080595733356 2.791468479180725 1.5553564615200695 0.28329828737786694 -0.016144985190978647
P 3.7886055049227183 3.7600357170061836 3.409738525998578 0.49202069912137203 -0.9269855337700165 0.9979667500745844
P 6.118645736350237 4.157542393305505 12.184994342758882 -0.048410015872271464 2.929824502789767 -0.4992863795448498
P 3.3128556293148548 7.94182248192842 12.409431102916313 -0.5609969691807694 0.03632634523486002 1.7126982047987533
Ni 1.8332693836110578 4.003002891197038 2.186519061540928 -0.7854990123560343 -1.7243920961969141 -0.8036761974856933
Ni 0.9128116115388452 7.0736903085675 4.549691430816493 -0.6059226260488662 -1.1565197400525502 1.6730222263653702
Ni 5.965199067659341 2.3430807646456087 11.247541633522305 0.2984441418803699 -1.8571453515029563 0.022742950123470506
Ni 7.77932090777764 0.6916239645170206 3.5813794935709375 1.1363365802364558 -0.615747839669404 0.5485769982498617
Ni 8.780420602592596 8.461552014987998 9.634750014385354 0.48736648817881223 -1.0416114833477286 -0.5459087073890793
Ni 4.857819027116952 6.136039236290421 2.9985264329565258 -2.258884077108619 1.2628196862630703 -0.7121498100399218
Ni 4.782193117926125 9.343725720243608 5.684322512395053 0.020168247417758814 0.6284431757488855 -0.5033541218563201
Ni 0.20230366923565626 8.92699803265875 12.286769276094208 -1.069856337126035 2.1023555737598505 -0.820119173533065
Ni 7.967582126771197 8.2163899904879 5.3265114028810805 0.7347418364078249 0.4435410063534297 0.47766211640685474
Ni 4.544010533739936 2.6521046680179587 5.389468709554754 0.173699615811417 1.589548019800114 0.8402704516699593
Ni 2.3774636916657 5.846401646737359 0.598795571647232 0.21755260844062535 -0.2981993728594155 0.8425535912771812
Ni 7.160253735408146 8.39113313561031 0.9613692308280368 -0.011743513689173325 -0.09339043723770368 -0.42518924331911934
Ni 5.102448410119408 8.242030250167414 7.916137223225831 0.5954780336767744 1.5181119753463144 1.6976317973839345
Ni 5.835353927398371 1.433999480285065 3.966999999346193 -2.0160256429133536 -1.6125028288240746 -0.7528948531677678
Ni 0.6223227139369681 3.4008333111664784 9.807089844336513 0.9387961532516993 -0.6850110448416009 -0.4182269530686733
Ni 2.7014015569719785 1.5941225346446575 4.250913529494441 0.8183929348705775 -0.6924243065865365 -0.826287507127306
Ni 2.307595820733847 7.95226409197699 8.935229180492112 -0.43449175166696785 1.170413981536139 0.17153886071467234
Ni 3.42087165164667 2.3657272117694186 1.6762338132429595 0.5189013255623 -0.9436586235503233 -0.34416221274277503
Ni 2.488850048991204 5.375913901787218 3.6423072524691205 0.7710064751668141 2.020708135990688 2.7050913174403024
Ni 2.9125847273122627 2.3354768480930885 9.596094016867815 -0.46715890288268574 0.2443553304557663 -1.0887722001939315
Ni 7.185875628139465 6.458718965645377 8.292618335579505 2.3348869149974947 1.5383761249119894 0.7629560940585118
Ni 0.23292045352846688 2.2401707539118627 3.206054580606106 0.7190388238502714 0.7329670038955892 -0.17519651207191764
Ni 2.5227921692546285 0.6393874455044718 11.158307652414178 0.06161597303958421 -1.2599480211422303 -0.2556021070141791
Ni 5.590201086372373 3.1534029685643614 2.4388460325316967 -0.340663198450581 -0.10834577299595534 -0.18981117666129893
Ni 0.39831665871469857 5.80840961439705 2.397205405932551 -0.12935245715460947 -0.14934381267487182 -0.8698173120891407
P 7.811802855659602 7.56102054501199 11.517140882595175 0.5909577772089177 -0.8347963159292656 0.7255532279300213
Ni 4.487642369731036 5.392187017887539 5.536176544953089 -0.16899141170247026 -0.9907028694233196 -0.7472227424836551
P 6.299284671843078 4.070565710130482 6.226140137353328 -0.3925580875476594 -0.31412375739915577 -1.6239079853372227
Ni 3.364356552052214 4.045559110163679 7.508352402716871 0.09208971614840915 -0.05975809389523901 0.5055282466895036
P 2.663932982655212 3.7437534174317655 13.551561409442686 -0.11001416183731375 -0.6059388239987823 -0.8429243443530386
P 2.152431842386768 5.604839544083384 5.995533919297367 -0.5737941209454377 0.4271445672732773 0.04962331945408228
P 7.3342805695509705 8.436416846383834 7.461349545592343 0.5757029079323762 0.6992091907188539 0.3943123512346048
Ni 5.767139081804023 7.326566451309284 12.707443102498654 -0.6368236865030967 -0.9947143045755578 -0.08881695893440833
