# total energy = -340890.0548019713 ev
CRYSTAL
PRIMVEC
9.05965774840887 0.00000000000000 0.00000000000000

0.00000000000000 9.05965774840887 0.00000000000000

0.00000000000000 0.00000000000000 13.25972487903466

PRIMCOORD
 96 1
Ni 6.783962314695551 2.017368347627765 11.514148235190687 -0.5643067502802926 0.31436492687568435 -0.744611530113053
Ni 4.491560877299317 9.067992628337057 5.783786065468321 -0.12295915203375597 1.223091514435513 0.4842837354884305
Ni 2.6222907547998604 1.511304925749613 5.1207468598392865 1.0074070695518778 0.10124824271922563 -1.5813616273345799
Ni 3.2940371974858964 4.297865394749417 4.890424992965124 -0.47591710869129006 0.33179572075762215 0.6643265199090559
Ni 4.890838113358214 4.506337179078498 2.6949464920031074 0.46276283069751917 -0.004286286080179715 -0.8850719242553661
Ni 7.450109888896282 6.1789221319727945 2.499975409642963 0.22309590685635772 -0.4983895787621932 0.8495745026797046
Ni 5.2188792605822245 5.3372527486550485 11.369869561766919 -0.1429024279249023 -0.8085546086239171 0.44568710616215507
Ni 5.487670246165619 7.724064879393309 12.56104332746812 0.21964625774486043 1.2507565844509492 -0.1273397975999549
Ni 1.750851336137916 6.861585462239403 0.5727126059976491 0.9413384600575787 -0.8911150451256524 -0.20717280786819806
Ni 2.950150708869006 1.7347885629591988 0.13758992811195472 0.0922835773267701 0.08400513936806178 1.0031822328372528
Ni 0.8229294812759085 0.2279944407999316 4.675246344008741 -1.9373360022209345 -1.3160145251184947 0.6952499489607897
Ni 8.471405106288717 2.273919735600079 1.2924734227911674 0.584675800854948 0.7961078982201322 -0.05353910956872069
Ni 6.451373219284449 0.8659637615219461 4.636434770236816 1.2605807696302227 -1.0524160301624004 -0.18359090678319995
Ni 0.7904533261638118 7.536113219852606 2.7315293899702033 0.20262401215525103 -1.0085139294628116 0.2553126007982184
Ni 7.742736834002072 3.867667546812933 3.7696203068527816 0.34171812207765667 0.09843982673615304 -0.5657033735175031
Ni 7.94965035719932 4.001967913198327 12.658210874661405 -1.0558631081707364 -0.41867843878379507 -0.500316363471261
Ni 7.834982269143469 8.994736235825433 6.825324182122191 0.38559862551069074 -0.4484865232841631 0.07749921992874395
Ni 6.916414510901331 0.6612182144226485 0.2967527132420489 0.32070038217540897 -0.3963769470731174 0.589436969689017
Ni 1.6026715740899193 6.612589828824929 9.310355686317726 0.0987010508173397 0.5138303387972958 -0.42067464327821746
Ni 0.22897650769929592 4.9787711514138415 1.21287617582507 -0.40236144679132635 -0.6931277604114644 0.48373274808096695
Ni 6.297078188259783 2.0547756744494925 6.707458034882987 -0.8788390559717767 -1.1669586759976869 2.31973720384025
Ni 3.4851053792902653 4.377463547681289 0.6472301028671271 0.5202719806575814 0.2239130034410144 -1.2625582050715676
Ni 6.031385605624566 5.53568643220465 4.459974380577604 0.7654783462597333 0.29566246537017465 1.8369228538084945
Ni 5.684083626038484 2.5397753920746733 9.306695584589466 -0.19703623365482842 0.07761671934321471 0.14499967677356318
P 0.31989742087863593 5.697944902385601 12.352096817073294 0.7501972517309468 -0.043823167832537424 0.1630033124398354
P 3.821735082054842 6.38207589720661 12.705627311357835 -1.0618224110779648 -1.26395868496352 0.5613954901707686
P 2.6070614701335186 8.699409512712167 1.4885370998751437 0.26003648863644896 -0.012761413430726407 0.12625247807304707
P 6.447722177213933 7.813791729682094 5.6195770509752565 -1.0644382514342572 -0.16199544000061133 0.6209090721553694
P 4.991880476168271 1.2139126006708933 12.486603743655232 -1.1976447922276343 -0.8405784698286815 -0.17291054425121832
P 3.713318157841808 5.942963346050805 8.20391146369415 2.1359740331452444 1.0306956077661733 1.6104094366301556
P 4.389440415217817 1.1445246820156227 3.6860712371790942 1.1113480286119184 -1.2689489390892597 -0.01783779951236928
P 0.29666302263039107 5.410753751925738 3.7330365029199117 0.6952453209750994 0.638981613386364 -0.952863944198675
Ni 1.3415178799840528 1.178045415665512 2.5403506803413674 0.6957533709597695 0.8763006058206393 0.4801964527929342
Ni 1.9178480073185666 6.44337354149719 4.97388165412983 -0.5956135308133742 -0.11623366038446435 -0.2179750406900246
Ni 5.943226076125357 5.279986652060198 9.068312434255391 -0.5585860457464316 0.8714479057140282 -0.005396745535539093
Ni 8.84151930407221 2.156298199119941 10.157466300076045 -0.5150207595609712 0.10554789853584404 -0.253656296141718
Ni 2.1169068072524495 5.290667988539446 7.145585801242105 -0.10085614948712951 -0.6236362412785453 -0.7633890678308723
Ni 0.5912966819263025 8.902889425624737 8.835670389033192 0.09945155583011905 -0.3561780062567285 0.5199115119943691
Ni 1.6294338030633713 1.2426045367436498 11.316299805531298 -0.9133890260325045 -0.6531987854270106 2.2532623600464676
Ni 4.208654944951995 6.913805329471284 1.7155694050227461 -0.6210029174207563 -0.16280688015831316 -0.35306414321809515
Ni 5.56669764065967 8.059081963079594 8.033364312643934 0.8147018591722355 -0.4775569582875582 -0.6332447109025868
Ni 5.13710678979198 2.853502280064407 4.936913720708648 -0.6479863879881357 0.604186617194366 -1.8238426235857685
Ni 0.4175161390275336 7.0697401585474715 7.048313162018998 0.30799810411739215 1.6884925540868276 -1.1310398506138908
Ni 4.909011786791099 4.465867687939564 6.863684584938506 1.3892143463409363 1.3389623921639198 0.238188539523422
Ni 7.994975824888616 7.227015816969655 8.964568481506308 -0.0535913029628948 -1.2563849863813201 0.2428383795906076
Ni 4.745249413424776 0.24195627934799763 10.535341906648148 0.6892168553928324 1.5606454778331509 -0.33814017491841114
Ni 8.248691539987306 6.9760723571403895 4.806981921287031 0.5311012100626014 0.5980637921260796 0.1059307357965595
Ni 6.946900259207243 6.049794830158775 6.998615503502827 0.4455572654525101 -0.298882257859053 -1.0806243742758164
Ni 2.2978372320421623 5.201122331405526 2.4755777513404897 -0.47182725489263255 0.3664374792012076 1.808093331171312
Ni 2.60796743590784 5.369342056381511 10.938026479984266 -0.585839739256062 -1.9159868471211972 1.9496726694094164
Ni 1.0923319937569709 3.13401646276752 4.001267601654777 -0.6491834936200304 1.1315468721572963 0.26513524331559496
Ni 3.248621133219168 2.808285528268029 3.091916233234808 0.20234607590351605 0.07451082672438136 -1.7412279368073302
Ni 1.1641931989761387 3.3525897654802845 8.259973531774929 -0.44602597755881246 0.36244918397742093 1.5143571362895727
Ni 3.6870360907287463 2.6439161578329102 6.862212390555233 -0.44945017274901305 -0.8316441434535291 1.2048605932497831
Ni 4.18847908715786 6.810797020930949 6.123447129713776 0.25288367964175157 -0.8061040902008956 0.8360875239368633
Ni 0.7377007510566294 7.767043895727113 11.796116492961584 -0.355339312405517 0.055486463103078636 -1.1986963734206002
P 0.0900611516595091 5.372775666666189 8.222528154390679 -0.8599540461418157 -0.4611479208019154 0.8360700404353665
P 8.635774476723835 1.5608612536049897 8.06102435369974 -0.8917349380978384 0.36756465082711537 -0.3337196772532124
P 2.1488692797705062 3.099644121289769 10.516751488959073 -0.17943163319918776 1.8394142527717805 -0.9399220393260262
P 3.998869510250148 6.138262388021253 4.108048351679386 -0.8789390718847508 0.34812479693494885 -2.751670193641106
P 7.0210444981777 3.9634915467629 10.466126121489998 -0.09351230752754863 -0.0427553886896554 0.16094000215290347
P 6.184312628330007 7.573375592150443 10.125430444330268 -0.9736793382821295 -1.5371967598919074 0.21383685015193496
P 2.214452142173627 8.341353719384891 6.1680396710916465 -0.26596622385732255 0.44214026935116113 -0.9136247961923943
P 6.974414439773381 4.156543793613032 1.4491158111370996 1.078714044626981 -0.7311253227011602 1.6415298121840438
Ni 5.6230124731914835 2.9179345659341394 0.3368181436456354 -0.7466902670189527 0.8415632023394538 0.25568026855028225
Ni 1.560190838931992 1.276632611227159 7.197935221579715 -0.1330497035005386 -1.0036026082041232 -0.9429937362728147
Ni 7.072557712105612 0.3293448319732588 9.354099337765055 0.37369441787393703 2.3580456125021456 -1.1997376702009208
Ni 2.8128334764551224 1.4153993888799572 9.300025864558913 0.8651713286766971 0.3283332161303184 -1.1993350354458636
Ni 6.339151238819265 2.231058494816937 2.6664248774959236 -0.4460036089613093 -0.18922496514052575 -0.5636367207964615
Ni 3.9374087921201895 7.158751295874542 10.510744935875323 0.08034414557670679 -0.2918855148262457 -1.72063674291954
Ni 8.214554749610878 7.245198550060284 0.39655299697551233 0.04580008905325015 0.12616146102113754 -0.2678143328096549
Ni 7.634174955265147 3.5265442538077227 8.104383875658757 0.5329266933071144 1.1373138565480607 0.36993366527992416
Ni 2.9929394723902027 8.484659385567038 12.39573447052503 0.9076390109226046 0.10544042642370227 0.4731390317255207
Ni 0.1002043444688107 4.552151868285928 10.386116660096583 1.0412576995527358 0.45335876377479983 -0.41426334043523494
Ni 8.410261476179771 2.1310308136741187 5.767887272094756 1.3362748180294277 0.9995808886392397 0.5549733886945087
Ni 4.099196160098493 3.2078073750859923 11.550638724648802 0.015108830616980429 -0.8383269547903432 0.20430834183620944
Ni 1.3153535884216527 3.4982056443869514 12.511650979417894 -0.01011446272618258 0.4398278191679006 0.052392911779419446
Ni 3.2696576584989097 8.269066710251792 8.023207530348017 -1.1676631582638795 0.054642369935228474 1.2518287344692054
Ni 5.474144177155003 7.809814539932823 3.5895134049519273 0.09584352676388655 0.7118279079241289 0.24891672457420358
Ni 2.8433826423652375 8.349018189835649 3.750672032682851 1.5058187598012582 0.3320435751023701 -0.4319689852451141
Ni 3.714749583765236 3.9568689369526115 9.146319711287555 -0.4441572997811899 0.24438618369370171 -0.27019286034416046
Ni 7.457638464480892 6.088497688037783 11.321365060175529 0.06446192712881157 0.4441529289058157 -0.15302331840898806
Ni 0.6481188552917363 0.10435729157829969 0.6743248212797551 -0.6127334783231124 -0.09299423024054952 -1.7514105337672867
Ni 4.783091603818177 0.4080007804998367 1.3379991089165886 -0.9250942302845746 -0.3639998162939925 1.069954553266796
Ni 6.118394558590386 5.783422773192818 0.48530955791999875 -0.8022559200993991 -0.2254896038995149 -0.4947584097675092
Ni 7.495661848029158 8.5686786514776 11.4685083973777 0.8895569566099131 -0.048252664358800774 0.8831898767413047
Ni 0.04111816263334789 4.793673284062251 6.041833202934039 -0.9326633008810841 -0.8289920505426626 -0.9138327984381424
Ni 7.97079559837198 8.927278024269468 2.5971955028511595 -0.2867690195352868 0.4011095766620963 0.23303013525093416
P 8.464175499409633 1.6891550669066335 3.7054299138447924 -0.9184623267903537 -0.46874990151888946 -1.3447725710877938
P 1.6926158561645408 3.1970626210025412 1.4319839983446834 0.3123676939399975 -0.22020881511654977 0.336628109149259
P 4.6735694013604725 1.1382644585150623 8.033815483599545 0.05052706221527427 -1.4199426286627288 0.2508460803864325
P 8.665653227960954 1.2197832588884956 12.270668613277293 0.6672634910501928 0.2875465211312596 0.6595576377655027
P 6.411057742327149 7.8667091905602025 1.5163692744280692 -0.8888499032405596 -0.26420244708868046 -0.48683452693474216
P 1.7216248802583098 3.287468945622067 6.152406325689958 -0.16068751982246518 -0.36067769389929494 -0.6580368302456022
P 6.886481401717753 3.907983023770232 5.7860265188282165 0.04539051231965731 1.2628379410955155 1.068940510179985
P 2.202511513268072 8.575310320945631 10.246439386840594 0.9674796372293208 -0.9576307694596992 -0.14811122581935138
