# total energy = -340865.4624231889 ev
CRYSTAL
PRIMVEC
9.34455178592765 0.00000000000000 0.00000000000000

0.00000000000000 9.34455178592765 0.00000000000000

0.00000000000000 0.00000000000000 13.67669610047306

PRIMCOORD
 96 1
Ni 7.927749659913459 3.4086028648615514 11.730105778580143 -0.8111359961978483 -0.08945047875334916 0.8373239674471257
Ni 9.203794949428657 8.32926636746638 9.777045832447216 1.413164686508947 1.5677854313120418 -1.4334360351634732
Ni 4.601023759108385 0.38869598229778596 10.274289998935009 1.3879660757561323 -0.8257090089160166 -2.651493072498872
Ni 4.4307099555369005 5.594377663479035 1.0387310485681216 1.2694623883905685 -0.09313589802473637 2.259824843755334
Ni 3.9813678311794787 4.223485171821262 6.7943910061732415 1.507221553686056 -0.1457293558507361 -0.6859042460798316
Ni 2.5755267152839494 5.915381711558021 2.5434141625585354 -1.3269216589493018 -0.29840866065674415 -0.33834560606099795
Ni 1.0536075752490064 3.9284776672260824 9.470975312815918 1.411257442183905 0.6646072843742683 0.13711744581200902
Ni 2.287873373061795 6.957944026419587 12.177196800376368 -2.2736509510051484 0.6085896313580681 -1.2212295215261098
Ni 2.5724617022491945 2.6708037668155447 1.5163357702536442 -2.2869209286411776 1.0096989509098482 0.9187577465435854
Ni 5.494091932110156 2.988995104762028 5.239050141686757 0.4616405441676178 0.45080977210070106 -0.21870780509099105
Ni 8.0063279971368 0.3767583172005309 2.6255424950620694 -0.6028504148814456 -1.6283441667317053 0.6606105045100494
Ni 4.494056673105819 8.167456106155953 12.07724747287716 0.6495701875354878 1.0764123930769978 0.2993090609838265
Ni 4.677051033653409 3.6371799497491883 11.583026268940412 1.8141449366820306 2.2193734206085063 0.28042405115386543
Ni 7.037419440628709 8.665118908570445 11.662474583948923 -0.31914460765251484 -0.425102597142584 0.5866802328794863
Ni 8.54273331187475 5.763429952539262 5.950730282618605 0.23167593521588487 0.36946675294583464 -0.5752107987873061
Ni 6.553175414793206 5.858613558551506 4.427707551000112 0.35446436599973147 0.23524025552837552 0.4862691413495755
Ni 5.801219320565328 5.698597451212644 8.049666160102005 1.2862046408459138 -2.2622774190608848 -0.7112468386096783
Ni 7.739354148347307 7.453111833467372 7.852995113342014 2.2850615068349356 -0.4913193021789732 1.8573137587600208
Ni 2.6419477904395574 0.11904678828923704 8.61850734906233 0.9070952226039927 -0.5752599068576867 -0.46652538306374497
Ni 9.062654836998957 2.6364158156939017 3.065153203034144 0.4559087838901632 -0.8427561942062906 -2.232342579174665
Ni 2.3042169943965107 4.726343545111741 0.0222503126129738 -0.5402157707693599 0.6577959178793897 0.3644633861939723
Ni 6.606121646058215 5.518789582874967 11.932890031216159 0.8347703477873366 -0.0595979141682909 -0.07500602119324501
Ni 8.702824175629095 5.440061732820663 9.705257246660013 -2.1059864856442183 0.8921776820622118 0.21016402928603806
Ni 9.251713811752511 7.424825874759434 11.730037563351015 -0.39494072884722303 -0.9338452370043272 1.708162007491297
P 0.3622322112172174 -0.13836758387051654 7.900494405283976 0.41136519295183344 -0.009437748374132133 1.147865663921978
P 0.506193443876162 2.4512161408895983 11.441801121088103 1.2701720128630833 0.8538337921766908 -0.9712879552318175
P 2.7041357835685065 3.7738066435941717 3.6490110869543817 0.20886433663800805 0.16120713977136106 -0.44124501123040133
P 5.173863481841793 0.8833965617488098 8.000976372243494 0.4369954919254281 -0.24055832530717927 0.6959976257600916
P 2.8022535788884113 3.116137078392754 8.127718399051393 -0.6016062580616994 -0.8660485890753279 0.772601844678392
P 0.3226870018825218 5.955591318535312 7.739218652344246 1.1057990737692311 -0.08378813826124924 1.2459483644290283
P 6.84382835818657 1.361342359579968 11.017809831675764 -0.19004874659340174 0.487523839692283 -0.6895696107465608
P 6.438265459645696 4.43149489789946 9.916192751949131 0.21380702535526405 -0.17733978366716552 0.25948678678056597
Ni 7.705545559445649 7.2538205743447435 2.621904660993685 0.4741145082649125 0.5269841025704344 0.49571640280540435
Ni 3.470529210536314 2.023590755229648 6.165222324374272 0.5511265041445927 0.21769941843113474 0.33177592326328026
Ni 3.389287676011433 2.296797420159939 10.341496950908368 -1.600959089850533 0.18553286100091917 -2.473581732598953
Ni 1.4712342903382614 9.294670716998759 0.0539956244473338 0.0032012805461170677 0.9444109283353155 -0.2631971457526177
Ni 1.0023246742284695 7.986695093520884 2.1474462499447537 -2.597448741158959 -1.2365568959117992 -0.405539844519308
Ni 6.826297978756081 2.035056520454174 1.616298180125563 -0.02539221482085949 0.8522317377968935 0.2070905325670369
Ni 4.826246149851274 1.4722341573953308 12.22406720397309 0.6042136137775593 -0.8611092427921815 1.4428498722782055
Ni 4.589707506714822 7.523102527462237 4.383763861069504 -0.21031495304160555 0.0991219404048422 0.40241389729581667
Ni 3.4637917885910134 5.7764095351772955 8.32170942831636 -0.8843288754417545 0.47404097471449974 1.9114197965758049
Ni 2.593860726180869 5.5280593783947145 5.474357172878147 0.16714973050804116 0.23348007830415918 -1.2416443377370359
Ni 7.364002186213028 1.2395267805523227 13.147996694196149 -0.14309808887547612 1.6471890673523504 -0.6654012410304734
Ni 7.678810796358958 0.849637498972408 8.011699245589169 -0.19787852705046566 0.0064642675681049954 0.8317215336586837
Ni 5.347475912246413 7.77272354330801 8.645600942943332 -0.4210963041966683 2.9400667493430657 -0.13637722521187481
Ni 3.975293872421579 1.8613973672898783 3.64382766399591 -0.40763632203702055 1.452700282709724 -0.13735681551632473
Ni 5.456022227526033 0.17236960499723436 3.1677414319998625 0.910031422414181 -0.4199310802439735 -0.2915258174939818
Ni 2.368703747301526 9.449584698980985 11.370039634501511 0.07698448507585452 0.21438578067686948 0.16421018826374298
Ni 1.0967139933262178 1.7371615493110086 9.139684781966631 -0.4557141513808539 -1.3466592465875453 0.07467100645132947
Ni 4.937306149601471 6.405279191314337 10.462577113698712 -0.3431818511073767 -0.6188555320604504 -1.0137240129088412
Ni 1.9668132576711967 7.487976356737712 6.738029341175907 -1.1056926300983538 0.2657096277618263 0.9459448484813388
Ni 2.5948605932379385 2.6796156792904657 12.48668742601596 -0.6228859933760821 -0.394740697021275 0.15486217138993977
Ni 6.886934776263781 1.0220229897079323 5.871227769208871 -1.607953004669863 0.5556231064633657 -1.0327445198754022
Ni 0.25513990821871885 5.119197853020704 12.15880204989187 0.8032234262189909 -1.147314162293882 -1.2085012753261637
Ni 0.48527753327953893 0.46040794275912045 4.2077040925130476 1.1240855307832447 0.27627557620313065 -0.5465113739700845
Ni 4.3863326783964975 5.257029994065332 3.649380196755823 1.1765010682704835 -1.2729133230536465 0.2552976883998829
P 3.991329123542432 6.78914404026161 6.613653354918009 1.7465400930488633 0.5309628847125243 -1.0342990088467154
P 3.630433183251953 0.08862092718813137 13.557147900680151 -0.5614643957354911 0.9453761204620622 0.48213994967255025
P 2.9646245133149507 4.941464475212649 11.269146507256844 -1.3636005024275741 -0.4382033961906001 -0.46429752217449066
P 7.361600636365675 7.422172022009829 9.993589003352666 -1.7184986135306146 -1.573440315604974 -0.23024743029947442
P 0.4335302080278213 1.0620643947503885 1.7058666448799265 1.2702499172888704 -0.2098272147719096 -0.4329053810164544
P 6.634968277882266 3.237550841687184 3.3377571443646126 -1.091172839215624 -0.1418999548023169 -0.5829377351179186
P 7.160057340226655 8.454511397054254 4.5742534867243405 -0.4787178113648787 0.6491984060183658 -1.8780476488732623
P 6.057886128570264 7.126902869960463 13.461876455879716 -1.3276102003758943 -3.756895939270949 -2.29758663588514
Ni 5.84882981267532 2.9388802727333947 8.266071966094007 0.09560364283893856 0.43681757158666706 -0.3931288724494649
Ni 8.236755303307612 2.668075157650458 9.578774998395915 -1.0145336532943303 0.14177448496804615 -0.13494486364072242
Ni 4.401368062460282 9.077783666582093 6.400283593849764 -0.5757062503664859 -0.5257733700917849 -0.3343097454287275
Ni 8.240493124081704 4.346029625899855 0.22250592949531858 -1.4134716762264043 -2.628584800442131 1.2520097401317598
Ni 0.7086543750152209 4.30093281826044 4.5397328429652175 1.2454590834974357 -0.1363088338677846 -0.6520788128899544
Ni 1.1514543785627893 3.9862737209454737 6.6726006574358205 0.5772393991815606 -0.28855439357048374 2.295067983228344
Ni 2.6770365829563425 0.15737720587235293 2.3746982773679752 0.7447665676336787 0.7770483104855198 0.05860341146550553
Ni 8.017354568420371 3.3076256366494667 4.84837498328909 -1.2867049775211001 0.45963765480497615 1.971258365999992
Ni 1.6875980458465538 6.288920830616866 9.740378745108572 -0.7068361111364924 0.5202187588221427 0.5430681526164906
Ni 8.505719541659309 8.804726514482768 0.3241737200954167 0.9264756840131333 -0.5975629412302612 0.5581265896115097
Ni 8.636963773589601 8.958958344173721 6.061033373662049 1.1733761494882566 -0.9909990605074996 -0.19712802203768628
Ni 2.8646658412638057 7.489901334436368 0.7650235156541028 1.0576106869894624 -0.3006843440647983 0.17407242576980342
Ni 8.234559333602833 3.3596934800325626 7.139946930006849 -0.17498131073731799 -0.5305072852323445 1.7981328775244902
Ni 4.510241437057634 1.789771376706348 1.1454981611592743 0.597486836576687 -1.617792359357788 -0.5150896651256935
Ni 0.00303417601336886 0.4244174009805859 11.82478945106385 -0.5453674901736285 0.4478427190525771 0.09079670836859846
Ni 2.045765376971947 7.5976066400418185 4.2109046015508635 -0.35088307640637634 0.44631651221603785 0.5385900622404789
Ni 0.4589445859260636 2.7219745332128586 0.00536283835562793 0.33226263309171167 -1.1690065596656514 0.3183894746540452
Ni 7.989105987920174 6.410278526599685 0.15404306974186321 -0.6262639087093795 2.1412751336431834 0.8323452832856116
Ni 6.1873268619770565 8.825153705013177 0.6492192868863903 -1.0136908456780604 3.3111913496072978 2.374996381423871
Ni 1.713519832914879 0.6046700699903794 6.37835940609933 -0.8283839846450185 -0.5078226991506352 -0.11926241990845911
Ni 6.903381187669784 5.057028548995626 2.2516632343127827 -0.2031279483748631 -0.5501227454704268 -1.094821748822121
Ni 6.3309152470137855 7.531540657859749 6.248828030538765 -1.8495251159535373 -0.3519835085594067 -1.0174089179595962
Ni 4.191863208072447 6.022526344047357 12.622346024280452 2.1222754526122287 -1.5970273588962947 0.21934518156467384
Ni 0.4084316759849896 4.77325319582659 2.335910911195227 -0.3711634239219672 0.5983291299723245 -2.1896589242632096
P 0.20840406616986448 6.320617550781162 3.8442187768813154 -0.10496888610392245 0.9546847994574976 -0.3850682069285175
P 0.13597818194067848 2.0380561216253827 5.892495034958259 -0.20572604811934248 -0.3502521276905968 -0.7892965317252536
P 3.1913607214713475 7.88981077905643 9.968492340220221 0.8911937208823878 -0.5805818332912324 0.5816892074227982
P 6.671972703545773 4.598491385533937 6.230665024942261 -1.2453384987591714 0.13317723021733838 0.5783385457830104
P 5.801957540168211 3.012057458938173 13.565655180761983 0.8334912239645969 0.6854175362514002 -0.423237004688755
P 0.7182484264871204 6.493388971511611 0.06233657150471921 1.9071075423536965 0.9533146585828485 0.9215623058719161
P 2.9405529475298007 0.22537470693943387 4.600525694490237 0.42155370344906107 0.19072623227640054 0.030396095793354106
P 4.829871836002143 7.504170465241463 2.1894752411838336 -0.6151950524897276 -0.27972805352810537 -0.2718131695564029
