# total energy = -340877.0761064461 ev
CRYSTAL
PRIMVEC
9.21950677591014 0.00000000000000 0.00000000000000

0.00000000000000 9.21950677591014 0.00000000000000

0.00000000000000 0.00000000000000 13.49368008856933

PRIMCOORD
 96 1
Ni 7.350694357914989 2.2617017574365312 5.084459368969302 1.1182375566429 -0.3746616668832128 0.46216299232999114
Ni 0.996370542317413 5.935878059026398 11.542939641047528 0.44239892232918643 0.16208131484619828 -0.42070883895026256
Ni 1.3419176583701984 4.3994933430547745 9.559691882597322 -1.2231007704068935 0.2102509325728895 0.49633809554980324
Ni 5.927921624630625 4.690737563868741 9.78553568779913 -0.6196152930446104 1.2293752905616957 -1.083878619547056
Ni 1.6018616534904837 1.0564448488328866 2.2413404765986824 0.1710529222171893 0.4166410966387921 -0.13952914057729518
Ni 4.927844840566862 9.158722623176349 10.82942080247517 -0.06153009819399727 -0.7247096489828034 1.1998785666541594
Ni 6.314228180386435 6.2832506374318635 6.466144448107433 0.12466687875348205 -0.9478518356960643 -0.502743999076147
Ni 0.9001235007476943 5.153326319150185 5.058592198651552 -0.5478653168948178 -1.5241126730144396 1.6294499982013744
Ni 2.985608214356186 7.174684752990663 1.481781264810091 -0.071584911326838 -1.491176327297735 0.1307915035939812
Ni 0.5611056394331313 2.4935354762269086 4.204171637170049 -0.20875197942985985 0.6517854500192516 -0.3260606180460578
Ni 7.059191990909734 2.323371038633892 9.81564014345674 -1.3146546686564906 0.937547882666895 -0.9152826435107914
Ni 7.066659791443425 8.214617465087944 11.101317888202777 0.7636430928232074 -0.10566874038442448 -0.5871384034628275
Ni 3.51962970856978 5.667129434881822 9.83978050014491 0.38232278297289635 -0.7425855008219598 0.27098733122099783
Ni 0.5705242876124144 8.505326954505671 10.608609926052795 -1.6114157664074829 -0.19046089443015585 0.11142184081811778
Ni 7.58941504830866 2.407222453268366 0.28195464573032836 -0.09345111527231002 0.04915794978188953 -0.7093732757360492
Ni 5.295601748577255 2.689827996181014 8.261343769612456 -1.3108034132312005 0.4317913220166693 1.2150773858817847
Ni 2.4789686554327943 1.9462286726688094 13.451323160122818 0.37818459243480673 -0.4176973058174484 0.5754740797510218
Ni 0.44068873875338116 7.784094154567215 1.5637011927633202 0.08631424711721265 0.39382435585459274 -0.013424243825705914
Ni 5.983146470552615 0.5388027304565227 2.8115430034226696 0.26168302310093644 1.3667159081281042 -0.42284645411855565
Ni 2.8086397807213617 3.3026486152852996 8.016918970342001 -0.2742716583992244 -0.21341390368190344 0.4674203840741885
Ni 9.087077835587067 6.853873573767377 3.8287782116509432 -0.26910425526567205 -0.9064820145000261 0.4343104888940972
Ni 4.118261506660052 2.186055703882286 11.575594212294789 -0.06212248036235753 -0.06531321938551331 0.6842417707757441
Ni 5.2604385495210835 5.970709355836628 1.4775310721606691 -0.9592065985872512 -0.7021297067997585 1.6337586528790573
Ni 2.291794227735258 5.2318396393290945 3.274672943755135 -0.7349169285331085 0.7898706590611687 -2.86301592980565
P 6.539709658969759 4.5875897214354815 0.42691571749747786 0.6375322825343472 -2.1295678725085843 -0.9194609432581972
P 3.673770643289271 2.1099578944932866 1.9095046111060276 -1.6678255126557793 -1.1239770302298384 -0.38298792736072107
P 8.65114267455612 6.235502811550396 6.404910327632528 -0.20416358872822904 0.1267705553600462 0.061221308704326814
P 3.344643468903775 3.3792442780432124 10.144211381580284 -0.22481571776094186 1.1841606416982702 -2.1561839324342156
P 5.422102601815256 8.092348365485702 1.3087975020279352 -0.18140289799294565 1.2098999554459036 0.02992866923863233
P 8.122164250579477 4.295617159581809 9.387391285271397 0.41600500571669 0.06644064812173718 0.05622128438657414
P 8.773909627527276 7.498095833140494 12.691548211874366 -2.1096276819412316 0.2285232485195161 -0.4960984687351714
P 1.8330223482821455 7.75305207506482 3.3253553386611374 0.7267148523382904 0.21478918676287526 0.39303939805945215
Ni 3.451930869904476 4.172997718719961 0.991245418469661 -0.3573792256536813 -0.49715544924477606 1.2631755269405922
Ni 7.851544066548062 5.953164634335868 10.978782344853098 0.16028179974361428 0.03819142346805681 -0.06784318489621864
Ni 7.105547671259611 1.7356366976187099 7.447337838278472 1.1306631840007626 -0.4494905390686452 -1.1571635442841361
Ni 0.6306751160345911 3.1515593373271074 1.2467797234723355 0.27382582911105746 -1.4913228801779284 -0.3370842228500711
Ni 8.185834164759319 0.22818555993706663 9.078858645246592 -0.13726374158188617 -1.0978258257557674 0.10825835548847162
Ni 6.652731593219789 6.6935740084842985 13.261777475268165 1.380557441996887 0.20781429810693888 -0.9691899350522083
Ni 0.23168805058243624 8.466107172443543 6.954912914988222 -0.004211724088502424 -0.27590379468600873 0.4924657570785905
Ni 7.939590356790967 6.765974795633778 8.71965651762535 1.095435728257036 -0.7305545377993548 -0.39809392976422403
Ni 4.2469473830171705 2.5876389824582526 6.24634587353518 0.46425535608264556 0.029252469107214133 -1.6109272568068387
Ni 3.0201721454682966 2.191541310447158 4.060248681872151 1.1854665049938873 1.2474514313371161 -0.3135509156148213
Ni 7.9292184116052855 5.510831135563709 1.8799662331678866 -0.6211013906718336 0.3461838711584941 -0.22458483269705837
Ni 3.6984789215982747 0.8364194743925735 9.079168420676137 -0.6241386348362606 0.7174311130435193 -0.8155562367527309
Ni 5.5889295779351915 2.8029236864856966 1.5949396477612297 0.28978698042600415 0.7831315405651222 -0.32366075035531355
Ni 7.481012086981321 7.908603594329564 2.4445559242327244 -1.4952445838298378 0.2965286700252119 -0.8524042588190158
Ni 8.21100341840991 1.2246731899912424 11.276763259309002 1.3050307724134815 -0.20835654376365406 2.4275864968157608
Ni 4.752397625559271 9.14478272884679 6.685335457179476 -0.2754515376399385 -0.37904076978751494 0.44914523991408456
Ni 8.68259041235911 4.46038818567827 12.757074012779434 0.7064800133486543 0.4639763913896461 1.0917341110357326
Ni 9.20242308555869 9.201390500793538 3.595958005629572 -0.8160892264380656 0.13584706374001768 1.0759634784650374
Ni 1.8331145433504628 7.42363909596754 5.650977780863335 0.1469190052834631 -1.1011410061719293 -1.1482765262071515
Ni 2.244424401633892 3.899934365378142 11.925701296426542 -0.01224899257068213 0.4297742915866405 0.4465147442697729
Ni 2.589953078673014 8.024704843861386 7.95907209667707 0.07937458257458589 0.6567762183656236 0.7651302188916952
Ni 0.4391094372331079 1.6480329437037267 6.47845064582641 -2.140055145193153 -0.44735266679003605 -0.42880652835673244
Ni 0.048474323019806184 2.2749501887537096 8.84347449437532 0.0095750452829448 1.4392171606216246 1.4651734754760701
Ni 6.842284653679907 3.9314742982494484 11.576200855844316 -0.5155277811043767 -2.420055478546039 2.0783687239269493
P 6.011431917512326 0.2057443583579822 8.96798116828562 -0.44685541543864327 0.3166182416862354 -1.048793860028781
P 3.0251414596505923 0.008485634087913122 12.26628186414908 -0.6849567945648978 1.2842068936895947 -0.20842519221806038
P 2.0553230970085266 3.206507598044146 5.961616156248504 -1.106930616270513 0.037610354153606196 -0.5847385357720832
P 8.247033251108263 0.8854395922168172 1.971912374800609 -0.5743497363385915 0.774923293722717 -1.4480926087343833
P 4.467883644732457 5.041005067419367 3.3532876785091936 0.9581480754157498 0.29815257878188006 -0.4522601313939824
P 1.3522711645422176 6.708057853716927 9.456209372066072 -0.70929485708963 -1.075910513739915 -0.9152602749132882
P 6.0274462008790195 1.5575527036572476 12.066237926865151 3.216710250408576 0.06632263448663417 0.03058790008918603
P 6.150074861247699 3.8105604661514687 6.255278653704431 -0.2806395095987812 -0.007416347068729163 0.97144119298023
Ni 6.555668625295462 6.321742078454285 3.9319638540622126 -1.9848517884137105 0.23286147088355377 -1.6592501122819425
Ni 2.526098774356536 1.1078251604060503 6.84727332882655 1.500861415795983 -1.0763198333631914 1.504520866925441
Ni 4.6999109731663005 5.0073077699494375 7.833918213387184 -0.5588554973577343 -0.14044471041302908 -2.20293610098809
Ni 0.3211375497651293 0.7194967668020443 0.14527269109806154 -0.09834649569139836 -0.4858451664382794 -0.24092265062513343
Ni 4.65680977872802 0.7574599300830089 0.05820274662863487 0.47418958447722204 -0.5053076460382652 1.5575899788362788
Ni 3.5934687387850084 9.033069964566865 2.64280482353652 1.2016801386392724 1.3443982184675105 0.7543768370299331
Ni 9.200625281726504 3.770160587214881 7.151596342031992 -0.026064301187219627 2.6809743697874406 -0.16376307342399538
Ni 7.18959269553755 9.157985062629809 13.357070297880801 -0.44363999382513913 0.004666809348050027 0.7594989887478468
Ni 4.269765662425672 7.520370161645925 12.83115367212297 -0.21480101383741715 -0.7743147136044406 0.11584696646900695
Ni 7.6380571663528025 4.73023393113582 4.864835965026852 1.3056072137422416 -1.2797658271991057 1.0006646086217217
Ni 7.103593135811287 8.332802323163735 7.142717956953049 -0.5027064609699923 1.2380951869331969 0.12700735396120064
Ni 6.312559449649894 8.376714834203206 4.869868893806286 0.0018815332934290177 0.5925827144068505 -0.29035313734211926
Ni 2.7296562656940346 7.765913287095066 10.620241255871688 2.0848023953674355 0.9748268216230115 0.7362410466611707
Ni 5.57550597598821 3.230542852354435 4.14681063151515 -1.8451005045232802 0.5320913418900126 -0.6577187847845511
Ni 3.2833706265001776 4.876999260389938 5.163572879042956 1.605031974368326 -0.30120396401369415 2.805475926607652
Ni 4.109576731224574 7.228351502258093 4.403109233634174 -0.2279540062796074 -0.4197768140542964 -0.17481367481120216
Ni 2.097373267667992 5.708414386474255 7.607763710805144 -0.3092090937063578 -0.701216708067186 -0.48985120227387896
Ni 1.563545383097864 7.714108878207644 12.979463268771399 1.9805385057503377 0.6634598010333864 -0.09689202263305895
Ni 4.651692952436417 4.664194603700226 12.391907786188753 0.1709197390734347 0.7776154958428995 -0.16940587353206954
Ni 5.538830777811636 7.123977465416216 8.706203413256505 -0.6466679262870282 0.688304370880892 1.0479708499068532
Ni 7.622918736135123 3.079831574176343 2.847369085020042 0.5978275077455576 -0.7485928833583043 -0.7491323008015421
Ni 1.8790276873724177 0.41138822409149867 4.799094427661922 0.11707878199357902 -1.0343110930315735 -0.9220891249096637
Ni 0.9948124456628527 5.451125609321504 1.0118307333235206 0.5167104885585683 0.645129892375947 -0.024747382148008992
Ni 1.7852468638801837 1.446826426608316 11.006970065040392 -0.30614433873810504 -0.07526390284032199 -0.8507968051225798
P 0.571472974865398 2.609470774635761 12.511272741139003 -1.2750810201289267 -0.3286553753564275 -0.0963574902858276
P 3.7456366990425116 6.782781956588001 6.528850001872678 1.2854047706524379 -0.030690487105321337 0.5856029406549076
P 5.489027001906696 6.536206246373706 11.263053852650236 0.14022565242368754 -0.24322507350606498 -1.7000599472094529
P 8.070055597966608 0.31477148029782814 5.4761805410873805 0.4657463388058753 -0.3947435252347524 1.0827049109539288
P 4.739379681912885 0.8076665984364949 4.632879626795613 -0.45587895909349224 0.1841087269598829 0.18681224193397505
P 1.2071192489836515 0.6173870408380363 8.640786402532052 1.5896997148866299 -1.520832459601271 0.09108801435677215
P 2.7601728333070206 5.7228336951590615 13.231335585660515 -0.13719509312747985 0.9882842326794979 -0.9456124048425845
P 0.1921667906469113 4.3611586336484915 2.9021126726854165 0.6349938323832096 1.1154096002758018 1.8054767194840715
