# total energy = -340887.4920757444 ev
CRYSTAL
PRIMVEC
9.10228140015819 0.00000000000000 0.00000000000000
0.00000000000000 9.10228140015819 0.00000000000000
0.00000000000000 0.00000000000000 13.32210890184053
PRIMCOORD
 96 1
Ni 6.470247491464615 2.0598735830961723 11.457213605890654 0.9937807370176949 0.8014167120275553 -0.18486977349562356
Ni 4.699917479060344 0.6076136912281405 6.09036195762178 0.4531343064688196 -0.34340348019987954 -0.5641527412009316
Ni 2.8907207251642646 1.7338025572270757 4.893370085681819 0.7257807705597953 0.5145582181022558 -2.5629018564220245
Ni 3.770101231549528 4.249927994486452 4.579808325113001 -1.1542535697261929 0.4444529766447378 -0.008695985112101153
Ni 4.109780168081448 2.473381123899767 2.3181799445488256 -0.568000397081796 0.5936844321114614 -0.44112236960960804
Ni 5.233265656510578 4.557849071284199 2.2424043622900074 -0.013675183494247416 0.473657623233152 1.2249722763979936
Ni 5.90708024021411 3.234177108468807 0.1442101745848159 -0.3662847556734273 -0.1845941512367337 2.0630848011846856
Ni 5.901354905226206 8.490116547896504 12.40193756984533 0.8694303610633671 -0.816148104700459 0.46745715084939493
Ni 2.5810247034974543 6.531933652375619 0.4197171171609047 -1.2408267269317468 2.129226430008765 -1.093442351976091
Ni 0.6435959197506854 0.12907034996577033 0.32925591412389377 -0.027145707176856472 0.401130916818335 -0.5545704968291352
Ni 8.028193972433673 9.13177277148515 7.057440214417142 1.1284456075241533 0.7781795958764857 0.3262117989119414
Ni 0.018108988805141047 2.597745594392174 1.1913093176745424 -1.0817476892469822 0.45575348925922154 1.0245573560789192
Ni 7.152190412440322 1.003198839994881 4.606358769669782 0.5626216492683859 -0.9210619691967298 0.4578013729271858
Ni 0.9165360189776667 7.706246280029634 2.2121365460177103 0.39787384333361797 -0.8480945757000685 0.850754896141051
Ni 7.741226347372261 4.033739709434477 3.9442369766267604 -0.04466854655196823 -0.6003065654136694 -0.47256773260308294
Ni 7.968929018369702 4.105975414464686 12.777234643644602 0.6283210483487244 0.41410136093607386 -0.5897280185668746
Ni 8.085993459195498 7.486435286988492 9.154367364554263 0.5015831459988265 0.27590739423043453 0.004579648950882436
Ni 7.274151880648457 1.0474541320635393 0.232503214197155 -0.3519665392785422 0.009410237570306373 0.6313811753312869
Ni 2.1071963439898282 6.377386016827748 9.018734269713647 0.8427111999009681 1.8055872769200065 0.20798656201874502
Ni 0.5196101041636796 5.3716840494534175 1.3691260253417716 -0.5720719960480083 -1.1555818016193131 -0.418718290882795
Ni 6.690804871578902 2.071078491474724 6.768977084525026 -0.3130279532318157 0.6276111667658932 1.1919274301278826
Ni 3.8104425426248665 4.707754543328365 0.1868461707960052 0.661651287069738 -1.3984600333089205 0.041770656178882905
Ni 6.466078646592661 6.021268360123883 4.749504887561297 -1.2542962221730916 -0.2792230888672288 0.11683272742104395
Ni 5.641047862326269 3.255057741954102 8.997499557482678 -1.0706973449700914 -1.2232468090664543 0.725968203980253
P 0.8831297360856092 5.89775950408118 12.528097920453973 -0.2746357266068625 -0.3382615309876239 -0.9977443496511333
P 4.598536269051969 6.542501401057583 12.121946843461545 -0.30023620078378616 0.1543582351703277 0.7607462308913867
P 2.5367330023032766 8.694790447003014 1.2942788757836945 1.791527713503147 0.101015043662497 -0.5430866645592518
P 6.698632833565544 8.118552319691092 5.822494559807769 -1.6228029251985019 -0.2410072399191398 -1.1241618925471348
P 4.774292220214809 1.576569748672159 12.867172465502273 0.258768934777935 -0.9248111518265169 -0.9503483768656731
P 4.4370891042182 6.401570778453914 8.149786798245927 -1.6617759640275898 0.5554109904525596 -0.6097157745427113
P 4.832200934353189 1.183414909033829 3.8023433326531073 0.8658390441676831 -1.3591938887194464 -0.25372700147865335
P 0.30999366626793023 6.01407755783383 3.484557203295918 0.20550056237209768 -0.10201186035812754 0.30943123701949293
Ni 0.8783173599201013 0.1082907518037917 4.558185855695252 -0.27382042979441873 0.2492442831169514 -0.7372358064742723
Ni 2.158524108690602 6.61971605400255 4.734823817923796 -0.24574758281760256 0.32745852683484894 -1.5619343718479035
Ni 6.090463903173234 5.790671163647661 9.265180358528402 -0.20839356764917658 0.0035128982492649177 0.8501488871259358
Ni 8.838606492804082 2.6523410781083014 10.263445762015424 0.21839773004973997 0.8587674820328822 -0.4255530544164413
Ni 2.741206651219431 5.7837534297990025 6.770922242055892 -1.0721443618292632 -1.3558614819121038 0.7658902369861713
Ni 0.8528764834635195 0.20605926633251778 8.818862734263128 -0.04046504999358192 -2.4565803129449497 1.3349838671321461
Ni 1.4778828139522098 1.3105555753470788 11.33599579407125 1.3502155964802358 -0.1347474029179357 -0.5049250658878659
Ni 4.526901314592829 6.93389039810823 1.6381130037654992 0.6755812668872687 0.3865782158151407 0.0853354281437111
Ni 5.9910942973497985 8.401624168321947 7.958534213033954 -1.8976086017243254 0.291934108675994 0.9106407738634058
Ni 5.660235471474919 2.8955449342955664 4.825187626550042 -0.2129675601731042 0.7357543368327393 -0.1909334631912002
Ni 0.6593883779446637 7.704953756073699 6.568545758769647 0.923955488694441 -0.6000193731905538 0.04788525371705302
Ni 5.010159637609943 4.946716736392636 6.613175154603016 1.303770160533503 -0.5263901777401773 0.33623910124095635
Ni 0.6718211840813524 7.5183205786619824 10.97475355295055 1.1539653490618127 -0.663428947795451 0.1646670732955035
Ni 4.7973027875429795 0.8418754661878758 10.404393678953715 -1.0495952728841536 0.5278125120090007 -0.44377960472679695
Ni 8.193910107234577 7.562939961985833 4.315257798633795 0.9357311411731304 0.8294877592321586 0.36667504913331045
Ni 7.071962904358636 6.434602957581262 7.254887812336218 1.2352047527592793 -1.4704403803019643 -1.7856128906806086
Ni 2.6798845815636203 5.393311070011857 2.546294948892772 0.7546696856800035 1.3555879165357427 0.43998311379884225
Ni 3.0368760572799474 5.435045030138307 11.14226556786769 -1.2304615816473388 0.24731312753250956 0.2341948449829967
Ni 0.969329250980591 3.993298273263961 3.391968797100444 0.8059997034125473 -2.002837426357854 0.7493847831319803
Ni 1.6695495529669648 1.4204292138828203 2.4310455029741123 1.1429877670043864 -0.38433441408628644 0.3883286228473441
Ni 1.0851648838201111 3.8116622483297613 8.016712354701177 0.8016661090342 -0.3327683690835366 -1.47057150656319
Ni 3.830949982573588 2.8760023361731046 6.9112439220352515 -0.45574911838384735 0.017834971298891864 -0.36357301316921903
Ni 4.401453672616225 7.231453078695747 5.8311535600843865 1.1261413848710091 0.6149446270418184 -0.10003545335804707
Ni 8.440026693463384 7.109801088054526 0.16555957556117093 -0.31987480095032006 0.6420111442413072 -0.22563487122812756
P 0.22205652585754185 6.020321722860382 7.870342208744931 0.12767404101092206 0.015276466543096274 -0.4881481035398432
P 9.014553591875899 1.7878245972162752 7.989042329534678 -1.1939658007141503 2.1248766376805017 -0.5035826929273586
P 1.9238126810307044 3.5407237407782013 10.445106363109348 0.26168816530725897 -0.34833717005607107 -1.0413695425402516
P 4.316866171753609 6.259356734175692 3.7443918377922425 0.9081120939042812 -0.33181680380354467 0.19921421514275367
P 7.329785024441883 4.331256878615095 10.224892139003082 -0.6305514803411398 -0.048994941841464 2.904143553083895
P 6.61237961521042 8.543446814500836 10.360044633386844 0.22025818029724648 -0.8731216938720253 -0.3286867428149952
P 2.611135050301881 8.514392332336469 5.7710976177685085 0.48565567613529265 -0.3022648011780407 -0.31999050059257794
P 7.311889939249168 4.186130104295332 1.7061762230112005 0.05866717482390542 -0.6439150461322395 -1.0075204552012906
Ni 2.7106958040342928 1.5691331847848504 0.12008639824389337 0.0055271004658162875 0.6964534823505877 0.9257732586294701
Ni 1.7330379655911714 1.082024596744075 6.658656523973535 -0.9108734586995022 0.41756129446021634 2.1163940541307875
Ni 7.154784562633569 1.1622430025443806 9.255907864486785 0.2356842850443296 0.42475344133328136 -0.9988584086509184
Ni 2.4600917930852386 1.9145101494605339 8.86446425374786 0.9957530302527173 0.33638771100367876 1.1011194089053746
Ni 6.705113657907971 1.8009136778404484 2.389186841592759 -0.5397308607131414 1.8989502033538843 0.41496576581889827
Ni 4.600693509738986 7.609379801585647 10.074071887680244 -0.840235998887598 -0.9447004345512762 0.7017579252826365
Ni 7.590356033501835 6.324683807638621 11.309337942594187 -0.22198364762878545 -0.37869804173611554 0.048016379978278595
Ni 7.703342652269472 3.8457775989413068 8.279304070227447 1.7513804518603 -0.20861931050673746 -2.5642421725000033
Ni 3.6189851560818473 8.656660990302969 12.410024036623158 -1.615312530358728 -0.38086882413518924 -0.13608823321654628
Ni 0.3598696170886241 5.129790921784846 9.80616443982816 -0.7802475341491079 -0.10611894054796563 2.469743075579153
Ni 9.009438109740442 2.453292388894517 5.825811431142574 -0.14135436671149204 0.8735220146342375 -0.4773556409100295
Ni 3.78474680228965 3.118104816313412 11.507663910666412 -0.7828600320712904 -1.5998020934279544 -0.10982261465179795
Ni 1.327376591336976 3.6006531613829007 12.858752855225944 1.0968176962062273 1.020943413475416 -1.496240372084204
Ni 3.3447880317963135 8.504225084035216 8.044302279791532 -0.36208383021820223 0.06779433393615421 -0.022913414263063762
Ni 6.012794136159275 8.20711751751669 3.338973494450888 -0.6676743533353662 0.4626090787284742 0.7339255111541167
Ni 3.4783367042009528 8.286434797460393 3.3841754237830473 -0.765861697741081 1.3904518182924632 0.630587475785398
Ni 3.5907316746789024 4.352210330351428 8.855311909820456 -0.5770252262882256 0.3623509678366598 0.4315583800702567
Ni 5.496503634014815 4.560352198663648 11.616478953877682 1.4858867967640215 0.874512917792597 -2.0104962284546923
Ni 8.195812484042959 9.089419856224874 2.2869136080091623 0.12936994065610624 0.2542563916195621 0.4368229709033058
Ni 4.870212061395295 0.334496097514253 1.4051091640924545 -0.2909971986840214 -0.34018497326258185 -0.5421950059829179
Ni 6.079677699738153 5.763955967797906 0.22798393149207707 1.1116701878380275 0.9300515742898497 -0.11716208573600467
Ni 8.267283597437263 0.06813057612791192 11.670300743676526 -0.2616398285678268 -0.8175786664993984 -1.2174983366184515
Ni 0.26763346918254927 5.3542440783296925 5.662535617979597 -0.5600299772818098 -1.020037870942011 0.4280267127679145
Ni 7.288615405760982 6.284551849035019 2.3656465214882827 0.8572209634813689 -1.1542430282032314 0.7448200465794333
P 8.926061212301342 1.8673512296317147 3.413590356290056 -1.0547986714619642 0.08482840660030551 0.9695863991596787
P 2.374202665985308 3.60607812108527 1.5358397701819029 -0.8808473446510572 -1.5845179135753744 -0.3681873720127788
P 4.6086944150718425 1.3069419696392923 8.215158472887618 0.7633353317748015 0.4841310119606501 0.15582479241352518
P 8.858558693588636 1.9985606157217417 12.361144785613552 -0.8538458763615489 0.4758608015320579 1.4012869612347543
P 6.682021170047381 7.923117236185095 1.1999519338446762 -1.3464712989464553 1.0366651950860468 -0.712799784919095
P 1.8995642034348783 3.561804624453852 5.732996378140742 0.4592797572449251 0.49191168434733357 0.3187926236297349
P 7.148585909013915 4.292399239404667 6.080597030157515 -0.5918712901621226 -0.2533999571565378 0.1428270946022766
P 2.4643334562082315 8.69104940935591 10.31181892618031 0.5259659457185651 -0.3478178072174913 -0.7125071933793407
