# total energy = -340867.56693746714 ev
CRYSTAL
PRIMVEC
9.25112497862956 0.00000000000000 0.00000000000000

0.00000000000000 9.25112497862956 0.00000000000000

0.00000000000000 0.00000000000000 13.53995652426999

PRIMCOORD
 96 1
Ni 6.240004191736216 2.0034329179223924 2.6434054047018756 0.21657687479091733 0.5893043007658948 -0.296536897555328
Ni 4.7194152498073 7.127427624785672 5.9436073924172454 0.38576111923048406 -2.2577363366574215 -0.7768264242827008
Ni 3.0337677325967265 1.71620398364681 8.192364422933046 2.4118634296535495 -0.10391936179348554 -0.5367378395230885
Ni 4.555263284792293 0.2938416385470392 12.94801725514343 -0.8494202364900275 0.37772333652767204 -1.1729328913032508
Ni 9.120369766765378 5.587392817749592 5.747576050066704 0.2690744304690011 -0.08886401012225986 1.280226568885608
Ni 7.279136826447141 8.640634168828994 3.3415526669998648 0.06259402068213736 0.630673864851617 -0.4693055169120434
Ni 9.095937545191628 0.152781407068662 8.140289839351585 1.1065351806043073 -2.0350818882138566 1.6248315255927568
Ni 8.019300849041858 2.1200896063150454 7.92669708609099 -2.8879101219441683 0.8434583624796377 -0.6502651567199834
Ni 0.9605998331435001 2.3006623185066553 8.01763102094869 0.5139642932719987 -0.08650656563367681 -1.238561585046654
Ni 4.513994015409294 3.3911201956602803 6.951170562485829 -0.6337381055992376 1.6040133032958246 0.8849346273465534
Ni 3.4880164806899905 7.673752821695119 0.5120932584432037 -0.30635208387353696 0.36394479468634094 1.6179818496607747
Ni 7.544357333943491 4.628661711890414 4.02701293623983 -1.1174124896384434 -0.1422066874094583 0.8392378966403871
Ni 5.770084037605112 3.6166163716770066 11.027170981837921 -0.25197762288771436 1.1959697185180564 2.751472218697687
Ni 0.0923502821212133 0.2625293551844212 10.969924094173956 -0.25616569282713303 -0.14159913573244648 -2.0442998072676986
Ni 4.868672903298742 2.778279408779129 13.44246954300012 1.3638357583668317 0.7214417768648091 -0.028609693316892663
Ni 8.760510248780777 0.7033426941934147 5.947669561479356 0.07940800691568259 -0.031149171909294747 -0.6156331684684108
Ni 7.99576598660959 5.936854071043205 10.936127883703215 0.5256939230041011 -0.40481685031035447 -1.1358616974825664
Ni 7.203943681066056 6.932173376949405 4.867533164677807 1.0022270680128353 -0.4245960898198107 1.421323053950023
Ni 7.904300112054622 0.8110415180840371 1.3225843345796309 0.7430830092836685 0.19504440003578022 0.7606593276045351
Ni 3.4463124084240047 8.605035839175153 4.635823932996965 -0.0029526548704207215 -0.4492547689087553 -0.9365963173869032
Ni 3.331182155684388 3.974708924754153 1.4107827117245855 -0.5940793535570349 1.3493807592837663 -0.6317724972324346
Ni 8.258803228565839 3.220233411521573 2.1733797877438352 1.074607221547459 -0.3304320076408761 -0.6070824506849222
Ni 1.019455491474512 5.192656557874404 10.95680414845798 0.14802637941502894 0.5566649174643188 -0.33919612698675133
Ni 5.732126671032943 6.719582520544712 3.1462799169132567 -1.2466086237208467 -0.8743985037019198 0.5120351945700858
P 1.016652400548027 1.9567887448156709 12.49953288314354 -0.6659013205953436 -0.3306325536874564 -0.2744732328870692
P 6.439291930146567 9.145394060350004 0.05048431516475398 2.251540235149039 3.7127662959415866 -3.0901163298357104
P 7.229930091668352 3.1053529391615444 0.3096240580869176 -0.7662440207811642 -0.07833817089027154 -0.2575846846618467
P 2.8075592199419166 1.8799303969040007 5.91996706715804 0.36577721990938944 0.9803940312981437 0.06346536754349714
P 2.1193217629259427 6.493411012390582 5.225313029724211 -0.06121179562263006 -0.2781259991483081 1.9102000652360909
P 1.4445076885315178 4.572849673740306 2.6295814483604687 -0.3636300916593996 -0.2515986422817409 -0.5404803372846562
P 2.5825718558095354 8.452438529497373 2.4667634955949636 0.8588124763382048 -0.34877760002759933 -0.3968230334716005
P 7.5588908515854305 3.8396239950230253 9.710153049273028 0.3953593044418804 1.8106757471865076 -0.5050487359499238
Ni 2.4816883358315907 3.6383657669514813 11.887297119848503 0.7805560665284621 -0.494926045693625 0.7320128675124361
Ni 8.467665881527056 5.576263714170182 13.386467856784027 0.6484142195541736 0.43833812199625155 0.05300663410401839
Ni 0.1832971685541502 3.059374847067057 4.147830780733912 0.9147272852279538 1.0015333843799203 1.5161859619681952
Ni 4.033166784702859 8.913052051707538 7.171654478885494 -0.5140743364873018 0.5656223837679226 0.3788042282966767
Ni 5.218374685846773 9.272772802814591 2.0690539240901646 -2.2211922189848003 1.3353227385288036 1.110257880871533
Ni 2.4465525624362456 5.7540703399359865 13.115681872385453 0.6491277006814306 -1.0768487092834682 -0.059152856211072316
Ni 1.663037767295297 0.8159714426870859 4.396600012340598 -1.2077870228679586 1.3778611261116465 -2.4102125243136876
Ni 2.1127349618049616 9.064909271371727 12.139220985138131 0.8930001779635072 0.21177199720310624 0.4696528729491331
Ni 5.998374053423154 7.575709397144339 0.9989318702850511 0.5764747531013944 -4.966633915217692 1.090863021284689
Ni 3.115510674598113 6.326872257081736 3.425419667340264 -0.39562207118496384 0.8108634592627519 -3.341696974395322
Ni 4.42753299957125 1.8701334553490585 4.347598652540582 0.25138369805745736 -0.3913540399372292 -1.0490355437259418
Ni 5.334744589359159 1.4415658307274841 6.3156312148877705 1.491656095147631 -1.1812740641790944 1.4895709304838283
Ni 1.835858036594516 9.152221390725403 6.3979273741743174 -0.5906847260531892 -0.1696781533568497 1.986313203450586
Ni 5.805312322252156 6.715502774344778 10.224752437524762 -0.26496323651410497 0.5684117735876018 -1.0893383571100463
Ni 3.9774380066792787 7.54677187761284 11.688191628603999 -0.025104251266795476 -0.5976333894568805 -0.4580566834711014
Ni 2.5967630818201877 3.096360845496385 3.7865576908233476 -0.5206923560244516 0.6907204365215524 -0.4300164895044336
Ni 4.9762264845241955 4.028633733369599 3.0144412070042534 0.7938039326773038 0.8101528063489725 1.2235861946837443
Ni 6.4167469381074795 6.341609299477414 12.50776545943225 -1.8118330007194023 -0.4192597652085618 0.8749926856424931
Ni 6.561249513261584 5.148648955441109 6.7747987862338785 0.20766697389579716 0.09737050493137424 0.2698372767769547
Ni 7.185876233609208 2.1282583498400824 4.966415666281499 -0.4444293224956539 1.0530721756891606 -0.07089379879708436
Ni 6.42786679056172 8.930499673778003 11.248468072140021 -0.007712281042593169 -0.44934475751940034 0.4183449667037763
Ni 1.046293005592441 1.808437701590882 1.9734213427586647 -0.16173550147100532 -1.132122285044792 1.23076368626879
Ni 6.929980860284134 5.013545523459641 1.7674792700135915 -1.218676930307585 0.7356769466275846 -1.1278665950922317
Ni 3.759666520179433 5.007550794349535 5.059407976489505 0.5097782802151091 -1.4395948556760174 0.9618792603234079
P 5.701477693345008 1.9134749767701194 8.469851922404708 -0.8068684791707458 0.005856201670460882 0.08362513032082372
P 9.034759854442967 3.4257286549209396 6.366244120692386 -0.6402337406259103 -0.8339733058073379 -0.823874269700123
P 5.507555607533208 9.192065986832237 4.6148368304364915 1.2479358271727023 -0.8287228560416761 -0.12963193606824128
P 2.156233752353911 9.059312340643926 8.594853125700626 -0.6032548494087159 -0.7502517591179659 0.8496788894680528
P 8.620827509840202 1.1992418580266786 3.5299749588981486 0.1144068915883707 -0.720651676863346 -0.9076153567735207
P 5.708203261343538 4.107832615949258 5.216037851628852 0.09302868302291074 -1.040200204822499 -1.4631068227550286
P 4.106324682546562 5.277794662813149 11.728960412115306 0.9860764263949017 0.19105636192230965 -0.9823444701562953
P 1.9353446366718032 4.5592505197405275 8.71640180908313 0.0064593824720985535 -0.11394872100502956 1.602689956498711
Ni 4.300033992479454 9.119537165500086 9.571842252195152 -0.030522851179205498 0.10095616540010355 0.9711961668489596
Ni 5.505344588617597 4.656886894783832 9.038056955453525 1.1699876926319979 0.8042464681668666 -1.8586394195499796
Ni 8.513532960119505 8.241263095243678 12.808217026913194 -1.8887748054827793 -1.6989363751279707 0.11204404778314898
Ni 0.886724973099128 8.787949086034752 0.7824953211472243 1.5229165958238093 1.3052192342752038 -0.5364730158974761
Ni 8.140074288135127 3.707138631464644 11.958029372672653 0.40160965622696637 -0.5670922834452299 -0.020853189299925377
Ni 8.979613897305093 4.732246560417975 8.05391855942769 -0.28119872453636086 0.20180871534280725 1.356042230464342
Ni 2.8803100682781437 1.6103803628281295 0.3493391384413712 -1.4257013855233769 -0.4854175919825576 -0.16742226744313746
Ni 7.150675702337673 1.8679224364334484 10.340911415383273 0.08293144668790878 -1.3951628506148874 -0.7365161546994282
Ni 7.7171498498672 6.877656496323084 7.776186830251543 0.0919768447196287 0.9743573381857606 0.8853917694886301
Ni 6.397856140510509 8.498675653096617 6.559946954837659 1.269137400950982 0.6853607148715357 -1.1742112437950423
Ni 3.7661608100487145 3.423526887130499 9.862585688922785 -1.3132709009350867 0.13736787125991826 -0.9502185361560279
Ni 0.9219606586463078 7.16328498594427 7.545912448084554 -0.1638880290376339 -0.21172186069146118 -0.0750147629439934
Ni 1.216809744724351 3.554337797033125 0.4766077925164362 -1.3026969820739822 1.429590693275454 -0.5989263972366912
Ni 1.9801385847445414 3.924086767824367 6.639358613296226 -0.28802268943672976 -0.6534782643406423 -1.8723511127091172
Ni 1.3924793605759045 7.518185900837796 10.011308627379403 -0.25221005061349466 0.6226309399424825 0.4076157532117302
Ni 2.9715909203297146 5.860171494509764 7.2605309635054045 1.2214418946472319 1.2754821122220872 0.15741604816004504
Ni 0.2602221245670439 2.8740933121639594 9.995114532769463 -0.35885143932383357 0.8369588707982232 1.4951867340087088
Ni 2.169333345594514 1.6556923739103826 10.618088077049226 0.9904480731000364 -0.8498143866046527 -0.8114432430256219
Ni 3.3892977240018065 6.045443778287692 9.690885730881641 0.123684974456187 -0.39319597824197444 0.25411395250442687
Ni 8.05487142532019 1.2280406106806303 12.53021423976957 -0.37586700004522366 1.8726730148249104 0.8398727020109085
Ni 0.5663622089149708 8.357087182371039 3.0195866828237605 -1.6541521289337446 0.9362137372365038 0.9319302793698014
Ni 0.1608530137794146 6.12356027922247 3.5631615202201923 -0.2903590508793903 -0.3152154478014378 -0.5360572685162961
Ni 6.752886571156413 -0.09013463764301817 8.672301695398136 -0.6364557616407168 0.3742839718288199 0.9641474875322942
Ni 1.0144136282569072 6.48243917793906 1.3571502386645087 0.5581980662793935 -0.4094661761569077 -0.062359021853195834
P 8.042724697972089 7.832761161115654 9.892834092890862 0.25314413239198985 0.6036294591393152 -0.24411750341334731
P 4.821843707688622 5.762858908847408 0.8558900477952777 -0.7392119563640366 -1.0631701833551108 0.6419676925978814
P 8.073382926785195 6.944625391428112 1.7041932478387065 0.5691386244512973 -0.12154761639821002 0.6548280935003173
P 1.0820671066245102 7.221585576765087 12.444114017813153 0.05566541188310413 -1.041631795062703 -0.4215184793357515
P 4.8512160301031075 7.23686843554579 8.179758839776518 0.6161023947953453 -1.194447111225943 0.7206843298734943
P 0.31330785612957857 7.986995919948509 5.320485830134765 -1.0659474889899319 -0.3748496145243028 -0.11581508478980698
P 3.9326995653575603 2.0487726823801555 2.181246019475816 1.0449408048312778 0.07741514485536989 0.19613043401110739
P 4.398632484540429 1.9368525700744996 11.399574100440411 -0.4049598036461219 -1.0236803527906047 0.47252222407712813
