# total energy = -340855.28001232765 ev
CRYSTAL
PRIMVEC
9.46389602818700 0.00000000000000 0.00000000000000

0.00000000000000 9.46389602818700 0.00000000000000

0.00000000000000 0.00000000000000 13.85136846251581

PRIMCOORD
 96 1
Ni 8.166291939058548 1.5664924928105328 13.132621006219686 0.6893945186212772 0.2887148304077479 0.028219142746693338
Ni 4.848581163262287 3.042368179384707 4.053146364924716 0.3785365764575868 0.09831589956377906 1.0341740532330768
Ni 0.48167919358839123 4.054740085046931 13.043737039379868 -3.2809873152200915 0.7508135451587069 -0.22730608828296334
Ni 5.175568241306405 4.6326339794814775 8.060942685587918 0.011007921074729428 0.23196878386595535 -0.8421545560665498
Ni 4.500129968607821 2.497948085854389 1.840403201725109 -0.5643224340095765 0.1431302276649922 0.001996975825370754
Ni 1.385627972290109 1.6930531768626298 13.34378513685461 0.5921286575885674 -0.7125588725528825 -1.6880647225207897
Ni 6.67724250895633 6.9484399188267325 11.985893951584606 2.888460080910367 -0.9386889382498737 -0.6596232008961156
Ni 6.91715227794763 6.012337552742452 6.826369853527549 -1.271958415339545 0.05014628183708783 0.7152585308722327
Ni 9.598662094743055 6.6604819487636835 11.316595854748806 -2.194033142071505 0.4752640484883235 2.856059810202791
Ni 3.5119667094576186 9.309956476879204 8.675582996237036 -0.6352563420159769 -2.8000624689015647 -0.09683442992224613
Ni 1.7664267641994957 6.840636677068156 5.791021500640194 -0.11913592163292384 -0.9272691264487062 -1.417328330968333
Ni 8.354746504341534 3.5007614563418117 0.9716288860770388 -0.829288755847475 1.1364743913659008 -0.6975372023330696
Ni 7.820263501834527 3.784914940127366 5.6840889373331835 -0.3652030925734743 2.3721278016268244 -0.06607323747998943
Ni 2.932842508515424 5.238597790082818 7.038504033524271 0.6621665361432596 -0.8878263470720515 0.0914446263652425
Ni 0.49900190921607074 4.706868781373697 6.197310350608798 0.18544904303786125 -0.03395938766458022 0.6545923233404276
Ni 0.5744471434338911 4.639883323980387 2.26411697740049 0.3943460326860176 1.452408205390602 0.2504966674668137
Ni 2.5794606239341555 8.999976020329262 4.722083887314814 0.880488932870374 0.10561963231404391 -0.1859000145323508
Ni 5.691502007236572 5.467302305958312 3.4426190635696248 0.7226530235640909 -1.1535706847265552 1.0856148855118724
Ni 3.830909475720964 0.29095423960398187 13.057505115590068 -0.247192028573613 -1.0039751610521934 1.0003884721421998
Ni 2.6497111255208385 7.5268448636567635 11.982846577004127 -0.2531341050896608 0.5521418327829846 1.5030373404013793
Ni 2.7223654567455418 7.441348025271462 2.596244843867334 0.340175203070569 -0.07808645989078165 -0.6856396795645353
Ni 5.382363837449557 0.4507530735446133 3.7518925670724803 0.031172568948062446 -0.4616030060614631 -0.07154711611036711
Ni 5.670889641285367 2.0377661325130885 11.826492601284908 0.3739006203474722 -0.6866452380109143 0.5598903663801519
Ni 0.45665949117094345 6.575041893755657 13.503422138170006 -0.21325680927874888 0.5649045317652917 1.34813994489813
P 6.613522095756392 8.07802217908293 3.0497386617551374 -1.5139095072291926 -1.0987359962748626 -1.1375015470788346
P 8.375434581462441 8.435464075139437 12.618624499844255 0.7729283747798753 -0.7424708296209664 1.436524187170494
P 8.211264373861177 8.423918121759973 7.948483206892705 -1.6083214437528754 1.7046596507649932 2.317701147246828
P 2.4545750495117016 8.250246162361183 0.23662295783663845 -0.30663876187602035 -0.22479437760470317 0.3706378904358004
P 1.9191929768644886 1.4574589445443091 6.910268239842531 -0.7452357939606133 0.1679262036627495 0.9064614456747357
P 6.149952067570953 1.3369740818607492 9.79027192302335 0.24869715236422973 -0.7026593540509833 -0.727575914787005
P 8.901049913218175 3.317171333712138 11.09217564468879 3.2934162850120634 0.1192639625703559 -0.1773924912819719
P 7.873687195955075 1.9031706005764306 6.54581075752357 -0.14769804954133275 -0.8939139480270283 1.5087457036400662
Ni 7.0998149387484615 3.964416659593165 11.41614563262031 -2.4235390662192646 1.6468671652365572 1.03695984350833
Ni 4.11174113193587 6.224555961415467 4.692053998242376 -2.028917411274357 0.3518809215432714 1.5149634024150038
Ni 7.359646209267442 5.645214090860381 9.505543034348067 0.8208367684253798 -1.1909234143434007 1.2815154629003607
Ni 3.5997064912453243 2.5556589249592787 6.172294433749836 -2.8826285618302547 1.9009962872496358 -1.8356542715087159
Ni 5.483334146142583 4.609551536618765 13.421532937020974 -0.5409019982031071 -0.6657190293812084 0.032600816754156756
Ni 8.347856787898708 7.82912170868959 9.959078493379206 -0.9915839864766922 1.37695301247508 -0.35535936701017506
Ni 4.809599374762279 6.9042340596173295 13.011546542802078 -2.074841170389665 0.6003433321888757 1.5876795991328074
Ni 1.5079582947351406 8.791003728057195 6.89688723698743 0.37956707460463013 1.203306618499102 2.0542268365734233
Ni 3.8792889131601567 2.640048487487698 13.262907626210716 -2.2893742752776767 -0.12474709717211419 -0.6732739589103308
Ni 1.5405424893953792 3.543472019949612 7.954563760209348 -0.8634345484912486 -1.3712546765387221 0.3292413297668845
Ni 7.4899451323235455 7.808660765077787 0.9327720210070395 1.4393086918941662 -1.0525199027301164 0.7682307121938898
Ni 4.616980695145714 9.290735303671262 10.939589246051838 -1.1966837138659456 -0.14841435888206694 -1.4878372356221732
Ni 8.428905595064053 1.409448599057411 10.5586768873879 -0.24124429563061034 -1.5274774757216145 0.2595292099827272
Ni 5.574925733688846 1.925230942648175 6.339646403257802 2.8485431901107714 -0.3775220191501434 -0.05556051087412367
Ni 4.464498399367101 7.143225830676 7.254169193197942 -0.10054273201176878 0.03378249576708375 -0.1805793736503858
Ni 1.2423729753188542 5.4791794957052185 10.11745490371907 2.2541789583234664 -4.725103712915547 -0.9318204932648145
Ni 9.15520284600955 2.6296571294461812 3.052592026463259 -0.7058572921629908 -0.3218429804202844 0.5519315165443914
Ni 3.8363228243546144 1.9987275606358057 8.39585483032053 0.6847210244050079 0.6369704964936062 0.007852920385515508
Ni 0.3735456618519929 7.829187955963079 1.870890196984619 0.17696877348099202 -0.6638261832338697 0.0536129002294496
Ni 3.7660912505603563 4.259642901947547 11.47164854473878 -0.12839523544766274 1.6552918989651428 0.5060460668661866
Ni 3.4620351930395477 6.521277499371453 10.091996076517356 0.9612557678067962 -0.6653361921204929 -1.373909597663066
Ni 9.173146393228782 5.983643019425624 4.415844508937742 0.4368419970666993 0.019275046179528094 -0.036753148359633475
Ni 1.3806688906746676 0.5102620529299109 9.491595144109825 -0.9418943325610488 -0.8869056350299952 -0.011474062077870563
Ni 1.827752811657627 2.785915519813651 1.5158246852671158 1.7558706264211696 0.5654313508030391 0.5767033241724325
P 5.160321904507787 4.5392631794472305 5.790522753309786 0.22189880122446298 0.08676753260454734 -0.08267922146778664
P 2.4102272318591087 4.085289542021444 13.455316207331359 1.273703937275742 0.6849513952482591 0.8660758427688374
P 4.642968554145718 6.315740601424587 1.5707313719241898 -1.971344497955895 -1.888838054620547 -0.1008443224125876
P 2.92164671929583 1.322371290004592 10.432421887183471 1.9052008122492865 0.22726752173554407 1.4580090965171468
P 5.690650256577431 2.143222328010921 0.08627287787474139 3.23267628681953 -1.0034252020859944 2.0501534378349984
P 2.363485048464709 7.143528675354806 8.055553943084421 2.7380232922816328 0.5480252395114498 -0.5967142200767207
P 4.844294018277944 8.817729770961789 5.963125292436545 -0.12898967449855206 0.4142358296314092 -0.9764083071775185
P 8.011121896755535 4.756819225584193 3.1404652491875633 -0.84788194546863 -0.8582476049736703 -0.37223505971959114
Ni 4.935904533616634 8.345481349949328 1.5111977864087391 0.8474086053766373 0.589542899139262 -0.020135594407610487
Ni 9.354654458691668 0.4338874641040059 5.718080413360248 -0.8828486913518022 0.45836187341634604 -0.4589208312436096
Ni 9.242251763373732 1.3568861194922164 8.378887010800826 -1.1832191037206075 0.46884863188028286 -2.8085951889629244
Ni 5.187445431053312 3.3161681607135947 9.959147579821556 0.5982679377170858 -0.008897816710262097 -0.2867726190797125
Ni 6.979935765422513 1.9535374562202845 2.0656410924179 -0.8329260954897462 -0.6925034965639041 -0.7463935617141404
Ni 2.968530861133419 4.845013274390109 2.2601695862901834 1.1636843761217894 0.5779173990851918 0.628052625178686
Ni 6.979244900998988 9.400857200001944 5.870653562542501 0.4576818166301859 -0.7241553191412303 -0.707521310128975
Ni 6.560770338266944 -0.020938870370542487 13.809925559251411 -2.0557646133741887 2.1703257711522363 0.0536111004572367
Ni 8.8677653902382 7.750410483888776 6.261774626051053 0.6825972931937857 -2.645044488660051 -2.3628193797417048
Ni 5.7600206158163365 9.511215693737942 7.84008279328311 -0.08416351932279698 -0.22356898983803433 1.9492250403490365
Ni 0.4429983569879477 6.53917372710962 8.297870380882603 -3.4240833472130388 -1.1740274099190104 -1.8385159093272274
Ni 1.661320732861532 3.1717869600930313 11.19577029180159 0.09721623874169709 -1.1559713237482478 -0.9064411339597616
Ni 5.8319935465137265 7.154894814706228 9.197752523381736 -0.7706858586026017 2.6787701630472704 -0.49648619109189335
Ni 1.0504546240220265 2.052085007482865 4.865195979453257 2.2844868652783883 2.0236273665200115 -0.11150205923674991
Ni 8.014055704581462 9.46910135559154 3.365564020606028 0.608033758854598 0.7148620667647624 0.3661700844724339
Ni 1.5323846108600536 7.658809432446299 9.941265547927708 0.18024204491562507 3.3318789598636362 -0.26204966241173583
Ni 3.275615365442284 0.4140359954082998 1.9435823837941724 -1.2710544154680368 -0.22596885752877854 -1.1717990348091238
Ni 0.6526378539430084 9.124624997346398 11.6704149713351 0.1767700272066246 0.6087307849216226 0.15561319062335138
Ni 7.425552782492508 3.146556212790041 8.932262789317196 0.21757523414844465 -0.6341888199834109 -0.055821992065626436
Ni 7.069492615283052 7.051104264941825 4.910310372699078 -0.958528341573304 0.5931480999920171 -1.982151358763412
Ni 6.677886053898792 5.716628651681223 1.5231516337149682 2.0233607431221863 -0.9222397915549149 -1.9341953997094234
Ni 0.7794001189844354 0.331873287658723 3.058271310580485 1.455561406307603 1.415386376750614 -0.40686421975768633
Ni 7.255855659503041 1.9718311675993847 4.439391629104497 -0.33543408884115783 -0.24974024891676344 -0.3456611658858047
Ni 6.767679501164648 9.240652364913789 11.602986603599037 0.35934560535143273 1.2139029059577093 -1.951716953532955
P 5.34430004688218 5.835277518499524 10.72992135740814 0.026759784592347464 -1.6300534361133283 1.170621212450939
P 0.5329167276838114 7.981462046025012 4.216342737605697 0.27981727080780194 0.3979882574242952 -0.624749271837066
P 7.537718880405127 5.22438301797138 13.342552937567719 1.4615891005589214 0.061104837731120576 0.12558450547174502
P 8.257940309982088 4.842363383450559 7.848503768133147 2.407709812496492 -1.294041363281513 -1.3610378839067205
P 3.219626955448101 3.8991252396219225 9.156793726962901 -0.08123143327766656 1.8287683430221604 0.8269922465038145
P 2.1006347950538853 4.754661457247703 4.588986490148622 -0.12003966439411584 0.558866810211644 -0.5740980253391016
P 3.3838823381152814 1.3743753996932389 3.767862891931369 -0.5523369795129262 1.5883033487597353 0.9511091662910974
P 0.13341065213083086 1.6055499924802408 1.1568250318940037 -1.7166834146987469 -1.047234743071777 0.3341359388550245
