# total energy = -340893.8964929004 ev
CRYSTAL
PRIMVEC
8.99147491974234 0.00000000000000 0.00000000000000
0.00000000000000 8.99147491974234 0.00000000000000
0.00000000000000 0.00000000000000 13.15993241726207
PRIMCOORD
 96 1
Ni 6.295785730809252 1.9536586633787778 11.183007473654023 0.18724650125791625 -0.3241847411795836 1.4483173231506798
Ni 4.680341393817251 0.33850654931932006 5.975438364091838 -0.5057221078678644 0.092581311072847 -1.2354212396454594
Ni 2.68313701775228 1.6383096575290617 4.543742907934813 0.8618458638478899 -1.570856871148514 0.5794520905621634
Ni 3.505146639780876 4.207668552561728 4.59007867526617 -0.2842879049846459 -0.147186657122553 0.11558779927034932
Ni 5.207349717575907 4.636570894259872 2.611391342502034 -0.1668957055157061 -0.5922194175301607 -0.1738191721084168
Ni 7.106888693847892 6.040418853666865 2.607443185896519 0.5092892563938326 -0.2319253322225296 -0.14705938751606934
Ni 5.046330386007798 4.587936006810023 11.430480735027835 0.21193629069511244 0.34612936377147485 0.15271015804394344
Ni 5.5811792758334295 7.834388923754956 12.347621959237406 0.2578384525438656 -0.2345350019312348 -0.29307310737644365
Ni 1.8381002286393688 6.421117898707838 0.4861222893323375 0.13567839937263731 0.30417358816497936 -0.4075355347930982
Ni 2.878243030467067 1.4554140676571103 0.3716086639702019 -0.49947175608277855 0.29730000097359766 0.44451853977535055
Ni 0.3966202495533497 0.18151629763035276 5.041754624457932 -0.14918337583760757 0.15553502908724826 -1.2851576876386381
Ni 8.64551886121814 2.160183849149824 1.3631975016216777 0.382178029864916 0.96149128085637 -0.8611832905632265
Ni 6.918778048564421 0.5709865263850114 4.6812639191366 -0.3477175341942011 0.9135574332895685 0.48483703688873925
Ni 0.5708894184566589 7.661950419130587 2.5547243705709586 0.6545964371054855 -1.3645407548536563 -0.326005082217774
Ni 7.572611125046339 3.947068637058126 3.865559119271035 0.10685967536873209 -0.5291456289981274 0.09352079216798087
Ni 7.588867711570525 3.6221796763952665 12.628179352312404 1.1614333753040837 0.17406291268810667 -0.8813098861097726
Ni 7.811982168435113 8.798328976250527 6.967038890660616 -0.07977875999154002 -0.22213739959783033 0.2184614934081399
Ni 6.897090611232375 0.6024270164840847 0.25373492445757495 -0.49444987738815493 0.45622065870362716 -0.30436333557828227
Ni 1.8153877631747137 6.441078972869174 9.02523963379571 0.6689434498557769 1.2936718957572364 0.35585970368536135
Ni 8.92708689606599 4.762856158492287 1.3957951945336178 0.1339860992718789 -0.5985952391495175 -0.19278388613637767
Ni 6.4252719600873585 1.9107063880325161 7.200285840530794 -0.416534910078231 -0.6485538304558314 -0.35392366300491307
Ni 3.569525599688608 4.2328177077100415 0.546484757425714 -0.6324787792708397 0.7727422269109983 -0.14780860697726803
Ni 5.704848020885236 5.270964402121606 4.989746135645319 0.28822400681425847 0.9498840356347448 -0.3828136065663859
Ni 4.9945664653110375 3.0090060491735113 9.425512220432092 0.7140061465223703 -0.6953527930872412 -0.7847359089377646
P 0.17661864128094754 5.45120750691356 12.34000258345168 0.21836713392212068 -0.1526664492902016 0.5883846171651028
P 3.9765696660326046 6.178914540742115 12.719548022269723 -0.1226256799537372 -1.036697333875563 -1.511804030850416
P 2.345012606113977 8.366944987494486 1.516497652033252 0.6805800056534408 0.6261464092949086 -0.6775818422570653
P 6.3189927273905155 7.698635636508177 5.626950378544366 -0.6794536053584814 -0.9333055624507733 1.965651561336176
P 4.790253182352463 0.9432416773967448 12.443031397991168 -0.4785499183284468 -0.47324136163133984 0.2592255626993794
P 3.9651954503505826 6.143946695060388 8.065932888289028 0.825311773477598 1.1305387426077562 1.425361742795771
P 4.701570265932078 1.1684151820013995 3.7064028212913174 0.6209813201542015 -1.3014168298099782 0.42022829976941817
P 0.1462022801669985 5.594118008138907 3.5364288799226347 -1.13908046153018 -0.6570736950013846 -0.5583340776366256
Ni 1.3225020864621255 1.0252619109551706 2.6815464258517667 1.0441347639902148 0.182977184458601 -0.49423493316387135
Ni 1.6750308408060417 6.734219035845691 4.4774829314889955 1.1008013634443237 0.035541387439719435 1.0687199095287465
Ni 5.953444317467494 5.6059507890381495 9.248037590745668 0.02833381394768669 0.5689915573504717 -0.04341153421641556
Ni 8.54292613320875 2.211776931824484 10.22055640939319 1.3324873259625374 1.306219393404944 0.02636820558088362
Ni 2.4962761874726045 5.04695978924712 7.054763315862264 -0.8615532723081355 -0.3571043747257398 -1.3553935411367497
Ni 0.7784998752417922 -0.05110484559044344 8.76346183508709 -0.43101484886196095 -0.6033273545178641 1.0684005785161148
Ni 1.5136068928697972 0.9316966236926209 11.389184689348474 0.5688722581637881 0.6831464808290364 -1.5934054458729912
Ni 4.154034405096697 6.843087813298598 1.6026296870394163 0.19347756976929262 0.04953513061565017 0.029382566927175204
Ni 5.402986227306694 7.924987024317848 7.752502663171757 1.3599006849784838 -0.7480498663706407 0.9682725654442614
Ni 5.367784603278932 2.6155930586982468 5.1679050165676355 -1.0392221571799456 0.2823477505391395 -1.1628839917076812
Ni 0.7440022836945861 7.3843566161653085 6.705841042079658 0.2316509955152204 -0.5572249037328468 0.7497776476950249
Ni 5.0076490612140745 4.360937232811336 7.3917889692742085 0.7344728990171544 1.2431733727870526 -0.3163541893915713
Ni 8.149513142733486 7.012541148273614 9.239522664065134 0.4943372630696906 0.769306718866888 -1.2360071940559165
Ni 4.510789152618914 0.3320848379832723 10.287092424116825 -0.2012181329466599 -0.6596975057774769 -0.10581580748525
Ni 8.030088373809674 7.254708540339946 4.4785879837477465 0.6026524399380266 -0.07326461302210607 0.6621210276173048
Ni 7.159246051884585 6.0993759542415855 7.037787411350281 0.4153956542674652 -0.4411236551611886 -0.48150977228771913
Ni 2.087173073388542 5.305114023592216 2.598955233640528 0.7913698693145146 -0.697331771190483 -0.7720076627378188
Ni 2.180747352125939 5.341142863305942 11.359745701550443 0.06571328303740942 -0.4540820150940696 1.1420079195896202
Ni 1.0822498785382997 3.3656798734221014 3.795442699263146 -0.6250377496117623 0.22335301717248632 -0.5700130566364505
Ni 3.777453455535856 2.632856690405348 2.5020055552453986 -0.4771190994191913 0.6197091383099972 -0.5308888369414793
Ni 1.1613029253970675 3.5367246994451156 8.079447974132227 -1.0327499191920408 -2.003067797201105 0.5773903229371282
Ni 3.6440199687997192 2.7301264653050463 7.050130908020858 -0.8290699549684496 -1.4357176321087983 -0.15312899074891692
Ni 3.795823038649193 6.593106829589833 5.947000127444328 0.7364099681388672 1.909273182546447 -1.0527068219299418
Ni 0.6874629907063449 7.370950327167762 11.321713561240703 0.5788465957676805 -0.30693315318798753 0.047409342521898996
P 0.27865749443973287 5.468525087469746 7.95117829140098 -1.4627070162134488 1.1320212406905537 -1.6207218742997571
P 8.453541881750265 1.6356301980245218 8.131061737199037 1.0789876100033418 0.13357189455259577 -1.8258982205632168
P 1.788674091402944 3.096969647606101 10.25491643137523 -0.5734251676417931 0.7827196498386843 1.5360035109147547
P 3.827104379643467 6.15271338303665 3.675279730254359 0.4870139899353999 -0.49196747728593343 0.5968404612419398
P 6.967943433030269 3.8955025288080085 10.531498693420172 -1.0400356542201765 1.4057377979172565 -0.8999436991608758
P 6.245577335261099 7.7951231530961484 9.92511542800321 -0.8596025763396679 -1.2084583379033706 0.6561712377917731
P 2.393818331585928 8.442185649017937 5.628542768739849 0.13364311411016339 1.1680233698167755 0.7304133842358
P 6.884160870401743 3.6552053635099453 1.4863879002116012 -0.09301737016900109 1.7909798114194768 0.8773704418460503
Ni 5.334633035516389 2.7370768753621246 0.26179937824825156 0.003980839024618951 0.2496363763490475 0.6750482772019342
Ni 1.3904686448339894 1.242792661939494 6.854995223439075 0.8846641472939861 0.2630742470215082 0.4214806841192805
Ni 6.863606358900476 0.7679780513753077 9.258038808218485 -1.2687453077188862 -0.7499385987529213 -0.9522530500875537
Ni 2.67795792824015 1.6054098510622474 9.125071079879447 0.2349926582939437 -0.8505157835470514 -0.22911254536408285
Ni 6.513352447692965 1.886950911485557 2.6082856870897255 -1.720371405073295 0.967189616792728 0.23903931755949157
Ni 4.067392553466683 6.70123830610525 10.409638133960184 0.11337845032385635 0.9786158563517985 -0.09094634657258531
Ni 8.273847256924006 7.023088148269672 0.502387867331372 -0.18386087261513495 0.33556110133732536 -0.6296490231315285
Ni 7.441101813927555 3.750946587685578 8.403748892340063 0.8117003533417504 0.21935469464637064 -0.33159363204914505
Ni 3.2295579357065773 8.28052792273566 12.384483409522007 -0.9738289764861164 -0.24093576325125604 0.08949290195551039
Ni 0.06567912717067283 4.934809123474894 10.033974314833785 -0.1374311203976859 -1.4666947972166031 1.0867063188038382
Ni 8.622482702658976 2.6758629146006943 5.955105942019303 -0.35171251428620715 -0.24299881642787183 -0.1282070306962566
Ni 3.7179748494199836 2.685807485781973 11.438836512603569 -1.3548101578294538 -0.6029882260108905 -0.017258787080447695
Ni 1.2286490720044572 3.1582015913172254 12.562707928210708 -0.4132459549143141 0.4105244422180929 -0.3054573399734094
Ni 3.1019149587721975 8.451006285843285 7.824711399376647 -1.0166995505973975 -0.5060013296711803 0.036598882169956326
Ni 5.613161951865804 7.8440187933165735 3.563644275990892 -0.03438361968619239 -0.3859678359246514 -0.32031394537026775
Ni 3.26672869272593 8.298295077034219 3.531559996292741 -0.4268956844872648 0.8088811387254004 0.5593962003525528
Ni 3.192890701278682 4.561716866154862 9.455042921273566 1.1299214207387314 -0.9230887698187716 -0.665744483302505
Ni 7.248108797801919 6.176837510052354 11.318804819127555 0.19078408209752948 -0.8263049906288027 0.3867715627728694
Ni 0.7019725336676725 -0.03430427483798579 0.1806171501456079 -0.24144561300813902 -0.41118161618611765 1.0763581428002946
Ni 4.630366776615133 0.29499949997497066 1.6494393050952334 0.41407050769813847 -0.04002102047762785 -0.6408564618115736
Ni 6.167756120456431 5.653263929685424 0.21687077673052055 -0.7340098433378069 -0.5487171233721518 1.428962829883468
Ni 7.797919501773704 8.671926822845096 11.160609709809028 0.13587020366846922 0.4055313598788758 0.7663388944878157
Ni 0.32536011394486547 5.1080658523103795 5.680919008873722 -0.3540259929107322 -0.9487928594530949 0.5618647164977034
Ni 7.815722621971653 9.037601113415983 2.328610357697261 0.40121319211949613 -1.3343704019178633 0.3950841964036228
P 8.484634401772741 1.7048285884504861 3.599846651169174 0.014377865988226851 0.6464118444121641 1.4804116325820633
P 1.8437918322178037 3.2494290951194387 1.5836001296722761 -0.23086809460260888 -0.4294138229234282 -0.14305977943837297
P 4.6281189079032705 1.082312818862232 8.140563028670336 0.2861509263353137 0.18116481384021058 0.2991877049146138
P 8.529861520255407 1.4593253592157505 12.240448074793244 -0.11069241885126098 0.4515741610705513 0.994836431975719
P 6.379757114409574 7.680841507785077 1.3942028043381347 -0.7140886789338476 -0.1759184778396067 -0.46396482142542034
P 1.9709672524601165 3.1587410798080726 5.792041949070884 -1.6115093545625536 1.0775130823403445 1.20045166554881
P 6.705194555038127 3.8053809764120317 6.250704274219115 1.981219590977762 1.926949516780288 -1.0045171495985925
P 2.3756915182934715 8.229914910819371 10.214212923888313 0.20049925250276437 0.7521901137912593 -0.3248244316461115
