# total energy = -340861.60365099396 ev
CRYSTAL
PRIMVEC
9.32693143298347 0.00000000000000 0.00000000000000
0.00000000000000 9.32693143298347 0.00000000000000
0.00000000000000 0.00000000000000 13.65090693284898
PRIMCOORD
 96 1
Ni 7.712821972682767 5.019633225359754 9.65831726492239 1.2038848596000749 -1.1198920615271875 -0.4150647532906077
Ni 2.9734537087376056 8.117937237717971 12.824494289717297 1.5377562319398033 0.20734327200779126 -1.3121486144051853
Ni 5.633457234165943 3.6887733849574715 5.59468797844655 -0.4486261341858209 -0.7832603528335027 -0.08077223425306089
Ni 7.794059545111836 7.848249016502525 10.911374641727477 -0.3717542634284307 -0.14249773628731588 -0.12982991101166028
Ni 1.7468129997156236 3.081347651086569 3.934614507988458 0.9234132430377258 0.2061363961838837 0.42729729080105766
Ni 7.8088707121631975 4.481655822637744 6.4762359567169145 -0.8347145548487366 -2.831870614551097 1.7929320500498411
Ni 4.178791706459014 4.311448651655185 3.384537277170898 0.13020014986688547 -1.5316825149418976 0.3110877987863094
Ni 4.999766861493633 1.7303602927391737 2.770383094993414 -2.080933142220016 0.42049312339503064 1.9219428075943157
Ni 5.033511699271862 8.705366030683257 10.211355796457083 0.601281527732429 0.32467145100801503 -1.529791982787404
Ni 4.282367279573229 5.867078211686416 9.20327773422231 -1.0892820499508142 3.111834181128776 -0.040440110292917456
Ni 4.903960622229407 6.063717906235448 5.09737133313034 -0.39665256933200715 -1.182490195974383 0.38648565610133445
Ni 0.3710467827376532 6.241787680381922 10.501178064469615 0.8235665086517172 0.9526502855259722 -0.835946884593941
Ni 8.76456406423174 1.6891539098469086 0.19026380424908773 0.3228040587819731 -0.6093874446690151 0.3107113892834972
Ni 1.4756697772029403 4.861541738256111 12.866976596824061 0.4768085101573079 1.0815839099756082 -0.04518405273580605
Ni 8.519918653805279 8.533246838765226 13.224944223669949 -1.7030961629326153 0.9978525930942234 -0.15798631884121825
Ni 3.8348890921530856 7.170265046647017 7.136257189403519 1.4727137497171734 -1.4208525420715077 2.3044501957741925
Ni 9.21323609887013 3.8993661688697507 11.317570898111077 2.17622362469391 0.5715107242278996 -0.27875951896724893
Ni 3.4402106633461402 6.59957809553135 3.4075393553711937 1.2410792092621852 0.8275666309500458 -1.294776441675325
Ni 3.962145744072973 2.370626152043228 7.9170211451254575 -1.484920319085694 -0.08917897025951739 -0.22314012983073186
Ni 7.23169221679832 8.395394792783407 6.864181273751581 1.042658179444688 1.1346296248476782 0.4761713907939413
Ni 7.09061305255468 6.469243556251923 5.694612057920583 0.7097761676014227 -0.17228550907270973 -1.2612286876268666
Ni 2.5826832641841366 7.408418912824268 5.498052574981528 -2.041972701796418 -0.11250118992522562 -1.587172834699718
Ni 1.3117489579789574 7.560140105786802 3.3081058724884076 -0.961131583524106 0.7150171042853879 1.0345437778676698
Ni 0.011949664500128982 5.22178513636178 5.054944054918791 2.1240903943337806 1.0158605996358698 -0.6982028609415265
P 5.327123499509186 2.0746453112321968 10.148043653471346 -0.829698589691384 -0.7647147286208313 2.45112983135334
P 4.255906775212578 5.458138904780269 1.6173729131567411 1.115440453513737 -0.00399189476821248 1.123114168008911
P 1.7515324270002512 6.53303044004554 7.901650362190542 -0.4286234658116489 -0.7907304359583027 -0.11086416854243489
P 2.46627383347378 5.27594662695829 4.73301475828056 -1.040544475535795 0.13969934760657232 0.11495247967919557
P 6.6268034082661895 0.2654388712730025 13.764482022013931 -0.229436761472721 0.07741360219347312 -0.31537871285217944
P 8.500378732537897 3.1665771501516478 8.40873976621986 -1.6164268464688287 0.8251073707762757 0.03614199713819582
P 8.824097867310357 1.8510787657528869 11.695496292750732 0.06812857734712137 -0.5529180488273768 -0.4563841808646849
P 1.5900179560755452 3.0709014879269185 1.819202112332585 -1.292610801482574 -0.462930466623635 -0.40912344810550827
Ni 1.5506676325303967 2.1934797441046157 10.07737256161689 0.14601680518416787 1.4037482782910535 0.4481913606412475
Ni 8.893723410155706 8.819238536054842 2.0206349169242457 -1.9828388717487397 0.005320126661332774 0.3623771930889049
Ni 2.7850683484709764 4.0659078558150386 8.993750085875059 -0.4233136235629613 -0.15130787837977813 -1.7514881810827578
Ni 3.7796083697894693 5.895376121531399 13.310807954069722 1.2084904766928863 0.8009989077638463 -3.0277465093492375
Ni 8.576290627141821 6.137922972394537 12.509608691666717 -0.16037924455342703 0.2840732178706785 0.3745115144585937
Ni 3.1691793640101675 3.888630870836931 0.564429512844408 0.4743865309793766 -0.6190105695810758 2.367310582743839
Ni 6.828628876669478 4.584886299290434 1.9137072446675498 -1.2593715798134697 1.358723891061563 -0.16199595422124358
Ni 7.533353158827411 8.636402699966776 4.48391294003474 -0.3407089640868519 1.7685435939031475 -0.6301866408025534
Ni 1.3144817488769733 0.750725640479107 2.8166055015885894 1.144648185425945 1.0419894355124377 -0.3557735717294582
Ni 9.073005685383212 2.710807320723531 5.050125762161402 -0.659344236203116 0.255417758917515 0.3423984359741329
Ni 7.306167763967793 7.01519548531456 0.8057321510597819 -0.4314521935096956 -0.9678655598138298 0.7640557548805937
Ni 4.850144228094422 7.582953779972967 1.3744138119260514 -0.40573627680083024 0.2045726512411896 0.011011777729471359
Ni 1.6262437576041908 5.166569702517912 2.6593198613572637 -1.5872499677945568 -2.4599777686622732 1.3261570128691353
Ni 2.855346776513805 2.973546978051531 12.268411447776076 -2.1645754989320203 -1.5043414039247833 -1.7510675486055713
Ni 3.15984310568623 3.6588246082560087 5.880715118075457 0.4942470173487295 -0.9503077534357247 0.9201253163150734
Ni 1.5788163114730984 0.7264010034073489 11.629193935560545 0.7300413456083621 0.7418265111687482 1.8433472692775996
Ni 6.394721374425486 9.215343985364846 2.2793192244827667 0.9002956831836559 1.3588154223341051 -0.44859168140345973
Ni 8.6530139647769 6.20414418528161 7.764035220266094 2.588032590051381 1.0870212789410958 0.02286122086888966
Ni 5.084884437382001 3.2671867590830335 12.433423517972988 0.6152133073221727 -0.2249275607484578 1.3461967051288297
Ni 5.80260113496975 7.816406872728375 12.294648105783308 1.0080174494423673 0.9729054362305826 2.0646189784410245
Ni 8.258279574381598 0.8483543621374352 9.008397098933912 -0.9224634775299467 1.0840501121279138 0.291048363636931
Ni 6.447483825313115 6.246040761096922 8.179145224981548 -2.1635434581230806 0.5368054595362304 -0.6304887454240046
Ni 3.0327170308058378 0.4637779327217559 6.490064065199502 1.2720710296580091 -0.46787212689962654 0.9987949024028347
Ni 1.3017131798005788 8.54371165578766 0.4364155140954459 -0.6503533455584154 1.6931899595624966 1.3404788288084464
P 0.22358146856953787 6.770288920809106 1.5444223192699484 -1.2924457366596194 -0.30382828901041864 -0.6167109749136217
P 1.8136124823490327 4.636296345126144 10.714951331986752 -1.9077557174606563 -0.1864548585945563 0.15096746432122385
P 5.3052052107367045 8.737338751496901 7.777467866857638 -0.639751401672853 0.6001335301709149 1.0080819841317155
P 4.256261198605495 1.6772434184586282 5.036843279165279 1.2511975286431096 0.292137997156684 -0.7056081522666622
P 4.167543427199604 7.030435691209978 11.252346734189867 -0.7920460694459327 -1.0800893277079526 -0.6247610989116079
P 7.790123580064182 7.9464895848602035 8.812547395473828 1.1643261234708464 0.028238683130719106 1.04302996096181
P 2.1379845023189716 0.41559034168217085 8.740989312443944 0.3068987004056263 1.9780183104316447 -0.03299753797194317
P 0.739959563572692 8.254893898286104 11.86610545447631 -0.03966029470409944 -3.2364974603378327 -0.7537471738657341
Ni 6.07959234346556 2.0930286930069033 8.275575435955934 3.2633030105664504 -0.8889653457725013 -1.635386161180151
Ni 0.9657757649038837 2.1855425254895597 7.9577145467911325 1.1453205289026211 -1.110775701048216 -0.6454427956306755
Ni 4.050621015262657 1.0630370054653457 11.709870959412921 0.7565476194290067 -0.41268699708705053 -0.225285972529141
Ni 6.052777415711993 5.525171560698492 11.144327810960245 -0.7265636714724066 2.205616990254363 1.6017049668776222
Ni 0.4727224599272068 8.779571096842346 9.698177771614711 0.8652564321913356 -1.4434617948305914 0.3454102262172632
Ni 8.829264987301826 4.141390711574908 0.19587302078856442 -0.29988190276816096 -0.6483543128505157 0.7494107512739093
Ni 5.444307065525124 4.105864429900703 9.474057206410682 1.2531492530528416 -2.609401285535145 -1.1997865211609853
Ni 4.542849819504233 1.4765558356852322 0.5169544993632135 1.5958191975208065 0.47860056906072407 -1.535972143456187
Ni 6.871308914721763 0.8038434474527915 11.14739916946781 -0.04195654693744388 0.4176582250493968 0.9893684668826122
Ni 8.180437004979416 6.329022469696398 3.2955341016643964 -0.6595126434601803 0.6965020762003359 -0.5078489244028802
Ni 2.2888849253189614 6.621925423147889 1.2652019741713212 1.5123596462435696 1.3318995717798674 -2.23566290179715
Ni 3.97606152571065 8.94730663100588 3.7417680764367742 -0.8345659450860143 0.7946634524641217 -0.7391795604642044
Ni 2.235031223458405 1.6389936728178003 0.3202299297385096 -1.341911961710547 -1.2886065654191872 0.7431118056390751
Ni 3.7886181855146686 4.516799700124855 11.084331392084557 1.4469849774925014 2.2896982342759986 0.4215495896840031
Ni 6.634628703704536 2.3935051147491415 1.3727760027735205 0.9931037655553284 -0.8495829873201368 -1.536477622337696
Ni 1.1891371178925574 9.317044845269159 5.201760214661986 -1.3143764752944394 0.11406262087507452 -1.2407063993037988
Ni 0.9222460434017358 4.415182782603074 7.3636132671076195 0.19805464761701375 0.8337226232491126 -0.5500880355777494
Ni 6.993911427876772 2.4379479428346196 3.8192366358901157 -2.6376474248650315 -1.0873349535267725 -0.28524589802254097
Ni 7.127137315887888 3.5550904773081204 11.586316166562737 -0.7012159367362375 -2.3614592661693847 -0.893649638622048
Ni 5.165366528368273 8.22838675926849 5.667310264348324 0.6659794821314466 1.8549267465850827 -1.0886467303596605
Ni 6.381048093004015 1.2617472787835224 5.998058174618207 -3.8740559681244244 -0.5200462378000205 -1.9267623404701466
Ni 8.256945823192465 1.357945249166234 6.760106709807864 2.6909445936262752 0.45284042937748464 0.9309432328661837
Ni 2.963194084205806 7.898092137864286 9.141793669789513 -0.5006706614868861 -0.6073914972849087 1.330651044084747
Ni 8.781324559944144 3.5507161464850165 2.5985866149015657 1.3114891264443156 -0.5583189081279739 0.11232146981425173
P 1.5594722557649594 1.9587395348170369 5.95006178567217 0.31599783449341706 1.1728606433044189 -0.74713275387301
P 4.7955163909282845 4.7616782838361305 7.3014063654919 -0.3071660951344 0.15079237219594033 0.41033623746668685
P 7.249553290415045 4.379106211976708 4.276746870716082 0.9554625581637867 2.9657597832337954 0.05155267526631121
P 8.532146260860905 1.1772825880926325 3.5762644769554766 2.0039622839909166 -2.0642896201260643 -0.8383480378362658
P 9.192119926197408 7.657056249886739 5.238644497546945 0.6587405411808461 -2.228358654826253 0.2461656441916277
P 5.923440858091568 7.591068210284481 3.4804218626588206 -1.1322585535123404 -2.047186384786874 0.6916002680233444
P 3.3853589798265817 0.12064758833512991 1.5701543902888415 -0.9922378180106072 -1.1181370265092936 0.9118620478650166
P 6.904550098204795 4.902468313206601 13.193560964920314 -0.8687469618430974 0.7025174291564804 1.252468167825417
