# total energy = -340852.53312285617 ev
CRYSTAL
PRIMVEC
9.41911085494841 0.00000000000000 0.00000000000000

0.00000000000000 9.41911085494841 0.00000000000000

0.00000000000000 0.00000000000000 13.78582083452747

PRIMCOORD
 96 1
Ni 1.793134977813697 2.55578154812666 1.8955913564889666 -1.4775484521016555 3.0386366738991795 0.5195875529960471
Ni 5.422261887977746 5.440930565756132 0.2945129915759016 1.4291775169974354 0.7142043785761055 0.06324708088510397
Ni 6.356129055997816 6.872569486830855 10.931011935943731 1.4643422378240265 0.42358950293216724 0.9563282485981918
Ni 0.6719094494035189 8.152231053740975 7.8259351562984705 -1.8092004481925616 1.1124191501889098 -1.7483444932474534
Ni 2.922307410079386 5.483316564748429 9.417135699624152 -0.5992755530459938 -1.56519813020084 0.3646701028881397
Ni 8.437714885620428 2.0158404356301145 4.879532718658597 0.08120675068731822 -2.2743803729720056 0.35336881894270755
Ni 2.3172708222415586 7.761413304810218 6.115321008967333 -0.6549471355766849 2.47585587334511 -0.6442775716779807
Ni 5.325188531174498 3.4945749111407234 12.725567315679214 -0.9582689172643303 1.1680629648054595 0.6127108526152932
Ni 2.4079580218633008 6.290600301555725 3.4296640503728306 2.664788504056198 -1.4014574253743477 0.08775586465974565
Ni 7.340096474826782 2.607313503790406 12.70761825797261 1.5294168588361723 -0.6512378050458978 -0.47410808050700926
Ni 5.299615645115812 5.158234790699282 10.259118499028721 -2.2258741978415024 -3.367795471254587 -0.19648164670293902
Ni 0.804362870521182 4.765081102268506 13.395847258899252 2.3965188288766788 -0.007615864674044947 1.371290157762348
Ni 3.1771508742428525 2.98652690810816 11.636294237131608 2.938977630043945 4.151752850155114 -0.7497568217594185
Ni 1.531443820035253 6.89454427253064 12.32999668339479 -1.2411136620445464 -0.8417120692124923 0.4096561806805267
Ni 6.555465699703148 7.547806708110813 0.9039680843309035 0.07041068851307875 -0.6419136994314946 0.7592061400977764
Ni 0.21529826901474142 3.8973926073417435 5.4636927891260845 2.6758283068101267 0.42222810380826636 -1.3899095726357482
Ni 7.543775328651101 8.157420983839808 8.235042934749947 -0.10558132287694075 0.10487144129410972 0.3621079985879183
Ni 8.257696838344698 5.888536134225679 7.975593525362652 -0.6344675275660944 -0.9613496130721831 -1.1516804096823778
Ni 4.262288963110988 6.811646677612592 6.260830259685712 0.6281546979741892 0.048880013530154524 2.0789852744650257
Ni 5.913675741183555 0.45396064258512586 13.785600648299758 0.6706884575713417 0.6849601369990075 0.11555514626020098
Ni 0.39391004303501637 5.933860895814776 3.931702660659375 -0.5371939532239006 -1.424561872602295 1.0639047475282903
Ni 1.0026737730508994 7.459549639097963 9.913632105064682 0.6217253974090776 0.4843323293381789 1.9020591812965113
Ni 6.491500517668327 8.124887374835499 6.082896661649314 -0.28970856177958487 0.104400158084646 -0.12742490111459345
Ni 3.7640839309555245 4.449625659546055 6.841241524020104 0.01493810936707105 -0.03640142144716957 2.691223815429591
P 1.614492120727494 4.849909614918425 1.8187361212050444 -0.5060931180540381 -0.2752062543983518 -0.4380509297731359
P 5.794213157801487 6.0095434517932445 8.444697272521092 0.9405236774657675 1.189614979944622 -1.762737271634016
P 9.30367026414395 9.747743666030807 6.387963766974298 -0.6577059292687446 -0.6220424144288642 -0.11798098209287423
P 7.851262203563001 2.223399963139951 8.66289945342235 -0.9406517184031993 0.25441142914018766 -1.5727679721282979
P 8.698548904308138 5.755283972504783 5.908134478248629 -0.30797522129925675 0.33865362421972 -0.7558868459165562
P 3.908742635960792 5.0900027514325705 4.8999495834176425 0.0924841233733504 0.8018640839776191 -2.1896692086758547
P 4.447129595160953 0.6224713620899921 9.317946810515645 -0.35055886029773825 2.527103615776493 0.8034365706710614
P 6.978233072763209 4.7261801743044645 11.556502123073063 -1.9254531347404193 0.6394138158277762 4.165586670714413
Ni 8.672203651156705 3.5559969332360057 3.265488947609332 1.4977640078175818 -0.22283725387833236 -1.8429999132405097
Ni 9.033511325677933 7.681586340041392 2.5847858162815442 0.09159169346606806 1.459328843769835 -0.670897231148038
Ni 6.639389977707896 0.5998645540496781 9.526871167193033 0.3492242006467147 -1.1175582711876881 -0.3624317004759242
Ni 6.1591942855687165 5.453702880119144 5.803582347400962 1.049438435591315 -0.4125823531883862 1.9957208699177307
Ni 5.071616646980801 5.1598642968827635 2.757646281194109 0.2957015461382262 0.8469031264951286 -1.450287302392857
Ni 2.5253954964046263 7.978420200539893 1.835540756938857 -1.0401089306602733 -1.0797026337924953 -1.6445763123198514
Ni 8.557073858782736 5.796096979978922 12.597910105825301 -2.5493997081705317 2.217249946507601 -1.1787047607900216
Ni 3.939307650789682 0.13068827973740613 4.911336346569151 1.1735556124889144 0.11787916640768731 -0.1399672565559783
Ni 6.769185325733198 2.02486394386003 2.657906374098701 -0.8480763208676233 -0.3874742452668488 0.22453341063383267
Ni 1.2732377332850642 2.854753546796551 9.886791406680581 0.19206063481710794 0.47432816693761526 -2.016729610958914
Ni 5.294604678123834 6.810092524316208 4.2824684662756765 0.6782693552423932 2.3637699165804325 -2.0036362681100655
Ni 7.692277030898338 8.642137849204834 12.983803543584242 1.126127500913938 0.07393644227815008 -0.1826964199933886
Ni 2.1924299265429124 0.8549529150962107 6.375707619887903 0.07984303757057216 -1.044307285012337 -0.2467837373916008
Ni 8.616998242246959 5.86747500228195 1.1352242110107005 0.9493433326399262 -0.46099956814950926 -1.6621086647766599
Ni 4.376523939950673 3.1074400345668534 3.0414553951578225 -0.8136430788904181 -2.335838737387803 -0.3707538471883744
Ni 3.7933679467037584 6.864186478141267 11.251532034590218 0.43347847991110505 -1.6298893997316382 0.6868864074874428
Ni 7.831548004476139 4.043972810967995 9.965108487974195 1.1680323686778402 -2.7613506541536634 -3.316391148640682
Ni 5.439564794677491 8.728350971155168 11.60242217247023 -0.1729768787127795 4.22497632552664 -0.8192629961803568
Ni 7.006631692088048 1.1822020265604969 6.60730942793726 0.3226521065851411 -0.32021110124381624 0.530544566228183
Ni 5.404318481737674 0.12780885753919607 2.1869272819626233 -0.8571248042231367 -0.11869986253676976 1.0426424957154043
Ni 5.601695950378472 2.2850386247856385 10.87562002863842 -0.5742633472723723 -0.653487520312023 -1.1565883885069566
Ni 3.978547666745662 1.129276042485448 12.793792761568305 -0.43712713240728585 -0.34897377519880546 0.1756647099575878
Ni 7.798449248818598 5.646813491528051 3.096764414287327 -3.7394885424277793 0.9081282918541973 1.6009315790467074
Ni 9.237425657274432 2.9857922174589606 0.4276756717433692 -2.00362135571173 -0.20228591208954197 1.4417383843815816
P 6.949476527224657 3.9064914684587566 1.713894823653141 0.05381447471729442 1.8406902912707266 -0.18207369880772514
P 8.051163993921563 8.265655987044362 10.885587331779229 0.9055757006356727 1.2523229004968044 -1.1332679686134612
P 1.2557087679240275 2.4192515358170263 3.9867488865951275 -0.6467589433389378 -0.25186732256209526 0.17558063488421374
P 0.6016117991192493 7.838301506982245 0.45888589566803084 0.11541553535854317 -0.3423143609007589 -0.13883828515785765
P 0.07405775935043069 2.8677236624881943 11.698247497080926 0.3404536535429362 0.7845613310331133 2.2107694809895797
P 2.5032511667088726 7.195042167164254 8.37422442677432 1.2475259933287934 1.2360411326176455 -1.594544958794073
P 5.0533153145270155 7.510563543662914 13.094779508056963 -0.13777873354509176 -1.5550795537095992 2.590094357676417
P 2.34416238382445 8.297106398296647 4.023336480925278 1.3791369075002764 0.33558552681735754 -0.5693049748258324
Ni 0.6702149513549158 9.027473675599254 12.120328216957313 -3.042451162549263 -0.22732768554951815 -0.694962499627358
Ni 0.7755677066279928 0.18600012460017676 4.316726714483428 -0.16752125491484698 1.3032456554886007 0.30141556580386797
Ni 0.5711824194871348 2.354655273352765 7.158136206886116 -4.033873169526795 -0.18316821742348455 1.1983929832475684
Ni 3.1969875217712476 6.515688794426598 0.101615252073045 0.9220323035297991 -0.7689493355274692 0.49861172207532833
Ni 8.503827624937525 6.233897254014917 10.144365471090241 -1.3030816191069106 1.8760378175320853 0.6748775559520248
Ni 1.9777778085350313 1.3538559033684139 11.42111182318078 -1.6635734222476446 -3.2306857387520616 0.29118746031795656
Ni 8.550913760262523 0.685349578728432 2.7673244176306833 0.09096485851534657 -0.35623662740880585 -1.3290806142738336
Ni 7.672939596246962 3.6151866260510275 6.371972000510049 -1.3627656652311047 0.29334461587027544 1.6178720635557877
Ni 6.449830371103456 3.827870149883488 4.187897767235151 0.2739232739208702 -0.18053309379348265 0.32354247960989435
Ni 3.6846525688439593 3.027556555132704 9.350508676852616 0.6750593329455277 -0.7878330598058496 -1.2236584426825765
Ni 5.781968313648156 3.883960955216629 7.95028249058663 1.2182753239937922 -0.03443607019068263 1.0150131640339102
Ni 4.7943180224623045 8.00702604030425 9.418803824162271 0.2774803951445092 -2.2897594265312375 -0.7739519309483832
Ni 8.834334806857685 1.387877731892898 10.401098408897676 -0.37880062875225085 -1.6777651403669942 -0.22970749863560438
Ni 8.800736838323123 7.794069362256062 5.043169990190438 -0.5041568202632737 0.318954860239212 0.9964672827109224
Ni 1.621123174792067 0.5670954672731886 0.15497357333781508 -0.2794010092059898 -4.66580764625839 2.8081619580802477
Ni 4.667112929930976 2.0544870476002024 6.88661055543037 -0.5674928613177582 -0.09296697654703989 -0.46173156121952735
Ni 0.658035099066707 4.953821246225763 10.897085240439207 1.9328242303935101 -1.0808202923367065 2.200251355067075
Ni 3.6482288670432452 4.120804498474699 0.722862129747704 -1.5848776109076381 -1.040186063755112 0.3525722911833412
Ni 2.6499914952202057 0.6154635435899322 2.4106302236219928 0.6612476238734161 -0.5150500701370097 3.0258117542203693
Ni 3.07318272827019 3.0766677992984457 5.137437393860395 -0.9068270565442706 -1.2389490502930598 -0.5365920579738436
Ni 1.9098000852622734 0.369222553399725 9.472085850628856 0.9513418511271939 -0.8463847920978133 -1.4220717591905896
Ni 4.265237144818674 9.10282656269667 7.448533988915409 -0.5242343077394391 -0.21984706090175685 -1.6805840978730282
Ni 1.6007402188322155 5.710392490016497 6.395049764094722 -0.598078447414099 -1.2779706829718958 0.6772517126111562
Ni 1.8314613400136208 2.4394178522264727 13.367228232379652 0.8570810954693949 4.91077309949433 -1.2273333204310024
P 5.511536220966412 1.9808296004624768 4.743259848076184 -0.39325202829089045 -1.0409370829885234 0.6940628706312241
P 2.6678689676840683 8.535447580185778 11.584886613731571 -0.16853452667070976 2.892495941542638 -1.063042399527995
P 0.6205055936478382 4.777900512185955 8.85394351190261 0.21098883918017858 0.4571226016926063 -1.7957846890072877
P 2.542594792884612 4.959030014546372 12.210860001249417 1.8429906572691293 0.3235751326200428 -0.4960545028711134
P 2.4858634880111437 2.629118745494221 7.469764664855107 3.6160583642948754 1.153062634741885 1.1053882114840574
P 3.6707122847309375 1.8715584950603341 1.119288959211774 2.1075540872416543 -0.04955672788220498 -1.4416990465032138
P 8.386992973492978 1.0481869168577398 0.4570416337563215 -1.005713483899539 -1.17344299817045 0.1968284885193965
P 6.842258787995919 8.062099581661576 2.998719005240522 0.2206137638644523 -0.05462257244088658 1.0446795807500913
