# total energy = -381174.58893262595 ev
CRYSTAL
PRIMVEC
9.16996926967719 0.00000000000000 0.00000000000000

0.00000000000000 9.16996926967719 0.00000000000000

0.00000000000000 0.00000000000000 13.42117694087432

PRIMCOORD
 96 1
Ni 7.1883019923459806 4.224989841200199 12.511180122919528 0.31536560022605686 -0.1807513804518758 0.07111697055148397
Ni 8.034809337477776 3.8551374829061267 4.13223285412133 -0.9128550079059053 2.0890652844088473 0.563085733388998
Ni 0.6603193782550778 4.42294196126303 13.551764359229246 0.5028643267040952 0.5477105364845083 -2.865179513115872
Ni 2.9797630754702684 0.7369995757432602 12.231321840054957 -1.250228479861621 0.7330770471108924 -0.25191128842615323
Ni 6.9724776027689765 7.562996094253949 2.58597893216948 0.15758599807900603 0.7428012163771917 -0.3385127277664815
Ni 3.2702952022109297 1.8743324866226208 1.9738385708602544 2.810281575526412 1.2307703711370093 0.2591499722664375
Ni 4.214838685555156 3.843207353281735 3.270821558429562 1.3835203812799528 0.5007588503253183 -0.41651382703230844
Ni 4.95948601541582 7.129329921927484 10.745450329748527 0.456546160363846 0.864285583637634 1.3363524653448986
Ni 1.8222745728042724 7.834115396694198 12.257063776935503 0.6265405594095339 -1.6094054208456736 -0.5476259471905021
Ni 3.803914036263658 1.5201607752599162 7.891396524835416 -0.01034226246627251 -0.5301632716293644 0.32334116223236575
Ni 7.5966040305132845 -0.17457145019095408 8.544511058474134 -0.2435544318210257 0.6901838472917919 0.6757159926929202
Ni 8.282664428652012 3.545944469320241 1.455915972686136 -0.8608490471522595 0.4744158415554153 -0.48280920782543296
Ni 7.600611306951301 2.6207587904626335 10.36443628522939 0.3578237693902676 1.3864691794956314 -0.49428609811678104
Ni 7.5429688820328336 2.140820954735185 7.841523814621596 1.7787904684421365 1.8500118257819687 1.73570109345183
Ni 1.1075763615856242 4.417696739014643 5.105509518222719 -0.9889874293941096 -0.9108384916965088 1.2422354343538153
Ni 8.264911368734394 1.0741334847676716 1.5293564201387324 -0.1577412927099477 -0.2988565468274401 0.6033378960408253
Ni 1.7250912417056539 7.687074944329002 2.930634966736465 -0.7317781257938107 -1.2220314486021149 0.4676484409245946
Ni 4.86144987720339 1.685568675463434 3.873647065263417 0.7420501971437801 -0.6635387339004378 0.46915047939141785
Ni 0.3355887692536888 -0.034543273093838096 -0.09611411271721651 0.796931422562692 0.2053025874286787 0.8394664677114252
Ni 5.1564386088613885 3.4867889995224313 7.60151271490063 0.1436364778774494 -0.6422183751561069 0.02732439884656584
Ni 0.06477299278620514 2.1912191041707394 3.7749745312047667 1.0340406129790063 -1.9587306658466266 -1.7270246487237548
Ni 8.915878295641342 5.646124121599389 3.010396273797127 -0.11212503753272947 1.405207379335083 -0.033898966740290006
Ni 2.5508102671921797 5.485622154792527 11.26373605869369 -0.33896909857760976 -0.21998744313436308 0.5644515033882731
Ni 5.869229466535168 1.5229759557323899 9.024425969279168 -0.8022484639002313 -0.4752905308508847 1.406662623724371
P 2.4530400580797562 4.648028019495403 9.003744021273901 -0.024047013646874716 -0.2921372258257356 1.154796072493224
Ni 1.7337110125334234 2.2453586009443045 0.3413475097641561 -1.2401358715123094 -0.0809342137522219 -0.4942210492068004
P 0.20146055018911213 5.933446759202051 12.047143013378626 0.14762194488775865 0.8723974141114911 -0.4045941927765871
Ni 2.8288620661705073 7.2899969481757285 9.85111701147606 -1.5083651803721958 1.7429819433839597 -0.5728122166481425
P 9.047274780951033 7.922550577399527 1.6914979773966634 0.41805468915686717 0.5528550567999253 0.2633344426614304
P 6.9126160453608065 0.7342852649294094 3.3517511195364555 -0.30511872568706805 -2.4640843346314787 1.2043833965030482
P 8.861995557998817 2.5349278809435667 12.756949046154064 1.1886281905513205 2.5670595873441404 1.0580056084350358
Ni 0.568876447728995 3.947809189273615 8.375149984649497 -1.4604097355388397 -0.30538020687857087 -1.0953387976678555
Ni 1.0847798187368636 2.08475576447882 6.0692576675718355 0.5298475401611585 0.7822275406936141 -0.6523498071631539
Ni 4.652557984164464 4.590138005414861 12.11181972149069 1.1433718898166825 0.36308244668604567 -0.33186796875645425
Ni 7.046974430646422 8.404854265120129 6.21981572003228 1.7101875225617582 -0.7270092436502577 0.6671133386255736
Ni 6.074939380342991 3.862721047240771 5.267556624800304 -0.628626238293969 -0.2499582784648405 0.325453066369046
Ni 6.200586295111181 1.9097377367992359 0.4003856039592048 0.2897784957855719 -1.6464899844027965 -0.8463459684400779
Ni 4.976166188964451 9.147676771156616 12.713866697959356 1.0109469643843363 -1.4799789159200187 -0.39032431312113425
Ni 5.459506083178178 2.037878883126099 11.540077658459909 0.24779623781651516 0.2945270662141508 0.33657591575508483
Ni 0.6192727631707565 6.652830824562178 5.053206766232986 0.3338294633581993 0.7275802856623792 -0.2804132525205881
Ni 5.415444382297931 3.88626952754472 1.0376947790886208 0.02468439012055749 2.3790355844902513 0.714143443431183
Ni 4.190409888230499 0.47120160629381436 10.325998526315814 -0.5293721431866367 -0.6509997208931626 -1.259171805097838
Ni 4.229593165620987 5.793824811730116 8.983692967133473 1.3296385436598326 -1.1431142652799215 -1.2991342044233885
Ni 1.461968152203506 0.7340514307207837 2.3649450832230547 -2.688282987633712 0.7179293928361765 0.6332884196563286
Ni 7.817875381655921 1.010989078469777 12.059490376590958 -2.272055838603887 -1.7091182007569792 -0.18263522773815
Ni 0.4619170127160307 0.8547658191823165 7.761184799516094 0.4317064756123469 -0.8655737063214384 1.3382949337832502
Ni 2.0134684257393727 6.018122252631438 7.182906382606555 -0.21642929346945952 -2.1263398524895893 0.16734179191418921
Ni 9.10985981914202 5.924175920577716 9.825723533416209 0.3055218746627577 -0.5895421278083137 0.6376310128957405
Ni 2.167395524797819 2.3549305601156005 9.253995225338876 -0.27795810611187616 -0.8283482463110766 0.6602099266375211
Ni 6.032225664900703 1.3906257936502648 6.40168646551994 -3.503042182406444 -0.5136457335903154 -0.052695016400870535
Ni 2.879232705699165 3.052435079523538 11.615155862369784 -0.035745790141041664 -0.4106121168358929 0.5127404481672266
Ni 5.712193747997346 6.489385297717323 -0.03932174392187076 -0.01947867754990194 -0.6366290539937874 0.5346071663333309
Ni 8.483807697914912 6.044284174090616 7.084784046685848 -0.7443209954558277 -1.1441115961961845 -1.7827929047333102
Ni 4.4177517588284365 3.336960876591658 9.925376337157294 0.1956403817485663 0.8069309569775651 -1.0791529319366124
Ni 3.1306274048941662 7.239745518243626 4.852721900741826 -0.6454199128125401 1.2633701594499016 1.8785819241101778
Ni 2.5536346176336195 3.4863946908569052 7.053969282973468 0.8404427155817654 0.44135813976949795 0.12530682633032614
P 4.255324098538776 6.811553817389692 6.847336870287694 -1.45073338879134 1.7552206515419966 0.09541029588120986
Ni 8.022063080615437 1.6859629841289594 5.71593142734777 0.9830445815471135 -1.5809646490064773 -2.417097424358979
P 0.14475437910204406 8.494353162225481 6.122137210609512 -0.04015831738644051 0.13008136490083405 1.08911364269375
Ni 2.46043105306612 8.16566479461849 7.208500682986755 0.7484805261501561 2.4078388818751884 0.3923148611886018
P 1.58600115243373 -0.1785603866910389 9.580948634817556 -0.10547976430206996 1.3628656811440785 -0.3318643692120285
P 6.355595450507582 4.7978836523330735 10.486152951298875 -0.6199410518151452 -0.2461656441916277 0.1220492386249769
P 6.476171372437731 5.382166564921361 2.426266499690566 0.3414417284878184 -0.3841670352704868 0.044887604541309786
Ni 3.6850987483749242 5.094486298529036 5.605152700260587 1.2405315642888313 -1.0704438341983886 0.4478077520495836
Ni 7.44836231221358 4.690906794379074 8.574306121637527 -1.0705525918621113 -1.8328787656461079 0.6331979168250514
Ni 9.123302993645753 8.229662008030196 10.894854800113084 -0.7199811331588827 0.08596354864601323 -0.5279348965194779
Ni 2.3431013001498315 2.58241915021699 4.071931138202807 0.9087813520571638 -0.08784919570450031 0.17198880376789732
Ni 4.907996639673345 6.423013062343497 3.682072658616239 0.045379713686379906 -1.5675393767395067 -0.9680848749134875
Ni 8.833944622932703 8.71147051742665 3.981338263799845 -2.916928106443073 -0.06171058963591953 -1.165921235872108
Ni 7.201717656942817 6.702284467194264 11.533380830124251 1.3453564686157216 -0.9775131102059229 0.5105179865946111
Ni 3.550520283834131 8.936785824883165 3.3434293727000717 0.18309828341749756 0.49586141302370096 -0.6470209387510728
Ni 1.6408467368176554 6.391303309660064 1.056435444663847 -1.3553477755004786 0.08108205218399585 -0.8106626561058554
Ni 3.881886282379109 6.731344098846607 1.513935283329094 0.06457531277822427 0.3807934908125636 0.5638141269145903
Ni 5.254667316422099 8.58792352555161 7.91591702184973 -0.9920915222407299 -0.6546265190124727 -0.46626390187224215
Ni 5.256253721053167 -0.19691591356970514 1.6847332912906574 -0.22252923571961028 0.6408842297257156 0.5714891269613448
Ni 5.841196871406986 5.55550648828022 7.006445001811767 1.6179198860745878 1.126713712434711 -0.436947412296312
Ni 6.711298546687559 2.5578528033578474 2.5719268717264225 -1.547355188482148 1.4594203750423769 1.4044540461088262
Ni 1.1739302570215182 4.071411200962451 2.302496677569658 1.6566954641808886 -1.409963663073146 0.9337660470269595
Ni 0.8992658445791251 1.3939086425399898 11.248703728568195 0.3490974452608633 -0.5781979064400881 -0.7024739775130547
Ni 1.5942999743476995 0.2807670267890746 4.681910137826813 1.4904960134012588 -0.0879201581517518 1.3159253078387982
Ni 7.034219003815117 8.466008788152465 0.18870970834228923 1.29068375966319 -0.0022309462130477705 -0.1800355853317738
Ni 0.348272670327062 7.555843518460693 8.232092966803007 0.7065450622586349 1.78985855333084 0.8721878692038464
Ni 7.073888289560788 6.332184519738117 4.555979871017583 0.7631041896006019 -0.7320578618177586 1.3166611575635583
Ni 3.067767267634209 4.528534153903207 0.604724607406654 0.0005970101540505847 -0.5480180404225982 0.16945472449213397
Ni 6.809967412758624 6.9297363774197915 9.073305571854 -0.19419233644813005 -0.7059699064814552 -0.15316678596538782
Ni 8.083868671444337 6.241750285798263 0.7871372980601886 -0.15589729752267345 -1.0385940366776436 -1.2344604183940868
Ni 2.5991818534863125 5.318040971944136 3.666303062985904 -1.1519578317134807 1.5028193108533023 -2.2016556916137695
Ni 0.8227121926626694 3.720256409389465 10.771823160493918 -1.1774138098927398 1.0709752812218265 0.7830148124816
P 6.819925999055387 8.760318942107 10.827185014130611 -1.190182422412318 -0.6778610640603808 -1.2182604115954567
Ni 3.711709998313421 0.6423141441909017 5.792848210035268 -0.37594644713290737 -0.23744317671696527 -0.5524729908701582
P 8.23371513431304 3.6585425182502216 6.457464635747678 0.48855330939806185 1.89515371242593 -0.2553583664344893
Ni 2.776960041824576 8.977381277494374 0.9115554369869726 1.0492733707683606 -1.6930716888170778 -0.8757159369617629
P 4.005185685092076 2.498614803839346 13.424129395189288 0.5423387306496337 -0.07603060580301745 -0.5654254372657681
P 3.769462462859477 7.060665194312231 12.735019065372565 -0.3256428137823489 -0.07415215783338197 -0.2719728350627187
P 4.075785276159095 2.8422960707052756 5.6163327264235825 0.5945521794283953 -0.3819828831349744 0.08089487587385422
Ni 5.399580335987249 8.415087950485864 4.702739722332429 0.45659758242707177 0.8662442500259017 -0.4510895081246489
