# total energy = -340887.1412552909 ev
CRYSTAL
PRIMVEC
9.15057121707632 0.00000000000000 0.00000000000000
0.00000000000000 9.15057121707632 0.00000000000000
0.00000000000000 0.00000000000000 13.39278593010737
PRIMCOORD
 96 1
Ni 6.3149004953829415 2.17013109748305 11.272587397331144 1.4252984936580033 0.8871059239662594 1.9304163922829656
Ni 4.884593056522011 0.6229809336427752 6.326457666450842 -0.015235328892515698 0.21380805379652854 -0.8921627696638763
Ni 2.8704425908864892 1.7591789576102066 4.997048997803848 0.24461861141948196 0.9844864561999624 0.7847641910725387
Ni 3.9780917486506406 4.914789940547403 5.238413606875904 -0.9761745939001576 0.1812352620668298 -0.4264624536045882
Ni 3.715717428753646 3.2825385521239308 3.1310060127990518 0.019515958545740585 -0.12635249398602108 -0.5396365012271223
Ni 5.225159004902939 5.124365466254544 2.4879112092240905 -0.8164849192145874 -0.11298455731954735 1.418235930384267
Ni 5.591959640102291 3.5967417056935993 0.7284211322027129 -2.765370573946334 -1.7663509571272031 -1.1248805158807145
Ni 5.559228047932949 8.36367672136758 13.052648872830549 0.6777903587234456 1.104587569959633 -0.5572554998604661
Ni 2.669157482429955 5.629907057694202 11.606629903705496 -1.4794978625185422 -0.6576228826366352 -0.15499869696780402
Ni 0.765923832048067 7.758595219495129 11.59641146116272 -0.2155512617398804 0.7772861375279388 0.5407035090390558
Ni 0.7266532419015899 0.323741708693326 5.08912478753982 0.04030358471505317 -0.27590456601695706 -0.49077834207383864
Ni 8.862154072059479 2.8229877301120387 1.894115106463311 -0.7178211493930864 0.40626463850047456 -0.6909644342115584
Ni 1.553400918833531 1.6179947989351209 2.8379717899882753 -0.07553515422383765 0.3542669052769447 0.8785312949233709
Ni 2.2913029575631256 6.596106690226681 0.41299088707310316 -1.948416171294496 1.890105865589377 1.119165210663492
Ni 7.903677521380765 4.198666260599759 3.9373579822145697 1.0747419473531103 -0.9216777484038579 0.1806711620332437
Ni 7.661123338089529 3.688055252872203 13.02201916680079 0.009968424066621542 1.9021766807109821 -0.7488245397531361
Ni 8.037513771609673 8.983582148125224 7.114984323720462 1.5208903094224 1.1454701671066079 1.373193545432648
Ni 6.932829398822559 1.2407533623197158 0.5853812377457029 0.564973180219698 -0.16165065506668289 -0.27249451189414364
Ni 1.7664445109181344 7.10576603857889 9.50310581192573 0.9767878020041241 -0.9029783722221417 -0.2909511759374344
Ni 0.5199802772892526 5.6155406613548475 1.496496263473316 -0.8340964616487635 -1.2468068557745817 0.5964321700599275
Ni 6.721094338379056 2.208801410177386 7.093153806684286 0.2265866936184356 -0.4523858583385693 0.8986278085629297
Ni 3.4115066986251072 4.662618507222625 0.3198710171955257 0.8663866891410368 -1.6392932095440413 1.0499138325658368
Ni 6.238676239646117 5.6220101149930155 4.640479615946553 -0.3497281368663267 2.0425704832814175 0.5496244656777695
Ni 5.665045250014658 3.1811044735113616 9.31172253625825 -1.8648419488162657 0.2662901828556446 -0.4041403930686201
P 0.4786288473162983 6.062966976901999 12.730833359315204 0.14297750413721183 -1.4962902514855327 0.5116060774524672
P 4.141932720915688 6.780975674458502 12.977113655083755 1.0203170927453267 -1.4230729467615943 -1.3994519649085446
P 2.5094891705029623 9.25708356225703 1.7327182516901376 1.330165105587264 -0.6817128337063033 -0.8771130744196056
P 6.6792945304311795 8.08067701462415 5.970356793824487 -2.3233917698737017 -1.0287662519539444 -1.0879337634530362
P 5.055727033807736 1.780884111824822 13.00550604652436 -1.5352352652901624 -0.9378492159573977 -0.2803453753971301
P 4.056814110247748 6.738215056564362 8.646971991551622 0.7449339464494783 -1.2581235663389816 -0.7520034517017501
P 4.9489398712088475 1.5414594237871257 4.037817525024501 -0.565717257474574 -0.967201700977586 0.017406368401905507
P 0.3016302691300052 5.973611651899587 3.7126940801227404 1.2916782623659755 -0.12081356644566289 0.11236389301641293
Ni 1.1071184246509784 7.999520601163179 2.7055163609107113 0.22303985680744165 -1.6445943100419804 0.34683333181703496
Ni 2.159214466379325 6.889565499527997 4.955316904080756 -0.4409881580245889 -0.8411911637120157 0.38780848867781603
Ni 5.967133047690504 5.83789953463274 9.807161897405773 -0.20857791574584078 0.37753076090089177 -0.7819622028473694
Ni 8.670870537614991 2.4237117187290136 10.402498041251848 0.48776269517596643 0.6051924327510609 -0.48865641063482934
Ni 2.800449873943996 5.583403856295097 7.317911959656557 -1.6868547613730884 0.06747526003383862 0.26948477853354236
Ni 0.24177546970621863 -0.01884743091730339 9.58169457518745 1.0321840193862417 0.4109131930160794 -1.4894333764646994
Ni 1.6149019059652474 1.5573539654695825 11.703352353353011 -0.17483835740155051 0.031522753198629586 0.024273270725067873
Ni 4.2480244401249 7.493155458341011 1.6678974374298114 0.13462681817967137 0.882688511624854 1.2226989069827845
Ni 5.9113054145271935 8.202269800966398 8.204942682731192 -1.1262969366122668 -1.004042266844703 0.07969185670468856
Ni 7.146769746857007 0.8354251633323292 4.878429231952463 0.10921043498909579 0.7614630544527531 0.2459766681092731
Ni 0.9367256436095129 7.84707208968953 7.127988200050305 0.06828361486774692 -1.0802831888863136 0.24273579257447228
Ni 5.226888462806211 4.881271399279218 7.442906928265666 -0.08422882534309364 0.34608848323121044 0.16366845682766007
Ni 8.101393907179753 7.056188245351747 9.58386417555182 0.5742846874286109 0.3586066703028792 -0.40437359212534874
Ni 4.813319259651167 0.5184914794010916 10.859272580047586 -1.4080903573098331 -0.43699806302858935 -0.19926152344092132
Ni 8.573462710205808 7.43665068292986 4.902294835960532 -0.6083829146639006 0.7635690450521624 0.907378043951734
Ni 7.402619709690335 6.398436057282278 7.291246280947952 0.35157161783296875 0.23063438132524797 -0.48351754674636727
Ni 2.756884005809179 5.721568326567643 2.7971236414157437 -0.12783293518628952 0.10205248378807585 -0.3674538362808639
Ni 3.443332384273688 4.527171756512364 9.570578461637739 0.8935390811861128 0.6839741189366543 -1.1010996114110327
Ni 1.4059943719350312 4.071619733991107 3.9540458783955117 -0.6340075572105404 -0.5790517697999512 0.2831874728316155
Ni 0.6612952891284484 0.5493041968491839 0.46315706201019713 0.04557280353379248 0.013458439497751015 0.26904691966517535
Ni 1.1026071931890031 3.3812823628869646 8.436946257755375 -0.21605648351107304 1.1665642687727455 -0.33853046837829437
Ni 5.6478055744074345 3.1690806233267055 5.252623528452579 -0.9973697399205339 -0.33566677367725417 -0.8955645962565738
Ni 4.399466388797703 7.381582547152644 6.374095538643627 0.6275911121612352 -0.992243731547878 -0.70258453494899
Ni 8.128607705086274 8.032517559889108 0.30072161743796844 0.585697557251243 -0.7408708321236982 -0.5668135758625464
P 0.5144835293395394 5.8481573246304555 8.254830680312415 -0.650804317052905 0.3274348726857651 -0.49734673931997575
P 8.859591912202777 1.5909365607341857 8.20886644754031 -1.794416862125484 1.0184597278216136 0.6250400636046074
P 1.785120826159294 3.6171200271252806 10.601902707384982 0.4792209762535424 -0.6567700477180367 0.6582029235098213
P 4.465926985366317 6.672733571083843 3.9401306052023557 -2.0181881977823113 -0.38274444389134726 -0.28995461635211994
P 7.224467244511435 4.162320192918286 10.631916579992039 -0.9302225526500755 0.6882418930740728 0.8308851538003174
P 6.448041302222172 8.12856195223169 10.498631194132322 -0.6790170320416951 -0.19179632541212774 0.6915398470990541
P 2.6746844272636934 8.72165620620315 6.138957893080446 -0.6863942983423728 1.2199637674398085 -1.033088276368066
P 7.155087615820365 4.351737010895749 1.7146779011276947 2.239396657807969 1.177757309275088 1.780263453443237
Ni 2.862115571352214 2.0881968854941513 0.557875536626937 0.2980821305552608 0.06909531213576488 -0.6266513739557852
Ni 1.5036218130462171 1.335983353850704 7.143644826888925 1.7560053522268209 -1.1699843501978882 0.5314241406196589
Ni 6.799066353160987 0.8851283193810338 9.30735679887385 0.7035697816803949 0.6594655922723287 -0.5037652412518098
Ni 2.8079624926666766 1.979222736446151 9.544127821345679 0.5115106895251835 -1.5375621136511262 -0.4190777311047428
Ni 6.568343858065153 2.3636931240858168 2.7657710402835614 0.21549932545602238 0.07675205735007426 0.7686875972256504
Ni 4.1008466574993205 7.229024228827994 10.727928945336412 0.6524678207982569 1.471335381312408 0.453675009463638
Ni 7.696664155530324 6.327482530393522 11.991270491964213 -1.0619874759009196 -0.3682822457194303 -1.261285509006731
Ni 7.511987333287756 4.138501256821893 8.385169582336927 1.8914906617520457 0.558748796576541 -0.3532382069021142
Ni 2.8354142054170337 8.794778418399186 13.029760549796391 0.8835099790848848 0.3558188231450969 -1.011658131518748
Ni 0.13075433794413344 4.97378367124792 10.197923302550729 0.028298332724060942 0.31803620507968455 1.142894693069948
Ni -0.08745109119462872 2.744329422511349 6.272257004796537 -0.7828456338935872 0.7076640063544265 -1.3818843883384266
Ni 3.8972922074554233 3.136632698855783 11.48747391439839 -1.1269793073912722 -1.7445390034584343 0.6431545138171311
Ni 1.225645769736103 3.7510843853470224 12.776569742871484 -0.8260597073872161 0.9654392097605243 0.33705079850897435
Ni 3.154183493874178 8.767601222776332 8.227522631525451 0.7771696665547325 0.5617024798882262 1.220636110916485
Ni 5.760961534364405 8.395108932466739 3.7958901558410636 -0.1250859685687717 0.04489094697541946 0.057212444655249856
Ni 3.162190243426366 8.806143427477833 3.940653102801704 1.3180595805729818 -0.0016560475461842447 -0.9154137697720169
Ni 3.557522358744256 2.954765101884669 7.2821259069151925 0.39074803092211413 0.6852534998697102 -0.0027631645674339508
Ni 5.258430480756371 4.776433308285604 11.888935997173434 1.3439181935072984 1.3267632789945667 0.22811624288908455
Ni 8.402548346622085 0.07599640652099646 2.504959637899154 -0.832683897571953 1.5528745756384805 1.0279710097461585
Ni 4.595801038388256 1.1026071931890031 1.8800387832220198 0.35745533030725535 -0.9177269912862259 0.043323345377983456
Ni 6.006755019760185 6.030088975597988 0.5365858183319435 1.1809120528539856 0.82695136596355 -0.44236189844366397
Ni 8.079560644972302 0.2649749121515453 11.385488056359536 -0.8881780739845155 -0.3956837776608347 1.8173899259818895
Ni 0.23421435295767865 5.185893905099012 6.221618660400137 0.09491638696392685 0.24583937120046045 -0.682475937124573
Ni 7.542843058419157 6.491982343764578 2.7919407580484767 -0.14366733111538482 -0.27184736522844793 -0.9235623670210803
P 8.837191314598487 1.9626693536576858 4.083406584389018 -0.1931366414901061 0.6783968819591929 -0.8725557940662262
P 1.7586482244970332 3.612929065645393 1.729155934432233 1.5612116347492662 0.6738717403953297 -0.15390006458698655
P 4.665793755330749 1.4527171870361386 8.327901649311315 1.0774233508400155 -0.901505387221041 0.9787639518938887
P 8.747689580461406 2.0164655600774686 12.674115375601692 0.8711157191855902 -1.768845441414283 -0.022730094607664078
P 6.669439365553801 8.231990855304119 1.7768212583377692 -1.7377698030554007 0.3014785578313195 -0.9601213970920368
P 2.09244275039954 3.873967402188537 6.029324902926437 -0.3183321390535485 -0.903522931871702 -0.10683087901332569
P 7.010691606753489 4.483331371250044 6.194243812445481 1.7603888260064973 -0.9687862718558864 1.3102472836174146
P 2.2849158590632093 8.978201612426155 10.566425943940605 1.2887232935027095 0.5444084686944688 -0.2806035141545232
