# total energy = -381165.7321979365 ev
CRYSTAL
PRIMVEC
9.31269805557036 0.00000000000000 0.00000000000000

0.00000000000000 9.31269805557036 0.00000000000000

0.00000000000000 0.00000000000000 13.63007494627781

PRIMCOORD
 96 1
Ni 3.915095537570033 7.522555405669536 12.897308345181195 0.6697001255161434 -0.16788866555659474 -0.6517787651510323
Ni 6.300152025938331 4.5731959751335705 3.3678553208853192 0.5997833459203477 -0.6200919755707127 0.06462416373828869
Ni 0.3494729657439554 0.6636992316691769 8.841529602294713 -0.6657102876304599 0.7028763551577959 -0.34349346881052456
Ni 1.9558714831246453 5.832822209223125 2.898857599938044 0.3612063127092554 -0.4506768460672625 -0.7430151321602106
Ni 9.127841055625701 2.4443411245567517 0.4726790305114119 -1.4559884665426925 -1.9018774043030082 1.6924448538663561
Ni 4.3260090291156414 6.338715908824977 1.629380393784376 -0.37942026461412076 -0.9669343062488122 -0.5526352274796353
Ni 3.412805852137979 8.303955966251474 2.9635324257944022 0.9224362238364372 0.2463728751064273 -1.9928348066191872
Ni 6.102210627542856 5.589276528167447 7.4823385188678015 2.3712939928716192 1.418026128366306 -1.6867277488769212
Ni 1.1792390239766521 8.81191708483445 12.515189716201514 0.33814351735252085 -0.08999812372670307 0.2896265435887399
Ni 1.9810343934264365 3.1078429270259296 2.0779050791996534 -1.3014515397026554 -0.6625136350700332 1.002846446764389
Ni 1.8441749819552584 1.254131742202783 10.668668865591545 -1.1082071689900914 0.00048028207052820514 2.806305364487483
Ni 8.170970637195374 5.1487952201125164 8.836745669273977 0.35272938558649575 0.025283200046820973 -0.008728123901617226
Ni 2.445328270556748 4.70727088986891 0.5619039911337145 1.1797617412996262 1.4007488293430974 0.2421362113172604
Ni 5.828631495072197 8.89626219164545 12.037059963484461 -0.37359800150538885 -0.10139093894467699 1.137720605068176
Ni 6.373852718805975 2.53190842491491 2.0010315500848512 0.7741496487814861 -1.6589968586205557 1.0635869591775553
Ni 5.0476406932072395 7.7349780496309934 5.698980111940615 2.132539553542398 -0.8532869185342853 -0.16720526633632493
Ni 6.898232124162474 7.346806166877751 10.068127421256092 4.347675281920474 0.47409573921183507 0.1060124968770884
Ni 4.140742212852194 2.3865465200664056 1.0044126735678824 0.09585972471380265 0.8606986376173241 -0.4583683011742493
Ni 5.856653403694732 1.38353168248531 6.199830054244372 0.5415478593172222 -0.07354152083257656 0.48310462757866474
Ni 8.82413534475893 5.463359536979246 3.616808885735317 -0.20084043789226702 0.82538402147643 0.14041282873382915
Ni 1.3068323008252243 0.6186760613712347 1.449285850052985 0.27787994457577303 -0.8170868144646444 -0.24912138438584194
Ni 0.9914857173169882 3.6253588738730205 12.72183476225356 1.5458719190684023 2.6612552940919585 -1.6067677261125102
Ni 3.127334404176799 1.5065896753527672 5.449439847109487 -1.6892559146154134 1.1906868728525624 -0.021712451976427124
Ni 5.51741974952621 1.6387834250692461 8.593407661386223 -2.5945292535193185 -0.1444684868604415 0.1718623054923621
P 1.1575683754673005 5.18800167916897 7.008993630441298 -0.6640017895797855 1.608980674603429 -0.8654538929141223
Ni 3.973551343626414 4.50655430743571 10.42779779143397 -0.758215751160049 0.26680826014264375 1.0059407694189966
P 1.5916984234090479 1.5764628492958979 13.255029567643986 0.25768315791292395 -0.10008996074506633 -1.1568367570723366
Ni 6.153439779863416 2.0522672212940907 12.476588582522416 0.24318162186263925 -0.5375911886623194 0.9545675571533432
P 8.964030695815003 8.836307041192848 10.566497392052312 -0.5797966183857757 -0.49358958627038857 0.7953743624882172
P 0.31474032686106845 4.624080557623944 1.1836988751030504 0.6440307457744974 -1.2158474312785899 0.47332003738807515
P 4.596133150586313 5.922186860317125 8.754256583196932 -2.220108756112635 1.8388460389731363 1.152346582511467
Ni 4.279100968719593 5.298664470847796 5.728079499734844 0.8830921748211759 -1.4651343947080187 0.8847585067800053
Ni 0.3549153065212933 6.415024157164309 0.3300410898610104 1.0518329039654208 1.5567877946499575 -1.976450965944525
Ni 2.2982155784629676 3.6765507754011275 4.649477216648375 -0.7815881073374022 0.2337148200227846 0.4651796676691278
Ni 4.63158659230316 4.95631106281136 12.571645154703186 0.7564339766692779 0.7291448019360217 1.7776345004608225
Ni 7.01362576648279 0.905461531036183 10.60340827102387 1.3925660364219887 0.31655679232068057 -1.5013802644139305
Ni 8.788067264966616 1.586250495012842 6.16436543728979 -0.9562763123143339 0.10597701565346264 0.1543474365370503
Ni 4.910976848396438 7.4620787441225955 10.377298754645484 -4.4822283094394155 -0.6936993166442182 0.6891854879342647
Ni 4.686429071491631 1.8214892493515709 10.715324551868727 -1.427241733427303 -0.8690673212969936 -1.1408645500137964
Ni 1.4590483514850234 6.520760531541266 5.272181019953556 2.1662652279296175 -0.7851758246886607 -0.17781029554568087
Ni 0.3066578361686464 8.79110320455151 5.322694025789214 2.4213914237486427 0.2767147206230783 0.7182772630938984
Ni 3.5432208765148414 1.6563937372012547 3.1507008950125592 -0.21268062506030466 -0.2473342105784321 -2.152458403953512
Ni 3.9259541435699914 4.226735667229226 3.0112516221961076 0.3510849080045373 0.7346495338043347 -0.981696037939019
Ni 3.030892102516788 8.435181195364182 5.133645322822007 -2.688995954540337 0.1873884261524192 0.28787587944622034
Ni 8.043181793686426 7.493481162160213 8.047891225122259 0.19806956001534923 0.6253046301199037 -0.3590314165451236
Ni 2.28284031387812 5.844146450128743 12.118895298153962 -0.37436496157840043 0.4844146046393399 -0.499800600177107
Ni 0.21624364399729173 3.154322603308772 9.740120224662999 -0.32815966666693164 -0.7127869294032886 -0.5746163597364169
Ni 4.811722111906249 2.7141020508010105 4.55830590212042 1.4307865133557682 1.9215242319996582 1.0130879219867392
Ni 8.736605295193225 3.275499431157368 2.4911011130528005 -1.286055002641927 0.6205987400038022 2.249893443574235
Ni 5.953132956147196 6.937038137200062 3.3026077640950007 -0.4833378266353934 -0.08630087738077395 -0.17134602797757587
Ni 7.623560929405001 5.647192197733264 1.306429060996924 -1.013243473727997 -0.39002400827189604 0.3352178590652936
Ni 2.357733032104251 7.802467172857152 0.9316004121002346 -0.8083841444843239 -0.8073752436038354 0.1329751415088613
Ni 6.7996665273326595 9.057455683286348 2.944027910866174 -0.10833805968647148 -0.3465744217286934 -1.3278503414111584
Ni 1.081641947750608 3.093315117969381 7.404742324379418 0.5341862767458284 -0.37902688583044397 0.9449362047111661
Ni 8.102969315572992 8.343730499892832 12.684897807727284 0.13693798281135125 0.7174514247584934 -1.2694240789534654
Ni 8.80645984374013 4.048388185663867 5.96724728140752 0.8846266091878313 1.0575505231754885 -0.5562268014856356
P 4.7211281846613105 0.14954610011075267 1.0026954120358136 1.5299781306562812 -1.2935132586921854 2.064458541603761
Ni 2.417911687311569 5.192387959980274 8.735364843804552 -0.3484472132713741 0.12466610742253369 -0.022170879670084395
P 0.3274288780402656 2.639442150027709 4.419033570568119 -0.4050940152311411 0.30440113079475317 -0.581982570293501
Ni 7.44491544150002 8.700788658249966 5.6301611354238945 -2.3549983410353894 0.42416363026808235 0.663103189024916
P 3.322696185194925 8.984900452286622 10.949938424164063 1.3710407607557031 -0.3111873004786512 0.8907018688476338
P 7.497541498537556 3.253344522346132 10.821080482911723 0.9893041893035802 -2.617493832735292 -0.6812976005457557
P 5.670352877940723 4.19316339053124 1.1929678035350908 -0.8335177063271579 3.111705883081028 -0.8128786899205678
Ni 7.567656802631629 3.7567517315517667 12.939602894931976 -0.101606911610225 1.592043275418142 0.6611342382240033
Ni 6.638109840465349 3.698538055646327 5.899873635637965 -1.7225897528808527 -0.34414035836590406 0.1343152004765235
Ni 7.235193479991382 0.6208598890787734 8.016038072495963 2.6537245329325527 -3.172491389799517 -0.9332590254835539
Ni 6.7067723636537675 6.5697546363146655 12.370001958807725 -0.7171241233260617 0.24605302987316335 1.6661386118716595
Ni 7.148799579595484 0.7870142550045574 0.7422024829537843 -0.46842979917530936 -0.6743774763871546 -0.8441456183546495
Ni 2.8726041726872005 0.4650295802812523 8.86899461157008 0.9693750544798206 -1.665003469825952 -1.3069842965954264
Ni 5.683502407676522 8.229510257534775 8.226609352072522 -0.652653968667134 -0.20302459002777937 -0.678432877403451
Ni 8.992425112362065 6.455376078088685 11.178201967616026 0.44449951361195705 0.08846214669815088 -0.0013500862699912233
Ni 8.705193564457495 6.642887254597406 5.933240101707649 0.40007599319125936 -0.1694218143716695 1.622216970788045
Ni 1.2000156534671393 7.911081170951078 7.907365404403924 -0.2842997320591878 -0.46176164312651446 -1.362728384235266
Ni 1.5231383398998743 0.9432645664869828 3.738797780859382 -0.49073026244472256 0.16179386551276653 1.0923046388272222
Ni 8.574964794042897 8.213259599327289 1.2426594293971662 0.7393441110665266 0.2915805819913172 1.7593881526561246
Ni 7.610364836178636 2.7440982514235377 8.177840614593462 0.23485793248829231 1.8302284725074542 0.0910767015028625
Ni 3.9881443415697553 0.2104613897388231 6.867799157998439 1.319056140158296 0.2636985108690684 2.1680063789904405
Ni 3.4726678756094493 7.413168453632215 7.349922195666418 -0.45938542958485407 -2.1394108267409346 1.337067232023736
Ni 5.26761593533848 3.9236725325322643 8.706755303931075 1.8212429811793922 -1.3511802743863504 0.9685592434467449
Ni 6.940074076784956 1.6827672982577584 4.162120442640792 0.8933778730179002 1.3522701650164195 0.9648457991508996
Ni 6.249798267240409 7.667172294668987 0.9418369298662334 -0.7637968447922523 0.9716502236672427 -0.7486131950732785
Ni 9.111487957738971 1.9465867231058127 11.831804371990902 -1.5716320587516417 -1.8779432620849141 -1.0935071437757555
Ni 8.638961655476615 0.9938697680339602 2.7700126964630623 1.3451075858297092 -0.09983490731146677 -0.41829380175086667
Ni 1.6439519725220566 7.906881144102038 10.207590663119714 -0.3359010011752473 -0.9114061912745207 0.007665486965057766
Ni 5.036148823735585 0.30042577859131153 4.113311660559845 -0.3448916347096318 -0.3770620487945893 1.5745669730102496
Ni 6.6205274664276805 5.045927156754416 10.81750906318532 -1.1489925784375696 0.5240707855783814 -1.1191703528698145
Ni 2.7738243838007834 2.6603491572917806 9.256469904504458 0.4294176795781702 2.1906706533571754 -1.0659775708969188
Ni 6.7918904244081615 6.016934250920539 5.233853679598985 -1.132739606913817 -0.7484892679009045 -0.06663553774136266
P 1.4929465726169702 1.0571681771091914 6.909943773309599 0.7640215592085486 -1.853403367962021 0.0181563591940526
Ni 1.0017389979395908 7.9848191146111756 3.182118213367157 -0.8439021348852758 0.02696058774924389 -0.685543263195987
P 4.158799534493635 2.8886685769324227 12.417434324107544 -0.34266274537911307 0.8731180943275995 0.38090147714533756
Ni 3.690342881306736 0.7108764290406957 12.977576352758248 -1.6696813349175952 0.29655875193219894 -2.216516667886002
P 3.5976256588919933 6.442347613428357 4.227231102768847 -0.27495094385443614 0.6811587609750464 -1.8045971450925953
P 1.138766037976806 4.728326900302792 10.685174691727333 0.6910719063237002 1.412273542153245 0.09964747389100903
P 8.162896527931254 7.725041400744238 3.848601941772172 0.7359430558047777 -1.303368039999078 -0.2444229504689081
Ni 4.0946816079844455 3.0695491123845655 7.102604871874905 -0.9841401286041372 -0.6429668232863571 -1.517713454356315
