# total energy = -340864.2100267297 ev
CRYSTAL
PRIMVEC
9.31123207486124 0.00000000000000 0.00000000000000
0.00000000000000 9.31123207486124 0.00000000000000
0.00000000000000 0.00000000000000 13.62792933532305
PRIMCOORD
 96 1
Ni 6.147080023501643 2.2664098073407986 1.3575311120566123 0.10907210963901859 0.08195005661124596 -1.6327422957994009
Ni 1.014542559337264 2.4927006857406875 3.458482183809609 0.4368625658919896 -0.6106513989831032 0.25936517360103717
Ni 2.8197204750787326 1.1411101398865662 9.768554397464824 -0.5788939040658482 1.2599603624374043 -1.936645146801497
Ni 7.849461934736065 6.734199775692938 7.099905872959051 0.6572037928213456 2.171134640206777 0.4729706244684564
Ni 3.730833866113073 9.001112389577521 2.910530130255896 -0.08325643412749532 -0.9863553910879013 0.42126831099815837
Ni 4.794623533044337 7.212303620205923 11.110210789586285 0.3795133385485593 3.3766380092468817 0.9100831015877229
Ni 0.2562925999689252 7.870077003031228 3.606604335992368 0.9185829115286179 1.7361492367328422 -0.611304973406702
Ni 4.122436362630546 6.10824287361044 2.8154894511251096 1.0529922143808446 0.7372628030574658 -2.4652572718936576
Ni 8.762726220429927 0.846276487213332 4.911287686927545 -0.5216102398530307 1.2179135697789993 -1.2089039100812213
Ni 5.457667073347087 3.8639658654284497 3.061705435507302 0.005901967306731771 0.15907518103002283 0.07755835530145352
Ni 6.371918349663933 5.380514202573048 5.687234574390638 -0.8244627952137413 -0.7394559540540426 -1.336866943087472
Ni 8.506229704473801 2.9696778711463057 11.91476271377457 0.0038204021873547113 -1.0821724354892264 -0.8402611956985787
Ni 0.2515513204856835 6.685185448906244 13.04169743361933 -2.0767450722805973 0.07732181381061522 0.7151919393003554
Ni 7.444562998505181 1.0288725458351213 12.889718569021097 -2.1239806082287935 -1.7778185914471702 -1.0849520551168927
Ni 4.99894921446668 7.298935325453531 5.164467541941152 0.11377157199721696 0.533883657903745 -0.2273446548303827
Ni 3.4250064414723136 2.8708298291311953 6.535137733885436 -0.31643003693482924 0.07045491148745285 -0.04342773216633166
Ni 2.341691120424085 8.06789413308125 7.711473196657021 0.7326870107613253 -1.0264270622978064 0.2136872119479481
Ni 1.5143881312527827 4.120825519443977 10.764660716863323 -0.18512534114985538 0.400229230939672 -0.6435088118327562
Ni 8.499190412860818 8.231222458720572 10.659684952876646 2.594738284206331 -1.1463669678892645 -0.589024821852263
Ni 0.31771600603157385 5.688902216094189 2.0584853346374814 1.3982384042164175 -0.16147993381677353 0.16866693848351597
Ni 7.666170327062041 6.694431502572503 2.4323676249794683 -1.749800766078006 -0.16117551520247728 -0.28818081228114883
Ni 2.8122435555480116 0.19587294474738712 0.5866541905766786 -0.08859661539348612 -0.875390178191228 -0.4566268930031104
Ni 6.223311082278745 8.741543166964933 9.280020110537997 -0.6964575961156457 -1.9419084520829653 -0.47362702710553267
Ni 2.6356746575890315 0.04130183307897743 11.64022754749856 0.13259796067510066 -0.4881360193549852 1.6282603487686473
P 6.913329262532302 7.650341232165123 11.930734270525559 -0.4038516581836077 0.07583905861750165 0.5500546112366528
P 6.3021399748653995 1.7591338720560206 3.382166392818647 0.04208741608835332 -0.1360373253739528 0.4054128320231405
P 5.34840907362918 4.466402594740586 0.7979139466870997 0.1198370614650065 0.030790245907979227 0.11633341918712223
P 3.541908962902203 5.57728847460633 11.482089302738967 -3.5844991014313554 -0.607821899954108 0.7074562612189944
P 9.309863541158062 8.128240229567679 1.2496716594290092 -0.048562996510367974 -0.941642621561559 0.2672957413020235
P 1.8853010696167536 0.5334144265757369 3.5219335762655217 -1.1965057935271846 -0.5484034487864748 0.020065917511939632
P 6.158113833768025 2.52054127029468 10.966858781706874 -1.4736884549256166 -2.2975802081272363 0.7262852210000394
P 7.864695110766276 4.9069821731155825 3.703267031788474 -1.475556361372291 -1.222302185764998 -0.7924433048843513
Ni 6.68355598325509 6.095225770865797 13.697977294784948 0.295109163969866 -0.5242605329916843 -0.8045046069242596
Ni 7.196018274926682 8.271875298908776 0.4834280071377265 0.7320493771773264 0.05554739824800111 -0.6549237385379172
Ni 1.018881593585478 5.984664198626967 6.768965123702717 0.4793078795403939 0.1379761942678785 1.5338859503511195
Ni 3.3318103174586327 4.2022894907693535 13.226600815603152 -0.42139198106021625 1.8526508060667124 1.1061029781628948
Ni 5.039006135788175 0.8669474229022492 10.604041959821062 -2.395730785757745 -1.6099340396556336 1.6032818244464389
Ni 2.7014864474310434 5.50853433535995 9.088193827344845 -0.5593059546315915 -0.08017059611332 0.3865417061502504
Ni 3.125873792849722 2.4502228440231923 1.2914483653548943 1.366019653392028 -0.3973189992714125 1.1610392251894586
Ni 2.125791577262408 6.063651382162591 3.941169947980097 -2.0461628286183666 1.6337085163674123 1.8552396498398112
Ni 8.177021775547065 0.1833847199969476 7.650883145884534 0.31689669215860267 -0.49441593882642587 0.40827961204797425
Ni 3.6604968173770005 1.7919652771186882 3.970974271424536 0.8130144441674837 1.184464031871302 0.4227716350165623
Ni 2.0832206232219894 2.1282404313552843 12.824249432527441 -1.3124376064005139 -0.09300991396983337 -0.7619209679257781
Ni 4.376223309989611 6.801706209812149 0.37133473718681237 1.3752162322896315 -0.21287525756961403 0.7400089983440352
Ni 0.8151015503754655 3.471097041319224 7.158710960501105 1.874201535654295 -0.6077967031431274 1.3105722710570011
Ni 2.444198476730071 7.240525965283901 13.106293176523966 -0.737231178488582 -0.06549705326154526 -1.5832261913471442
Ni 0.5923061085781077 4.525789634300907 12.769396963093474 0.8551764222475142 -0.2757739539763638 1.3576198593641071
Ni 2.6308793729584945 4.063105190463977 3.1072084965965674 1.1446181035189578 -1.5048281137532147 0.4312791582669411
Ni 4.077975228434789 5.222837794935154 4.810427487614067 1.229177829838909 -3.4888144688428366 1.3957110098088739
Ni 7.960023506974895 4.493963842325808 6.980497698919303 -0.05993807111652903 -1.432658019346868 1.1865162864146404
Ni 6.202351498388767 4.009165221794654 12.280563785610063 0.6010223605337713 1.8417153901011312 2.5655642337455364
Ni 0.9931267250649625 3.2667434262000055 1.1346723538796666 -1.1248550619594178 1.0883291991192419 0.04803951990673017
Ni 9.125994637081916 6.059703419670654 4.823074003313476 -0.393970908734786 -0.2642839510588932 0.8616167785562194
Ni 7.168429093644583 3.8444867674729477 9.94757121839345 1.201875028258898 1.4283208254240949 -2.642125515241043
Ni 5.103141903817573 9.267953684610399 1.16328577071392 1.7024544155835584 0.4392135826226694 0.14891675243978225
Ni 7.561074448178794 8.925253780092111 2.766237687914962 -0.8786755338107188 2.227790441027609 0.83319349021852
P 3.0800532187392893 6.474583996918889 6.100856273032954 -0.3369908918053164 1.6418874526337788 1.1802237685377093
P 4.124689680845283 0.8379410720652606 6.769551731337132 0.0643004618502828 -1.137600534550544 -0.5264359433764482
P 8.422735884508702 2.2384109318378376 0.423111706594633 1.5323209198568448 2.362915281889621 2.168181985336356
P 5.602847807248707 7.771005491441103 2.940021596295314 0.27248885546718876 -0.1715936252120077 -0.05011414304757176
P 8.280693035889588 5.164605348179078 11.393289942613713 0.1680475597319622 -0.07249868139035902 0.3050991853030423
P 2.603364681534733 3.2627582187788984 8.722133903251624 -0.05252095271685148 0.1350561924076061 0.083617674121656
P 7.7198868261563485 8.427950174592393 5.215613209799554 -0.2833031724738734 -1.66426376344645 1.2223237830315528
P 1.304810914817581 4.234152527673621 5.087565143315776 1.0678326218277867 0.14935821085257503 -0.11318536047644379
Ni 5.680633841818623 0.24722904645559554 4.803818374932989 0.14257538360278674 0.15374065619098684 -0.23297074276790847
Ni 3.535456278923636 3.1693479364224943 11.133881804319781 0.42403610355128263 0.4460192926905932 -2.217942601699251
Ni 8.821089024438095 3.1955963002545023 5.31637843454365 -1.3569246330692952 -0.3691844458187255 -1.5669534223290496
Ni 4.256024612328246 4.928472497246223 7.453032495398261 0.04699256669945455 -1.4759497401559678 -1.260929668329209
Ni 0.74065452370557 0.900914798304578 1.3950907608773122 -0.597572454311958 -0.34911184343856644 0.7362909260624997
Ni 0.5812341222593278 8.525922960772027 6.136125358709747 -0.18236269080305367 -1.1759467384289102 0.06816637256359227
Ni 1.6124819634522163 1.345715158277677 5.5765621984875295 0.45895759801881597 0.736399426615906 0.5940011920209318
Ni 9.037267904568541 4.897391603854509 9.047064252063276 1.3174096056938085 0.6307162880537783 0.31748573189285323
Ni 7.347875162381885 0.7747010445823833 10.504584963214034 1.6804486007364285 2.8567064426478543 0.33545080101170616
Ni 7.146454585434743 6.51094435902034 9.862750547826698 0.014215886489065839 -0.6130034441550475 -0.11162135842343357
Ni 2.130614795589822 7.375929905278601 1.9977314061766493 -0.2711585666915394 0.42427110238022414 -1.1779763672644292
Ni 7.944017498664422 4.435898997750995 1.2263572648923065 -1.008660739453321 -0.4715740012312459 -1.4607756035186905
Ni 8.161425461457453 2.9086520547025385 2.8590166687219476 -0.7281752389339008 -1.3503534076096808 0.585257898610663
Ni 1.2171270403209447 0.8081991338771798 7.913998085754031 -0.3936176391604253 0.7421926362589153 0.0009371671022887086
Ni 0.39078403919897914 8.919518061000051 12.744267809383 0.390573710127779 1.81277685268991 -0.08796463823644206
Ni 6.163439858639223 8.573345066836735 7.063683317095526 -1.13113421009991 0.13956410758028867 -1.7078197936605297
Ni 4.556656369349898 2.2509904066647413 12.83248149299707 1.589901803595107 -2.335041438297488 1.3731958594254932
Ni 4.922615732134363 2.5570040559513463 8.99574167079132 -0.9825267613704304 0.9292609600677545 0.05761173697619756
Ni 1.930274321588587 7.512749152581731 10.360388426565711 -0.06167305152976475 -0.44977130353385764 -0.12927403850819025
Ni 4.815368958591593 6.900498384433506 8.330672006341764 -0.5031548613613205 1.3568464715331925 0.33685565177903276
Ni 3.042798978337777 8.781795624164568 5.284775181020337 0.21617115471206644 -0.4603133407157621 0.7091369913555271
Ni 0.23574922816241264 2.480800930871122 9.46898505204772 -0.4032096537242346 0.5903692516952994 -0.7923756848712096
Ni 5.213731409753279 5.117667426193568 10.465050402024136 0.7191907760471034 -1.7479421156027124 -2.6084543482408433
Ni 6.243488522656171 2.025733075049298 7.141076417662708 -1.825986409401649 -0.38229218684527705 -1.5844677770637292
P 8.19522523467852 2.2666425881481063 7.527523284859931 2.9051331706906742 1.3019570185841642 0.40818088168658095
P 5.268723547671633 3.139142298866257 5.263842599704007 -0.3192680206042566 1.1173595249133208 0.2937631914649328
P 2.2952466937500673 5.179894391603043 1.4105176105392032 0.6618081243625764 1.0378129355372447 -1.3318625478943449
P 0.43943150343335596 0.7250358626584574 10.550265868840082 0.7712059927721299 -0.8081378328014727 1.0970670932128719
P 3.801906502200237 8.404495180448075 9.395980335259905 -0.6057233655538665 1.5336674065824103 0.8461294815538976
P 4.506589873314174 9.138732402857789 12.812202560187657 -0.3936801169672446 -0.3171607444532667 -1.1038944005473506
P 6.263880121376317 5.404620982977825 8.121891831390785 1.3692170772834031 -1.2362198242873548 -0.10883222571407064
P 0.26226947997735583 6.9905566231646805 8.91852641476092 0.29849247861980205 0.47352469719971346 -0.483445041637219
