# total energy = -381165.17503478366 ev
CRYSTAL
PRIMVEC
9.33679840236760 0.00000000000000 0.00000000000000
0.00000000000000 9.33679840236760 0.00000000000000
0.00000000000000 0.00000000000000 13.66534823991563
PRIMCOORD
 96 1
Ni 9.240022515037262 2.048222808556932 2.664141523279996 -0.37493009005325106 -1.1681514107542077 -1.932064726519666
Ni 0.8348479643278116 8.542022137949592 6.605378739039605 -0.09873807470286221 2.7085641064802517 0.44772059165241607
Ni 2.0171032593871683 2.5941640864010447 13.472434325619403 -1.8232646395951118 3.4944516125239558 -1.463049744264848
Ni 3.2471984422461153 8.74911232714412 7.88267890740485 -0.154924649196759 -0.44660858953515986 -3.6807714882025446
Ni 1.5715605750691486 6.846823678060158 1.1581878297443549 -1.8037921326927968 0.916005637719745 -3.8307040835013506
Ni 7.022140742194768 0.5857515189932395 8.613692336384043 -1.3209728975650348 0.541401563547345 0.3543229553258607
Ni 6.1911843554529025 0.41779371938176435 3.1942345194677166 -0.39382384163396045 -0.06447966774062444 -0.762006585661049
Ni 7.877923675964057 3.2027085977234853 7.685706072989907 -0.6613741221489513 0.22527003168954104 0.6424896265396226
Ni 6.553256061799819 3.721414434545036 0.9877230997542173 -0.9940360475616106 -0.25854344903069026 0.2544397112749618
Ni 2.2287217958206202 0.8087992303858001 9.31180102033351 -1.0052175180997267 0.9015388115621378 0.689566011202135
Ni 6.9252341112817835 5.2044528236920335 8.393666946643524 -0.6733793741399435 0.0354133465022874 0.39063515949333366
Ni 5.4030091791208354 7.117292055002768 2.8192434851321413 -2.7670852426445958 0.5863210497678548 -2.067378800574349
Ni 3.113850287057826 8.128084516319737 12.585922120854757 -1.856102512060739 0.6443629323029355 0.6001021627123472
Ni 6.9879027023491265 3.4303210698688504 12.196787704256248 -1.3310526503985398 -0.12978131716191196 0.6913858380196931
Ni 8.937080753152426 5.410459944268592 12.95515981999729 -0.4121545216223483 -0.14958935302677462 0.058710883577647276
Ni 4.679724751882635 0.47146537148121537 9.167440111396125 0.1519426837502996 0.31452767770579376 0.5929768645214756
Ni 0.7234655611277574 7.033391584303849 10.574505905391772 0.45734783032953497 -3.6185186529099105 1.2681493260060999
Ni 7.800073450648279 0.9789633154664669 11.961538664674354 -0.0181023660276656 0.9561482713769016 -0.40579978304891406
Ni 2.9077964824891143 3.8489737747062462 4.0518166542946155 -0.32497998338736933 -0.2933695555709399 -0.6055469878770023
Ni 9.002578394144294 6.31665225276562 7.323669846477028 0.0034743317018456287 -1.3404096661334077 1.5047419817973116
Ni 8.659329673433815 6.18982118288201 1.671340138859282 1.69368052604567 1.316371137126965 -0.7678525029188648
Ni 4.666690581273277 9.112052355745098 1.0360653073093835 -0.5086238548956917 0.5957122611747675 0.11496636363626651
Ni 6.918632994791227 2.6494752803049395 3.2456569368251946 0.08714317077641122 0.7640267014148714 0.6978210521220756
Ni 1.7032747905320524 1.8251666940457834 7.226236620132548 0.8500995219452392 -0.724964702416403 -1.9892779425058644
P 0.48849755917863 1.9712969262857993 10.7018402287108 -0.16590120281292073 -0.777784417320596 -0.2961293777042642
Ni 3.8228867598906686 4.261482866176193 0.6448665245778308 -0.9609989146009836 -0.778500212440698 0.40645721412725483
P 8.587062853579638 1.5365475809537528 6.660750622133299 0.23905345862687866 -1.0157413004491862 -1.9088566638343192
Ni 4.197703196095588 1.7891826728935873 7.028744659724853 -0.1967071324501838 -0.14802920762850635 0.11838670217172514
P 8.87701712884727 8.254868902211193 2.864681014695494 -1.7305128643826713 0.4306556657503292 0.11533994492560137
P 5.636373119099556 5.565460135017841 4.853767343031444 2.883380609504931 -0.5907232926006084 0.11566287548265887
P 0.6157767953869169 5.2766262755619024 5.117508556704682 0.9330078287046963 -1.6701472188104205 0.3459105628924494
Ni 1.4324422784506425 0.11741677602586216 11.524097520354715 -1.6511285116160725 0.5950504592210526 -0.5398306195157994
Ni 8.494311097968346 8.397059005513423 10.813389760602766 -1.039352512110223 1.3179515942402076 0.8107534160474488
Ni 5.2199425722886845 4.170430407879302 6.558984187637098 -0.4618542028403207 -0.2404966188313084 0.44679268052150795
Ni 7.886597561706244 0.03311015459520443 4.853303304149435 1.3782660748595488 1.4040544966775625 -1.5751017624677968
Ni 8.60387842755346 3.121459777778906 0.1600317914235927 1.925753696699974 -0.23870404570725984 0.3970282075038711
Ni 6.555132758284404 1.7650003649578876 5.878299836919138 -0.06030393909638 0.6600654306398568 0.14155054188269817
Ni 0.9063930496632898 3.6954861453027816 8.277907452339123 0.7240270210934822 -0.4719547816094324 -0.5691028861173554
Ni 6.479177903050072 5.9567093364609205 0.9988768391596179 -0.48124906242716475 0.807518454049919 -1.508167719649409
Ni 3.470674712686648 1.024125409476112 11.36359795532974 1.7337794509490851 0.8722277213028461 0.5277382071276395
Ni 6.875011472522659 6.501520861694909 6.525709705389511 -1.1377267757157632 0.20241729546108364 -1.2500058223278536
Ni 4.103933729455343 6.378592573555363 11.47702044898692 1.00831878273287 -0.11481441143943452 0.6217691061628196
Ni 2.895443898165203 5.550661309505068 2.365403188048695 -1.143266731697386 -2.0406652958389047 0.9972494122925858
Ni 5.500214587583605 2.650521001729186 9.378993290240562 0.9978433371228428 -1.2412620146969526 -0.1015871141158831
Ni 4.578765950450695 2.2560879520212134 4.687747862774198 -0.27638973318349175 0.03717249528523921 -0.7727910778710627
Ni 9.22004176639541 1.1544391051743998 8.558717267223656 0.9690215277951439 0.3527566392800054 2.1471117949296183
Ni 2.6693533241640535 7.841519498882477 9.766200591642958 1.3631107072753492 -0.2787924290877134 2.0445661735552076
Ni 3.615507129944787 0.3798088223258537 3.1440819066968237 0.12547883313181615 -0.2303258489458936 1.3100940458690018
Ni 1.9285063790775705 5.747303621255561 12.537683551762171 0.6614574258913769 0.09698509656749747 0.7373093400246851
Ni 0.29380010254126626 4.378183509762415 3.0801696540785017 0.6917442498003763 0.22062764782152325 0.1711493385857375
Ni 1.6908661854175562 0.1405907097310388 1.8234356516167185 -0.887861056964729 -0.47577466957615483 -1.3620539838760606
Ni 2.485819877410364 5.441812913399125 10.203943314551912 1.014977168589652 0.6108144069235286 -2.780972027929017
Ni 7.871033118722147 8.569005485414525 6.936695031355557 0.4153668579120589 0.5014548479510782 0.36090549363938484
Ni -0.30311729369533386 0.6813379266081132 13.846824070136035 1.4586264183861717 -0.18863078319995255 0.5712183897984614
Ni 1.4437304677534462 7.475582357985221 3.3211029365450497 0.6083654311624038 -2.5681142538608994 1.319342046829831
Ni 7.4131565236770784 4.314413176480241 5.560430401703184 0.5927284959560953 -0.07728761813857013 -0.7648108878790635
P 1.3091778655675879 4.71341192062086 0.9199426115460264 -0.5859310134182878 -1.1228287755580082 -0.41463846438646657
Ni 2.159050605930198 2.47077829513839 2.160709755011346 0.502971798816237 0.5241530608795425 0.43643319166405486
P 9.283223881376445 5.104306323723571 9.308616238388774 -1.6363199858483304 2.2044504807500878 0.949320964042423
Ni 5.091384194695381 7.074678906964723 9.22259351340654 -0.1880764533583793 0.2165305949340142 0.42469816261531373
P 5.1823526218063956 4.678165506544696 12.697787236533681 1.1566084431116146 0.734879904647586 0.163680283902202
P 7.6258207815347765 7.186580436157528 12.973909044926124 -0.13106712585287106 0.2888066187906058 -0.026729959795676543
P 5.711646388048442 1.5624945437928688 11.481202401004062 0.17971445454692922 -0.035019196387662266 -1.3620853513346285
Ni 7.533675917821486 3.886657093172843 10.112522052717004 1.185459563015352 -0.40285355593639655 -0.47280967341055985
Ni 4.523389398957785 6.840540012716249 6.934344025510688 -1.14703802581436 -1.5063332375438316 -1.9455823013901266
Ni 7.482743682381623 7.404407943547445 8.939993834262829 0.1256950629076803 0.4761677912495154 0.17343196397232713
Ni 7.1867204881339894 1.4793877009605654 1.1763320301348748 -1.3690712957341582 -0.10863707898412904 0.33045257646616644
Ni 5.329780669028289 7.922217447719641 12.739343458989362 3.227097250069855 0.6177497005907812 -0.628494083591479
Ni 4.6427603668952075 2.3907899429819643 13.219844050312037 0.5483602542533652 -1.379280375056676 0.20214038765061312
Ni 0.44090416285761175 7.964681206982792 12.931942937019333 -0.7818768422224147 -1.0957231775904677 0.5561602099137584
Ni 6.236477164640579 8.804442194644876 10.61406778770264 -0.5192808203889057 -0.07692457837219654 0.8536535578450848
Ni 4.948979345029245 4.770282359862695 2.7874983704675156 1.3487307844045935 -1.4437700700996297 0.3781892204204971
Ni 6.918212838861843 7.422857457246651 4.17686813039732 1.6368650597185228 0.26125159199047265 1.453981720525309
Ni 1.0602961665969235 4.028669797304888 10.984753624281787 -1.6791167692988824 -1.2863046567588878 0.7141110475313508
Ni 2.679866559197103 4.215900616237163 6.316041626148246 -0.8148219296898678 0.07720148618266703 0.43578475944677847
Ni 3.535798881741284 3.8823434922978257 11.638203467657027 -1.1779326585106875 -1.025314031739286 0.33132032378310033
Ni 7.034521336913972 8.371205410658614 1.20971855396363 1.0144878876580594 -0.22875593335561245 0.010556435359607626
Ni 1.1938123841569663 0.14590241435830512 4.109115652584421 -1.0162377804696305 2.3608074915179986 1.351021894431615
Ni 3.0631514715787334 3.0391558996116483 9.231366369212093 0.46154618468159875 0.4524341950780015 -0.20859617057828592
Ni 0.6101831194470412 8.326911638903033 8.825846805047423 -0.6701917204405812 -0.15421476761392794 -0.4151107760371948
Ni 6.921312655940859 6.154061244892152 11.035479516476329 -0.4515908732410997 0.2370433701753853 0.48116884400853266
Ni 4.70216107851178 2.332920466308038 2.122146910132571 0.28118561191023833 -0.1170633553746113 -0.0234101513938242
Ni 2.4891904616438727 7.473649640710051 5.792946560384391 0.9871866287399449 0.12067241288210831 -2.0846792395260096
Ni 3.7746155120035763 6.119972593821403 4.443137749085611 -1.4956315348556113 0.5098921800851541 0.2421351828759959
Ni 9.050513517287879 7.144247392072407 5.249474865725217 -0.4021421316916687 0.414405265329738 -2.1965055148713977
Ni 5.107947675111572 9.151584360300987 5.185371208739063 -0.5980918171505377 -0.551644838541908 1.2499394878662924
Ni 7.315045445766524 5.241295830299861 3.068759152716255 -1.0728709555826426 -1.4869340070816133 1.795804743611946
Ni 4.9619014740574325 4.703150779145442 10.008159054577206 0.39990887148577575 1.1002066672831181 -0.9617185663758275
P 2.7358033185958597 0.8312663684497673 0.041929694392911866 1.9794552999884876 -3.3918625395061195 -0.4355955262541079
Ni 4.205975599505253 6.55073512622351 0.5205815996262926 -0.07983558137140444 -0.16637248602238444 -0.5405235318177659
P 3.2623894132929814 7.591199932953473 2.0445543804534814 1.6831986526777398 3.068830680984057 1.8890164891799401
Ni 9.147578873774187 2.4980510833546754 4.802741739607274 -0.03457388132012756 0.495961686046991 1.3602087031372059
P 2.7152623620481604 0.374104972164495 5.59809224553339 1.0742565230762597 0.44929307834585847 0.6327425744551877
P 3.6931052617029345 5.177142688282024 8.024333078477154 0.3718123703598758 -1.520402571152704 1.650129895148229
P 5.7290221699281085 8.427833093141249 7.351902457571997 0.45397428587161165 1.7667435645799314 1.2338857768375395
Ni 1.9066582707495634 6.329210246655008 7.6376178263520575 0.9809948981069364 -0.04494468303149034 1.3360092230728668
