# total energy = -381165.01359739836 ev
CRYSTAL
PRIMVEC
9.33579740641727 0.00000000000000 0.00000000000000

0.00000000000000 9.33579740641727 0.00000000000000

0.00000000000000 0.00000000000000 13.66388318115214

PRIMCOORD
 96 1
Ni 3.2132133613533433 3.0269922140565204 2.3024596628251657 -0.19699612444551234 -1.432632051204939 0.05379776254674606
Ni 0.7441816036560618 0.36377120612874964 2.1742380893838718 -0.1574615566859998 0.3989416224765 0.4520315603229441
Ni 2.0383499592593597 1.457542006345275 11.674544200562723 0.07036055200143367 0.1776154059260554 0.24183359247517708
Ni 6.8170644860967196 8.943749758722628 11.896513982603066 -0.5995493755326706 -0.7898830003563427 1.5166947832838136
Ni 7.488065576025624 4.125124698737731 7.494899379596149 -0.9125459613059187 0.319500705440353 0.5639604226844674
Ni 3.3355963272085627 8.21680857180658 4.249563407142444 -1.0364366240150087 0.7584443222310874 0.718454412101711
Ni 6.455834483973293 5.475024963049999 3.416434995401433 -1.634124006638276 1.1210153764983533 0.33170753191919006
Ni 1.195112746280418 6.88534650701861 3.1059235788758137 0.14919751690499466 1.1769749225831083 1.2387497897980602
Ni 2.097370869331577 2.579966235412425 8.322069685546573 0.4072419148120793 -0.07742465793706665 -1.9291861194202904
Ni 6.236284540574316 3.2497723432962102 2.6959793868193245 0.5823314689924873 -0.4690895442464953 0.2464680059233949
Ni 7.801113528657953 8.2676139803186 6.859433134654256 0.24508372398135855 -0.04758006377180837 -0.47599809844087054
Ni 1.5142289671106186 4.688549397214222 1.805873671019195 -0.9060690953323234 0.38084491287578925 0.022338258485884107
Ni 8.110604542546607 8.798045971393128 0.683095615237123 -0.5614890783258394 0.5697798575797219 -0.9776560635416905
Ni 5.298830461975506 7.156374036329989 0.07348205997760536 1.2745598575181338 -0.08026341293744242 1.4099994014070878
Ni 0.9737796656109903 4.619399147150174 7.302894705916893 -1.4052839982092895 -1.2865381129259328 0.5114407555191967
Ni 4.190055168454951 0.4050372970337186 10.633234045706654 0.009091163667990794 -2.269452339542769 -0.808310353823595
Ni 0.903322403935093 8.576470159995784 5.166559953276648 0.09464590691135959 1.291309566172647 -0.18141549639843596
Ni 1.6585883996393584 3.9586020835909204 11.328971263969526 1.3447566302481937 -1.2210644567031552 -1.6935046625894383
Ni 0.23209071981466933 4.994922254828893 4.271084286911264 0.10373629924840198 -1.5211193947140706 0.34545856295669536
Ni 7.433236438908551 1.722155842961365 0.15632138951632796 -0.3266352596026052 -0.015298063809651073 -0.3389426162150485
Ni 5.558160237360834 5.059600658020972 10.130061648956687 -1.9084481155419908 -1.367977034228715 0.9421815247841645
Ni 4.663193371944348 5.574115114822621 12.377100285120557 -1.4035623875324925 -0.7647471245206635 -0.5060146994076189
Ni 1.034835779478801 7.981686518632142 7.58643407067256 -0.19272500787398422 1.557064702460428 -0.17482370211353115
Ni 2.6682828771845184 1.1305277010606147 3.971735683130559 0.14348246879808838 0.34815616439351654 -0.5555194910059659
P 2.086681381506096 0.5537658826649258 7.103360711773664 1.1727462292137414 0.27600381059898277 -0.75744596287356
Ni 7.9384897848605265 4.304661415219669 10.109401529692242 -0.9377111477176366 -0.6546928534740337 -0.6925220085066655
P 9.11119661779496 6.408277932896439 6.942072678132309 -1.5369165096473274 -0.6506158551911827 -0.029950780725819387
Ni 6.342367204470331 8.375825205982483 2.0434473045455714 -1.8446109664813715 -0.3291767950775363 -0.6991631679722669
P 5.943205858211597 0.3432249835904808 0.035354664100519816 -2.23161572831097 -0.9169145226872596 1.8053875022043746
P 9.085280444691437 2.8133891734914576 7.670808205275483 0.4362444726920164 -1.3564374090202318 -0.38936477742134235
P 2.6912676099586084 8.882777667029863 2.0974604929849607 1.0221299775843495 -1.2919878231865942 0.9729213770701826
Ni 3.051405323806417 5.700624503052393 3.881950520454581 -0.11571249777367168 -0.8650430306289488 0.7966491154355828
Ni 7.743483652372632 2.9051040454543586 5.222609279091353 0.8545868682926314 -0.5690290954566265 -0.5087709219965173
Ni 9.356896129228147 2.821035191420775 3.17503555217123 1.0006077872418573 -0.07538423046827016 -0.6946274848854423
Ni 7.873540643548851 6.330669450544281 14.213170592272082 -3.3579486603674944 0.15437751844403735 -4.3812423192426415
Ni 3.248801420384551 7.480970370132727 6.340888414189496 -1.5722426957524471 -0.014618778354439338 -0.6133199469542018
Ni 8.880247665981214 2.941784392761183 12.094380603361463 -0.033977642497025354 -1.2111279143157336 -0.28464271722090334
Ni 7.472904241328173 1.1882602711154377 2.884569025872763 -0.4708597487730407 0.20843316263786038 0.2552094995614508
Ni 6.244005244881454 2.1958635300816387 9.281492762181124 0.1925152058560233 -0.1270610900172715 0.5428676065699103
Ni 6.458401828210854 6.255908386346509 8.614559279104238 2.3448178009579617 0.5388330314892205 -1.1619995322201988
Ni 8.440288885838331 5.636664956246832 2.3978883149251637 1.7223830361866854 -0.8103186425028753 2.416887879451334
Ni 1.552206990232064 6.163521336983228 5.69048769442278 -0.16721375097675717 0.7026467556454931 0.0010091579908047136
Ni 4.25506966034722 5.835704153137003 8.185636344863976 -0.31840798659680647 1.3154504250849086 -1.331892629801332
Ni 7.210671033005094 5.33074021689908 5.507392172037721 1.9900053075901922 -0.05878107469395038 0.6161170500833648
Ni 5.255185609936971 4.884638482180506 6.271736296966003 -0.5905996225385506 -0.03822793313294707 0.5501445998472977
Ni 6.335570744088716 4.002937784624289 11.981762881406205 0.8709493688110549 -0.6851905078422587 1.068681085871011
Ni 0.3863432966653847 7.228997202962665 1.0621868646161903 2.0465613496083654 1.9266201584653273 0.911574855641901
Ni 6.842401839772138 6.3821190290650005 11.59081236880905 1.4484265950350346 0.2584079518940905 0.24230307591242783
Ni 3.626350396061636 2.36860378618196 10.000964377735453 -0.22945295942263708 2.6963660217521626 0.5618716584762389
Ni 7.286767116206398 1.290524593945407 7.472995732141003 0.5141172739100952 0.482619203301814 -1.0147647954685297
Ni 8.762065808878367 0.19287570356058076 8.909671298103106 -0.4030474171147575 -0.20440064443969955 -1.0054034088582877
Ni 8.966006299312973 6.4663279200569965 9.59063835157236 -0.7225445230106846 0.5377603672503319 -0.06586112146918334
Ni 5.052356079372436 3.1171106646935205 0.6295604196157814 0.37684813301157033 0.6186318460854184 -1.229047989129264
Ni 2.782954474529827 6.559415154212339 0.6151067383481751 0.43165736754196626 0.2426136651743112 -0.36506348167181646
Ni 5.678536006812141 2.3972273404814572 6.155811835632764 -1.0137931755838798 1.15437595423667 1.1425853893596452
Ni 4.6491149897252875 1.9433395508751534 12.200057160078083 -0.26479457214672464 0.4997435216869265 1.2340914650904424
P 5.438017862840214 1.8869139924321794 4.118758618608303 -0.24354569007027738 -1.6534854418840232 0.17911847283414314
Ni 6.117178439545948 8.676279168154924 4.519138286405225 0.5254478684315661 -0.018171785813020317 -0.06998979892557623
P 7.660572437195258 8.23099898359237 10.228960416886144 1.1276681059281806 -1.7313155627896248 -1.6773013133566985
Ni 5.018131046736443 7.515839572777418 10.645203471332024 -0.7206660750410492 -0.4599742122087885 -0.3383880292631592
P 3.2605925322828755 4.8442611591715945 9.623459280305338 -0.8175074469418308 -2.0452362030390394 2.3470477187297454
P 2.5580551193194965 8.08804925644498 10.477383180370593 1.1407043702868482 0.2946566498134796 0.3869631099583852
P 5.092443992667296 6.5228655080667 4.759499588983731 -0.6370026352831223 0.3725173668467004 -0.47601712460426404
Ni 0.34134755476803175 2.5275924129661833 9.728506604288823 -0.9018380879701113 -0.7047455471560508 1.1436953345943723
Ni 6.862632512364117 1.7960860212058902 11.419754423369124 0.640813267278464 0.617011536873176 -0.4128739162868761
Ni 0.8913725834839006 1.8975568012715225 5.6464217979292854 -0.18993407539240836 0.2453763155211129 0.3634305740540838
Ni 5.379221011901456 7.391524096896108 6.712833110790917 2.0155512743800967 0.44733415484727473 0.05442228350462241
Ni 8.348256596769694 7.11188896254098 4.817857657452796 0.6905893102603268 -0.6368403986736452 0.4620259525314946
Ni 8.269303759616777 3.652369262934662 0.6995592936478087 0.6215011972134136 1.698786222703352 0.8370087501995521
Ni 4.195264543307894 7.201951398394614 2.5940744921826138 1.6742607267581617 0.7717225273972322 -2.426351853077712
Ni 4.802847562670431 3.602011972689559 8.285683415852414 -0.4217383086560414 -0.22134575693447042 -0.47789788656674465
Ni 3.0704410143532774 4.01668007814316 6.462742973921639 -0.8504257949364065 0.0335976334497873 0.15842803436432715
Ni 0.322641417863302 1.0121497922159906 13.567429368901607 0.21724716138506456 0.8784852721767837 -0.91942289093141
Ni 9.199587945944874 5.171658232142582 11.819587013448514 -2.0424136459885793 0.3498456362807975 -0.8784847579561517
Ni 4.342163312682512 1.2497458316557133 8.04032092669914 -0.3870520701277657 -0.8050784771498586 -0.2510378846822644
Ni 6.22710745189969 8.581940937171098 8.60625135315149 -0.5289854492711794 1.569377201279194 0.9549107994253747
Ni 1.8419901361734783 6.233203727489244 8.724826247317615 0.9195933550710033 -0.554906025791683 1.14110340549748
Ni 8.352943166977896 8.34189891885777 3.0247189474316256 1.0361823419123575 -0.14364084875282357 -0.2865003392549324
Ni 3.5344021291680474 8.033976318903335 8.423333210913755 0.7200387258696954 1.7787297904075305 1.8458903474144275
Ni 4.20816661507629 3.713574749558113 4.5059524064011125 2.1960612282451275 -0.5224903284651389 -1.0854212814438273
Ni 1.7211849200497058 8.502997435815407 13.092527633315937 0.28132368014999937 -0.39927715143904785 -0.9713424626188368
Ni 2.1961062608095534 6.241223177307661 11.403329955306793 0.11598040672307766 0.23199063824282626 0.5074848561952421
Ni 4.004683578705831 8.815270517277854 12.93231881783408 1.0256130510369434 -0.036064606933041116 -1.271610802192139
Ni 4.21215300049243 5.014350048859308 1.9185866181061757 1.2063135236462257 0.1912913607512512 -1.127495070685426
Ni 9.217494005027206 7.5322985832894895 12.231990254494725 -1.504440905617125 -0.465509797315037 -0.28010806257534343
Ni 2.5269389071602593 3.5780189738148995 13.438155651112774 0.9118934153235844 0.1391154500786443 0.023204463140921328
Ni 2.756459481998199 0.9412910912593111 0.47757830865079265 1.0368444009763886 1.334933730620501 0.5091725283103102
Ni 4.8751626479946 1.1480229850649384 2.006295499478759 -0.05073763556418358 -0.8163026280004522 0.3344298159463595
P 1.4034877403980845 2.423909048957635 1.1592110044623674 -1.9964366650378325 1.1433736895888953 1.1069753534655193
Ni 9.338224534773158 0.24345238504052957 11.094103144479678 -0.15709183205140687 0.8272218460161171 1.2177083957467287
P 8.276053541012255 0.5105458094002422 4.79589986237373 0.6910749916474936 -0.27922925951481586 0.5059766470808318
Ni 1.776051400355688 0.3210646017115783 9.318549342116215 0.24218660493922164 0.975847806688358 0.30487961309306844
P 0.8835725249003294 5.774470659121871 13.392819152616617 2.109927729680153 -0.6912392851394998 1.0187973136666906
P 6.438161819821648 4.912645873862989 1.3578104853031245 -0.46921604252203064 0.21446265666139194 -1.8143259423445852
P 2.1717118226541117 3.4235675444832383 4.231322192939643 -2.2518824489798055 0.0681990255737406 0.5836617577681368
Ni 4.3921098278496045 0.5059843388748886 5.762673945745209 -0.7722097514462959 -0.5094772040349226 -0.06873021548686227
