# total energy = -340895.7914264606 ev
CRYSTAL
PRIMVEC
9.00563527719593 0.00000000000000 0.00000000000000
0.00000000000000 9.00563527719593 0.00000000000000
0.00000000000000 0.00000000000000 13.18065753174698
PRIMCOORD
 96 1
Ni 6.353349484417445 1.7544688246183797 11.279769595634406 0.7999480979018287 1.7752660002286458 0.9908977590429449
Ni 4.43206928083497 0.11301621769205446 5.998332939744822 -0.015361570057734832 0.44129694751425935 -0.7867411122932515
Ni 2.464725253714117 1.6085595247222353 4.629020719352973 0.9115817976204366 -0.20830435036947995 1.5504317705249426
Ni 3.3666666259211633 4.468145855047039 4.699115179593169 -0.009750137408228369 -0.47228799657913495 0.993319224000244
Ni 4.830802780538814 4.698852215048239 2.553515412422674 0.29468107529351184 0.02425347323072597 -0.4165457087115085
Ni 7.098466726986702 5.7243869233727205 2.6050645683006843 0.23430720219114487 1.413268816186979 -0.5579072745118521
Ni 4.909890267990236 4.490146621597236 11.339412115777117 1.167656987616292 1.0594724227885497 0.18306845862082666
Ni 5.618912925077223 7.65727539059957 12.309943106599087 -0.25895533975712826 0.8662743319328887 0.5355656735918582
Ni 2.1260953626701204 6.3985937951616885 0.3554767326262527 -2.1895108287211196 0.0480901706390075 0.305264507236313
Ni 2.8589379245975777 1.6409708054484557 0.3828331503706372 0.05763024891895881 -0.42123925753243585 0.2763920471763369
Ni 0.5598353060143085 9.052644515590819 4.708354961206147 -0.4900748882489108 -0.18554006008977075 -0.17907707807324644
Ni 8.462036954438556 2.1739783244987714 1.432539883868014 -0.3689548463064226 1.5692147075594007 -0.11905750298650464
Ni 6.616395080064063 0.818769829237608 4.803585049574975 0.42877644644974544 -0.08563984675800736 0.05737005327903668
Ni 0.9155308755735002 7.2905659293126295 2.392487452320034 -0.6794399785117267 0.8091133093408646 0.11076955194609954
Ni 7.627043473567638 3.753701805629632 3.831366402735196 0.6776882859279425 -0.8864261242904152 -0.4252452933680354
Ni 7.503089912046188 3.9894783381923378 12.563050983912447 0.13132449327931575 -2.4630255543496613 -0.2486693844500879
Ni 7.937125501343471 8.726442400985329 6.634404549137776 0.1995831684463982 0.7104027454418281 0.7093776466114236
Ni 6.732153513644179 0.6959167563254228 0.47903134451275653 -0.19788084104331083 -0.594835257886453 -0.5525023014461969
Ni 1.791139770747074 6.452483515602284 9.24388458032817 0.19174078958384397 -0.838716219808962 -0.34310831755696397
Ni 0.02605420290887149 4.733668000346258 1.4234189766383623 0.352407997691335 -0.5109720434128942 -0.1502187590806574
Ni 6.517864426430949 1.8541341882741404 6.972923670870038 -0.686322821674489 0.6465285724956865 -0.19617439987516538
Ni 3.274196764710596 4.185837205920738 0.17791262535231844 0.02533590766162733 -0.05967967524881979 1.2350155195666086
Ni 6.035531616090397 5.58764536000875 4.6989836973207035 -0.526035622614236 0.13984641470739786 0.5906207055844731
Ni 5.135013134229209 2.8960951750216917 9.342977185591547 0.09022000992952203 -0.6092617177244282 -1.246985547444291
P 0.08336516412409643 5.443258012444566 12.484705560793296 2.0480482185665374 0.5171902564084642 -0.5730942666649356
P 3.9761229813384937 6.082829211637525 12.59968050411968 0.9851508292568387 0.3464993455163839 -0.7460690884951862
P 2.4199942641705947 8.60717176971607 1.3971630475032428 0.9338143837663918 -0.5833835644060856 0.020798424802589987
P 6.303953575891933 7.639471250006144 5.785029969575081 -0.6422253171346424 -0.111922177493304 -0.27321442077930364
P 4.681075091360114 0.9189800338169407 12.412791962262828 0.5750249080287452 0.3204892946058674 1.1298530293946412
P 4.140782013513602 6.110620601557257 8.081219265203382 -0.07015666352074368 -0.1374311203976859 0.2587753625358382
P 4.566541424153648 1.281465852241809 3.88693657468552 -0.29631449713187674 -1.6634854905195289 0.17036515212154532
P 0.12765397698419084 5.512727481608797 3.4934281444669075 0.10320510933528032 -0.19152301714608308 -0.07240200791149466
Ni 1.3622103765516986 1.2082860614162276 2.460828515406188 0.5199372230259819 0.22350059849394413 1.3360681013352602
Ni 1.7438601864701477 6.552121862352744 4.567783301233988 0.43914981926426944 0.8052358286633294 1.4094815812304047
Ni 6.098363932185657 5.627351205166268 9.2083105205547 -0.7815531403344089 0.1309858789929744 0.009867379712383006
Ni 8.624174408785562 2.3053435237078235 10.195686551831908 0.012658312193958845 0.4135102643192943 -0.16514092760812848
Ni 2.316114263287862 5.414989323864515 6.863642990617616 -0.050540431951712955 -0.6015170407820027 0.5771776927056899
Ni 0.48611697820972516 9.056516938683977 9.339497408188764 0.649246742757798 0.6563345028425148 -0.3357230808364863
Ni 1.3783124521111545 0.9767691942559952 11.595076692895473 0.2015166380236852 -0.059787661581593814 -1.203292734542031
Ni 4.138134356794094 7.0406775665476475 1.5487666104733493 0.7296808769451497 -0.6608671006055457 -0.1079973885176011
Ni 5.800844765374836 7.83598321353125 8.084659417811721 -1.1882903475959277 0.29257482758378645 -1.1046263936173686
Ni 5.308803880396089 3.098352733740832 4.682375505068608 0.15301971886456228 0.36657349055843963 0.9079007492244234
Ni 0.8087312477912291 7.398228296937516 7.018041002159367 0.0720094004587663 0.2668000326125276 -0.026269989440122498
Ni 5.135175235661015 4.278775360156524 7.0059149144967225 0.3617107631494996 1.1689672217872835 0.21412249971315384
Ni 8.331095020079221 7.108417953772608 9.284323484182858 -1.037922978752548 -0.6282896808901566 -0.2673397071660815
Ni 4.763377590542367 0.28677904639012386 10.315208440320468 -1.7023546567809005 -0.3907200058976561 -0.5994156781682838
Ni 8.030261779551465 7.1410543753763385 4.453229821630302 0.09659068934255623 0.4461162232797736 0.7297428405313369
Ni 7.266962159714567 6.028894463021427 7.1374052920336695 0.020552627340371055 0.1546305149951079 -1.0152083107638514
Ni 2.306334143568864 5.327022280204131 2.62802533555258 -0.3777436482426462 -1.4031589814464869 -1.9066282887244326
Ni 2.2598110326403686 5.070856989774195 11.332202204315761 0.31503187103572194 0.28023533218182706 -0.016753822419571147
Ni 1.1771445752391587 3.444313211756527 3.8402369533090575 -1.1245714692807276 0.2092397176995558 -0.21849877440397855
Ni 3.470483587358193 2.839386690794681 2.8166933909052667 0.005525043583287258 -0.15030900480161857 -1.0254634128329565
Ni 1.19583126807242 3.3049239916730477 8.108067765128105 -0.8293108673346621 0.46496472344484435 0.2890387894060699
Ni 3.5782180000638824 2.571108821154751 6.939734303271146 0.3972992017770706 0.4996270507137202 -0.6996881872378015
Ni 4.121167740265003 6.664962470160341 5.837607568981554 0.26955625520142606 0.788653755934932 0.5481010870547077
Ni 0.8177359823280859 7.401245184696139 11.552753810177787 0.02459877238528667 -0.32772489312235814 -0.13089717593391006
P 0.2449956012149515 5.488934593673628 7.953920110242146 -0.009189122698435788 -0.1611343775518967 0.7689205391720628
P 8.69261723554835 1.5242577745477006 7.902634819472577 -1.4689331996288186 -0.07766762718580818 0.8112079870863641
P 1.7845026176781034 3.0220119649950217 10.337418137604992 -0.576930095471258 0.8984941111985429 0.4520135626008151
P 3.8402639702143584 6.319182104846654 3.698163153402159 1.1079719130508336 0.6281858083224408 -0.3672602322128191
P 6.807476645623647 3.8425514015298514 10.212992680804284 0.972406385106977 0.145417223926956 1.5738964293057862
P 6.313985853393742 7.740955751952179 10.16898214206879 0.9978885885384815 -0.5300707119155581 0.5812400357005216
P 2.305406563153526 8.354734812217686 5.731568917365263 0.8226403972930221 0.48282489155471686 0.6209373542901435
P 6.660936951270477 3.799081200900381 1.5900358338842906 0.6692152154599249 0.3847082524859375 -0.37204916896103024
Ni 5.123071662086122 2.8300748641009017 0.3200683765386301 0.8210702245924246 -0.3876562793706678 0.24598566697033766
Ni 1.6224552196821014 1.1103948078752393 7.0178825029816 -0.35946901830317446 -1.0076963186575225 -0.4558645609157891
Ni 6.808539310565491 0.8247711844684925 9.155587930423113 0.8694411596966446 -0.3137347494908532 -0.7027056339078867
Ni 2.900399868599667 1.6560912667819718 9.108071497943047 -0.45034363109755987 -1.093441837755459 0.31055095244623293
Ni 6.206962885860982 1.9826896293318779 2.6707705825564716 0.6710113881283992 0.06391505348640605 -0.7769938030985006
Ni 4.113657040591297 6.850073299648383 10.393449398072455 -0.09563629584908691 -0.42085384916855906 -0.3759348771686816
Ni 8.351952070971672 7.0850393250520565 0.515421314826319 -0.7784616458932786 -0.03063366572545692 -0.27824786943815305
Ni 7.589264834321599 3.783942728296664 8.177925377165161 0.7992325598920429 -0.4078864903746137 -0.24389895964463804
Ni 3.1367077336332945 8.365865777201739 12.490952769862421 0.21329280472300682 -0.22714076634969266 -0.7148708085155108
Ni 0.1681748321182917 4.800372739534675 10.225237642850253 -0.8605572269434535 -0.6524814476450117 -0.4144685144675056
Ni 8.729027018259133 2.5092941418258325 5.91435899468794 0.19927952116305034 -0.1299579519490923 -0.6351175024452674
Ni 3.6796214512940133 2.6190187998887033 11.293635571998442 -0.6520204488481932 -1.1684571149200844 0.5642879812272152
Ni 1.178846640273128 3.1993959595669486 12.6067976575395 -1.5263680447075196 0.7114427566705683 -0.4948543119154252
Ni 3.136185406797473 8.254988397846022 8.126982300529406 0.6440153191555296 -0.06490441398286886 -0.8311605189488911
Ni 5.656232276933144 7.936828315385159 3.582278640930638 -0.5860001760933263 -0.7373041978183624 0.14080749306908652
Ni 3.1269636364546973 8.521059886886363 3.501705223687655 -0.13180477534984397 -0.6999278140524333 0.8413562285349703
Ni 3.253510820885053 4.357142396799917 9.066684300712293 0.2901793307684164 -0.04285591882326168 0.09786030008359921
Ni 7.288521650144846 6.04197064518716 11.411048340746493 -0.3238340427083842 0.6462485793614225 -0.7552852077768154
Ni 0.5480739465732294 0.09166205574206446 0.5939180326151572 -0.9863335367110303 -0.006258065094569868 -1.5090244112227496
Ni 4.624294562052301 0.3423474172134278 1.7583520544736582 -0.03033104688337357 0.8040654625043121 -0.7423420173525861
Ni 6.134746697991139 5.614788344201256 0.37503877319126966 -1.4013826062723542 0.40807006714032945 0.2110700860400752
Ni 7.87671570109021 8.833816588287004 11.341507727064972 0.25663131960964186 -0.32861423770584697 0.2651936073573562
Ni 0.07963052724797429 5.10312418033881 5.689628774139345 -0.16932591222375354 -0.9275475769210736 0.21053992456821805
Ni 7.898986636693418 8.840913028746094 2.720434859007975 0.06823862056242443 -0.39642862624665914 -0.8991751964259675
P 8.446772402943434 1.6372424725169037 3.648445743703564 -0.11779843376842292 0.9351287317024412 0.7826972812411811
P 1.687385848755747 3.203376450281311 1.559192434229044 0.47730524728806834 0.30604843659018904 0.07599666724128848
P 4.668908478339518 1.0351977547871756 7.962711411227124 1.351021380210983 -0.501886021951226 1.301860859325932
P 8.410524721664459 1.7538924639719564 12.414504834058917 -0.5226523079642998 -1.131541729950974 0.08774018093046179
P 6.439695513759763 7.645315907186283 1.4885711443354768 -0.605900257451363 0.13959187549443056 -0.41779526484789337
P 1.8540891600986387 3.409920691308226 6.009245968359446 -0.30856194704066214 -0.2716560751532483 -1.0543474428571582
P 7.014966478336101 4.005058086915972 5.904078161657361 -0.46478757443703184 -0.23790443262409997 0.9080226195142684
P 2.358620860961594 8.248900588518174 10.150108132025442 0.24284172202471724 1.7923926326066033 1.7597810172191692
