# total energy = -381174.73762419896 ev
CRYSTAL
PRIMVEC
9.19055111638223 0.00000000000000 0.00000000000000

0.00000000000000 9.19055111638223 0.00000000000000

0.00000000000000 0.00000000000000 13.45130055396918

PRIMCOORD
 96 1
Ni 7.371603350073026 0.20241545928799734 3.2688144142385074 -0.2775796397265348 0.631309441553087 -0.6708656065791543
Ni 0.6958258304760454 1.4549377972950006 10.125197295802057 0.34260335289608734 -0.05395897071495868 -0.07485149789325174
Ni 1.987374006524422 7.517163301771981 9.050129798771446 2.5218518804592502 0.32637943483805726 -0.02147951003001462
Ni 6.066140679336417 0.9597049397815388 6.890320830397918 0.24743165538824485 -0.40334463664020215 1.8776902655338434
Ni 4.253570958789652 4.757102884138961 5.7445936177057915 -0.41733992247802965 -0.43284058921679003 -0.14944562836005876
Ni 1.6207445335370043 2.673761140801779 5.827332474958287 -0.22840137822967116 0.5728425556654457 -0.4965404413685965
Ni 0.1382994161615027 6.1306675401066135 9.770298642510847 -0.24172586325271916 -0.2989395934595497 -0.4339988711909494
Ni 8.039756430544932 2.570266342463483 3.220779078744773 -1.0332060328928527 0.24871386453477812 -1.3184506453638132
Ni 2.127033624280283 8.333394545002667 6.524352158049921 -1.5613759282412725 -0.8542749934791675 -1.1359799682279856
Ni 6.82404868393334 5.875638931715762 6.060120868226251 -0.35330299870177867 -2.838898467932156 -0.3187525144204188
Ni 5.9290544159482605 1.371303780344597 4.800513534211878 -0.9024546385081877 0.8514310962724692 -1.802939040663882
Ni 1.1247304791619177 8.282864893882524 11.080831740406966 -0.218055773329289 0.6147713346887477 0.8593084421380168
Ni 8.40729576811236 7.2562067877840954 11.972868488979445 0.04649402979648122 -0.6904754103902818 0.020295259913926337
Ni 1.7572058394358607 0.804000457543039 7.855599839550932 0.7176807671604801 1.2502109963601242 0.8873859171005234
Ni 8.192135771318304 1.766203389171514 5.650070635559472 0.39712513809305156 -0.11779920509937133 -1.0733504663222224
Ni 7.544192713184194 1.3965318436994165 0.9690370255849938 -0.43797122557513607 -1.9352145850025577 1.7114021116951492
Ni 3.4677788215083862 4.914187787184708 12.12746459072957 -0.9617638177914662 -1.68221109195349 0.20121119096812445
Ni 5.265882614288126 6.127846040853451 11.609293036193414 1.6924512816242596 0.23799570678632562 0.6519692838952835
Ni 4.086983025686023 2.563428572286439 12.946069753364466 2.104952387952749 0.86891614043111 0.3940809519500891
Ni 4.524168361105117 5.053590069503799 0.7990302073928436 -0.32573717326836804 -0.6676550700616566 -0.22164503334244412
Ni 3.0906077861646923 7.559789078762747 4.254337450769175 0.9194324040131068 1.6978459702772695 1.4945203040693034
Ni 2.2985476928878033 0.6912976458440164 4.783954917910829 1.0404609146830532 -1.8824663467662484 1.7308149690041221
Ni 6.841262586543022 0.14956519396126147 8.901627032541994 1.0424961999455271 -0.9722114954873514 0.8482812377895778
Ni 3.0262187836641945 0.4260031916362853 10.127349722919615 -0.319152835182631 -0.2397047190576323 0.626686855179411
P 6.104786947608554 4.1783371057395415 12.629708919839894 -0.2548667715100514 -0.44347981409819104 0.10862448057863873
Ni 4.66454484186341 8.526772935184365 2.6236496597663863 0.4384851890970771 0.13341480014944118 0.699655277117337
P 1.8377058783884526 5.015706616990659 5.752112407735146 0.7147499666669304 -0.46420701934321346 -0.25773252309362066
Ni 6.0603873942143345 3.5390239752885546 6.837040447269723 0.5930288008053335 -0.04106385991984541 -0.8106662556502813
P 8.718331596206042 8.880076108767598 6.569050404361821 0.09970429527087346 -0.26754333853645534 1.0136286249815576
P 7.3288948581204405 3.6645485251246654 4.840611909591505 -0.5622946049462703 1.3948687164132365 1.6798263937713973
P 9.131474449389724 8.368998740790126 2.286398703106843 -0.20289192110465704 -0.02744729757767531 -0.1734795293808109
Ni 3.4281859264509866 4.465027163404474 7.961918894307783 1.1260704224237574 1.2950780320761437 -0.33561226629023494
Ni 1.2916860343180754 6.009030593475999 7.534167659811722 -0.39547294720160925 -0.7898362062788075 0.16605649744386242
Ni 5.504763424021631 4.271180055105803 3.46006427273606 -0.2092633718486396 -0.4867198557337488 1.0739096812598021
Ni 7.7548033870782 7.107025758867727 3.5546809985057752 -0.4165935312303084 -1.3614325482419778 -0.6319198214435762
Ni 6.791651990554199 8.120201326189646 5.481378066205114 1.329933449192432 1.5938810999578295 -0.6268601475324818
Ni 4.043033809306152 2.227596636749659 6.609485153919513 -0.6669284763082771 0.06380243916794173 -0.8647121296520914
Ni 0.1606103985295027 8.553701250532132 4.477587889884267 1.2320168419496007 1.3862436937483866 0.7237675967845084
Ni 8.321584686565165 3.3886941274580322 0.20937638285263863 -0.12136995316976516 1.937969007819243 -0.28858627524968367
Ni 0.978113614061941 5.6881424943745325 11.885327568665787 1.0894769395704398 -0.005165346251023362 0.8497123138091496
Ni 3.0282315144017926 6.80897617977964 1.9506540778075385 -0.11759171707425554 -0.14573526938800707 0.8387550434666974
Ni 2.289954527409932 5.03451048497753 9.85922549796254 -0.3385767482351975 0.0533673598775468 0.30488192708591366
Ni 0.6089493870223338 1.8713341056435653 1.3300648575469975 0.3145464467588712 -0.6044218731336236 0.07556575035145696
Ni 2.680194526721041 8.303405776067596 13.2144099562774 0.3641065170751859 -0.37701705448926687 -0.5262770492010808
Ni 7.195539958565456 8.044250610137102 1.0884755923414835 0.5994444745236902 1.0311236964425274 1.6214556671419882
Ni 2.8488962866267125 1.1083253450678001 0.9240327339143634 0.45316207438296147 0.2539774269265626 0.8766106808618902
Ni 2.0451090498741404 9.108029352989671 2.6786652189825193 -1.048046183229479 -0.8812301819117725 -0.7327500027887768
Ni 0.46071866111175347 8.214459620458143 0.17538053354499653 -0.28314993472546074 1.016790567649307 0.8861096214912609
Ni 0.3228705010197304 4.525988090265137 4.245512683398211 -1.464237336815046 -1.296862377670076 -0.2736368530287029
Ni 7.30380465303532 4.658396363034858 8.644357767740976 0.5289201432508827 -0.21839104518152064 0.6117124932577658
Ni 7.536877034338862 5.164906027009655 2.2137078756051034 -0.5604256700583315 -0.902574966136136 0.48126808859055825
Ni 8.940016884432492 4.144966213921199 6.789328619182214 -1.106978438789313 0.023003145763392643 -0.9729437456676856
Ni 7.063177638552301 6.746756147389065 10.069145961452923 -0.4880971956972498 0.5597546121332361 -0.6605572826746108
Ni 1.318118059894928 6.540566128676724 3.727220732639852 -1.991765227704092 0.2372151198665592 -1.0597935535733942
Ni 5.532748652770419 4.0623615387178775 10.345529734875198 -0.059975352112367666 -2.275083312576301 0.8037481883742094
Ni 5.2380168627064085 0.5492438894710587 0.722430638417587 0.22063690379290388 0.6203742826978219 -0.0252456619406662
P 6.3630598206129765 2.4057279023027056 8.671475408445795 -0.28157333426696024 0.07356106121660234 -0.1269343346314201
Ni 3.5335004539493027 2.440431424061466 4.298524702428059 1.1543052488997345 0.7699363820310868 -0.8395268886357155
P 5.128180583961983 1.6430132393689632 2.8243832481640623 -0.14483152662681506 -0.20394581629046812 -0.8578120600981485
Ni 5.017572298907246 8.007617072602562 9.902470718111818 -0.6900231533442117 -0.3000207423388704 0.13829295417734894
P 0.06894843500699159 3.670209904733616 9.827776350423795 0.44421694937453177 1.2881118851709557 -1.7831572300512646
P 2.3235368019084786 5.998296029542145 0.1473723284179245 -0.15524783686413263 0.007677828260231939 -0.36407206429282457
P 0.3730794018990436 4.025029519283532 2.100945325322545 0.1896602529057314 -0.5075910427558032 -0.555825966502791
Ni 3.160161878503226 6.938241284000237 11.207274426319268 -0.8650522866003294 1.3724543532737783 -0.8453542939507699
Ni 6.033302839494243 3.231903322054308 1.373337649350215 0.2998628766047674 -0.8046935830066142 -0.6952316941283445
Ni 7.557932587397474 2.529285674157785 10.533162192375862 0.0904336686022249 -0.7776280942483899 -0.46993775117940356
Ni 2.8181447019326407 4.6832843759910885 3.721154049717988 0.23894161563936267 0.1373151636451119 -0.08221128069243261
Ni 3.6620854573727195 3.0753147087794757 1.9001042074745043 -0.059789975574438964 0.0566804834111798 1.1314717959449867
Ni 8.970943089601514 1.2904912626473553 12.592260180403873 -0.7848698634124677 -1.3845760762379768 -1.320327550671552
Ni 1.9933938176345887 3.4905254360086335 0.2457323657375185 -0.37743794407676934 1.6644059454512687 0.9965331029518514
Ni 0.7594272027289991 3.2016204554772116 11.746752435964888 -0.9176855965253293 1.9795427174959712 -0.14223934041960665
Ni 1.466876323450888 3.1578366690209783 7.973285768171987 -0.06846204942714017 0.7053754674305658 2.510973800094166
Ni 6.908950996964968 6.119381543093966 0.052812584066351614 -0.4831462794498776 -2.035511519552107 -0.5992734961634647
Ni 6.3687028191193 8.227399916707174 12.384962700258287 -1.913989357075194 1.200005836260643 -0.7819791721282339
Ni 0.10888321857324368 8.646259292807683 8.919342739253379 -1.3607743458326886 0.37295856814917705 0.14345907175932068
Ni 3.6772590575908644 2.449759833644396 8.802410435840008 0.5264984211832674 -1.7681658988487547 -0.2553388260504635
Ni 3.126423364632354 2.996781447807915 10.809519313199331 -0.1792483135437881 0.33015458560977334 0.012960931036042194
Ni 3.994231981832894 9.075696993469723 7.88762799182241 0.284741961802929 0.6063232039213945 0.23969623441720006
Ni 3.5603920070918167 6.751011372647091 7.153630125521991 0.7368408850286987 -0.9533059168321002 0.06982164877882814
Ni 8.052466963011131 6.988375741413913 7.91898247668263 0.6680186240486625 -0.08820272238917712 -1.3011072689893592
Ni 8.97363592113629 6.511523986526913 5.6851923274029845 0.9032323972144767 0.34399072016191723 0.05281123026376066
Ni 4.755218821119748 7.387117000689759 0.3969435874389797 0.6183767926518189 -0.09110344097573989 0.1290603798354874
Ni 2.1711206989298533 1.6216635886683273 12.277796276670355 -0.7905710275623029 -3.4225861938422213 -0.7501010924727145
Ni 5.825816953046735 7.378275690326432 7.451226610430336 -1.0363666900090216 0.11398523066991983 1.7008629027267224
Ni 6.355385710266429 1.9176085315056843 12.52454695549338 0.20821281909693817 0.1422059160785099 -0.8888213639954692
Ni 5.082044016369562 6.596775540508445 4.5257169690013965 0.9298721112891921 -0.15496861506081697 -0.352156029581529
Ni 7.9510216576156845 4.863713279372443 11.434116532887572 -0.5998643356699281 -0.39060970557203695 0.25497527206345766
Ni 5.267849392269158 1.2735438860257569 10.2831828728765 -0.11861553035307958 0.6283313327613695 0.7198716041642118
P 4.255151733615528 0.31054137643303076 12.14355173174825 -0.06678928971040757 0.26720446713979784 -0.2722425437843376
Ni 8.71886464818221 1.5730547627726477 7.900163903813658 -0.8900434093280284 0.5584325508877028 0.48404513711506314
P 5.423877381913883 6.159461537370966 2.3787279006546944 0.5707453068167848 1.3577252745937196 0.24784997387258603
Ni 1.0096739672715767 1.984589269476513 3.634636037765492 0.13365905494976335 0.9889766307608321 -0.24120444353161039
P 7.688806038097886 9.11226619714507 11.012243575011453 1.295128682808421 1.098680974667211 -1.1248751165640758
P 4.6945428013497965 8.55150470876827 5.827924346462859 -0.8404787110260235 0.08178987688429785 -0.21476424706221076
P 4.95153818772168 5.7985945400569445 9.446768259906827 -0.7301207926960458 1.7680959648427679 -1.8169510386722578
Ni 0.02650095471170209 5.948611909142817 0.8441447856792328 1.4515648835537003 -0.27408833874382477 -0.31110373962590937
