# total energy = -381169.157682858 ev
CRYSTAL
PRIMVEC
9.30736925468814 0.00000000000000 0.00000000000000
0.00000000000000 9.30736925468814 0.00000000000000
0.00000000000000 0.00000000000000 13.62227570753502
PRIMCOORD
 96 1
Ni 8.793127837562459 5.117182333047193 10.647770088234035 0.8751207265799251 0.45592832427418895 -1.5353280821142847
Ni 1.452154372719283 5.470229465284876 4.4532988498152175 0.34363847902882105 0.07491706102386453 -0.5674537805497065
Ni 0.4488032090564047 8.682323606061626 4.06258479402576 -0.13465021521843906 -0.6611571210421388 -0.30677503034356846
Ni 8.639742391520146 2.969469637898653 6.522986006659029 -0.09941890281997072 -0.2081490557385383 0.3077561633099151
Ni 8.067730089161621 4.888788797826784 12.90450465366271 -0.1704890792939193 0.10413327757650452 0.3937199690662445
Ni 7.997515295172349 0.6820235459951102 5.1904276064801165 -1.0951426224966492 -0.367272059287361 -0.7350346850578955
Ni 5.190664013660304 4.899017596686039 12.475375361829865 1.4628589684102806 1.5223188143388104 0.30725916906883854
Ni 8.892363009025027 3.315610702116713 1.214051389846488 -0.6047926262094809 -0.35525086645676884 1.1384153171423557
Ni 8.80705166203329 7.193377202504644 2.339761883994516 0.22511036618322522 0.7443009408511697 0.21559599893488673
Ni 5.999502327823843 5.267170589295486 4.451678436820317 0.36485933608081034 -0.5560979892172552 -0.8045022929314144
Ni 6.346853350050732 3.2510827107689364 0.3149269398010632 -0.6430719814056537 1.021369445269241 0.5360256439474124
Ni 1.693773679713121 3.2628751476703695 10.723019238276967 -1.3999615575551114 1.290265698289165 -0.4488755311924656
Ni 5.2847522099007 7.443968813502413 12.807336648921378 -0.016881092026054798 -0.773835459975177 -1.011450386383316
Ni 6.2496751072031715 8.09836994889289 2.1871657028687315 0.050235242006468325 0.9176763405539485 -1.4316051526023217
Ni 7.302338574884339 8.324138805971069 10.864923113552422 0.3308904353345334 -0.5843983788238452 2.0823914719330974
Ni 4.441299789315354 7.077630757906209 3.190037537012728 0.2307325974660091 0.4422626538616383 2.314315004383414
Ni 1.4594048134029578 3.5434830246563944 6.16871123241085 -0.8990088460514323 -0.15063990577847605 0.5891364077294629
Ni 5.275947438544145 4.354564414820918 9.66392810135813 0.5481180563355722 -0.7049183252884892 -0.1411579344299698
Ni 2.295792940690603 7.135960041301063 2.4781103441978756 -1.2641767145115972 -0.4608036500886193 0.5177173325565279
Ni 5.156580427288522 7.092997224618337 10.281916946578292 0.34417352559668474 0.03780652932481231 0.5204517007685553
Ni 1.1454486322197475 5.323880390432368 1.3453318338044264 -0.14121886957489227 -0.005606290443183892 -0.507326733350823
Ni 8.158179104006233 0.5361417010813961 1.759684746138682 -0.2380129331775062 -0.1397451132428432 1.380771357779906
Ni 1.3646930234195491 3.3381717652967233 2.90873719175088 -0.018576734560922847 -0.8554075644217138 0.41169815081121997
Ni 7.785977405751858 1.1599215914792012 9.44437842844533 2.146453592520329 0.3820703006424581 0.03669529853850455
P 2.9927752906225575 7.042960807268612 4.932789386186313 -0.46491895780857345 -0.017661164725188937 -0.24245811343305343
Ni 9.247448455139123 6.17627719291375 7.9993274399748024 1.4376027649466532 -1.9321881394714076 0.9071278756141409
P 9.258980285700193 7.07691409047021 0.24201580092596192 0.4821000975735504 -0.019393574035263376 -0.6869350013371911
Ni 7.45991233711106 3.211619464942516 10.893461369296048 -0.4729413138924177 0.8699584656526952 0.03077404795806313
P 5.801534582840834 1.967996701360249 9.979039327071305 -0.32975812150230305 1.5567194033058676 -1.3276510809161586
P 5.142433225954522 7.495438565724136 7.86977909744335 1.9774431546544655 -2.6949740265006423 0.318127222131594
P 2.3768135904356478 3.671059135633457 12.794981116177375 1.5051577291784917 0.8241830591897934 0.9167312030318598
Ni 0.390146306262238 3.2065934855212266 12.711040744683334 -1.205576131259569 -0.16451563531930377 -0.7474009199327322
Ni 2.4899353568918534 1.2813362239805348 11.859744073253056 -1.223721691820344 -0.644038201973665 0.826071791572074
Ni 1.8785808045077914 8.345322378494872 13.278244860062157 2.1710896459014544 -1.518508696564101 -1.1678467350295951
Ni 1.95377504107186 1.7701778742860184 8.075175984600568 -0.2582829962804519 -0.5396457571985028 0.1518043584002224
Ni 3.3592808788661386 4.131960063304291 5.415059103029996 2.0597775911883236 0.3567652462187662 -0.627954409037925
Ni 4.024692632136958 2.3571285043689305 3.757514358312003 1.2279269881509434 0.4982875059666902 -0.3090041767844033
Ni 2.052991597795832 8.928698978767091 6.495373834160623 1.3862056414215997 -2.502189111923 -1.137966659640711
Ni 3.118685382495156 6.297366067489629 13.450199438592275 -1.4236727851291224 -2.3137071955960864 -1.773589126746855
Ni 6.812873330835843 5.992503186111233 8.84843129519831 0.3576129389310422 0.6129013713595445 -0.21610764846398264
Ni 7.665204981732134 5.062520153156021 2.3851511318534087 -0.8755120484810728 -0.5932722842747074 0.06668618847363998
Ni 4.125696203766276 9.180379551972806 7.633705121077667 -1.1120877349914202 2.3388029622224495 -0.8838812463813746
Ni 5.204811214994303 5.248546543328819 6.833424002247337 -0.39987673269625973 -0.8786765622519834 1.9611989248814612
Ni 2.805929851951476 7.26173052263418 10.880015943607168 -0.12601747924410553 1.1879640746047606 0.6612303974822354
Ni 2.3297089944150073 6.113108077483581 6.816205369044772 0.6861035065748312 -1.6094180192511636 -0.723621043904315
Ni 9.363678882941091 9.48681537876268 7.212517807467388 -1.8093305460125226 -0.7994996975105005 2.5407772566088433
Ni 8.673155847302422 4.199326802288167 4.362955938980611 0.14119778652896972 -1.1888845295365007 0.7632139757055888
Ni 3.201958415610482 3.8906572068666083 7.819826446417312 -0.572065568290105 0.3886255852624726 0.6813893889286137
Ni 3.350131734845532 4.6624801133292815 3.101355991597936 0.08745504558987519 1.213484330363052 -0.15887746319691992
Ni 5.7696382282542436 1.3132791154136183 1.6589892484331492 0.21668229002053005 -0.1848414913608494 0.6692362985058474
Ni 7.083578166888068 6.5450351645276115 0.6198596264491993 0.37340671143018916 0.27263669389896267 -0.631073671393197
Ni 7.1907525243624155 3.498314361449881 8.40765476142509 -0.28356902454075034 0.4444357502535572 -0.36377458765706383
Ni 0.5376308801691856 7.165743623056851 5.961884733329352 -1.5546419519515484 0.8195687003462336 -0.08273475729607041
Ni 1.166995192146201 9.124311959317533 1.776072231262875 0.404778026652619 -0.4874122538150832 1.0714846167580774
Ni 3.6032177208153486 6.104126466110351 8.799867303671636 1.2458594042596478 -0.3691291671007578 -0.6408484913917737
Ni 7.672529881370198 5.631833318417928 6.4758665188475115 -0.245196595410139 -1.2812167007130193 -1.5894009526992887
P 8.633822904646182 6.284205447301289 4.351704260235432 0.011721402201986265 0.05149533966581454 0.19986856089730096
Ni 6.993333914168028 7.655916227172047 4.253610172248881 1.2306127625132226 -0.7180849445774342 0.7950586310200114
P 6.889314754885935 5.929138615925791 11.354630349202683 -0.8376196443106736 0.3820733859662517 -0.5073077071874296
Ni 3.019459518401885 1.4511398694657265 5.875736653837662 2.8179648031032825 2.498649731311174 -0.10678202805326127
P 0.8804901659725294 1.1981562645581953 9.976477939040306 0.46112246688061875 0.5960609027634379 -0.6379580572178561
P 4.202537844696212 0.07253232894464481 2.6493287098164675 0.6700929900791879 -0.06063869672797944 -0.8248991114202117
P 0.08181736055701203 1.5195211117031582 3.4537785993556778 0.5033559216285332 -0.008314176292650199 -0.5623282863976831
Ni 5.084829917364967 2.4573688717157576 7.790184336674863 -0.5352113755762331 -0.6250845436892977 -0.03576661607664808
Ni 7.489872758883523 7.873727283499851 6.955302141739745 -0.90630640815411 0.96818566215741 0.04328375038929965
Ni 8.62493436696594 7.911319748097236 9.089381402339573 -0.012964787690784125 1.540177439786786 0.1462831714716771
Ni 1.0063779201588103 6.177152085627826 12.134083437016418 -0.09112066736692048 -0.28011860409830464 0.6017993479091119
Ni 3.5916486607770843 2.4668158515539225 10.002659568877506 1.6345366686956624 0.19366860273417613 -2.374134547644208
Ni 2.057766278246057 7.742214155309446 8.425677551335061 -1.2514983477129802 0.9957280905520528 1.506126006629032
Ni 3.14581636400082 0.2334465060126635 9.882470716912808 -0.14812073890104813 -1.4845788765858756 -0.44544465113404574
Ni 7.425233079104163 2.3617263448024803 3.28769510937917 -0.7353946395004755 0.7357149989543716 0.18027855458051534
Ni 3.589424199514699 3.452159117097707 1.0441825927762054 0.5152891827310093 0.15346554815272925 -0.2795904995089765
Ni 7.01722593115775 8.84431836870522 13.421428498616184 0.4469464324905529 0.8807018202121285 0.051810299803072064
Ni 0.7302375804361533 8.545374974200788 10.902915795029651 -0.03792017208454114 0.1430384392821343 0.39632912455431746
Ni 3.481021269292926 5.090209576819606 10.871775198830113 -1.6360464204719691 -1.2606643304829641 1.0812414390345249
Ni 6.094214117807253 1.5840677177895321 12.024124314647905 0.6512871702265944 -2.1323575194385795 1.4255306642734673
Ni 0.18868643631836204 0.23067570217244526 13.46333120593579 -2.3514358204951114 0.5858520805512362 -1.1611474686325487
Ni 4.099896176070325 1.0367292514418192 0.04979163353717007 -0.3045973059659593 -0.6310482174719003 -0.486344217561885
Ni 4.829566006979259 6.059581396646848 1.241781765934987 1.5859538746909525 -2.632438626970582 0.015398336832941222
Ni 4.2792119529787715 2.86552493757095 12.087140789221575 -0.5010565840713951 0.8031663477288102 0.8866338694258471
Ni 5.16572026393983 7.049448043669794 5.581127701215626 -0.8786611356330157 2.2953924564472983 0.6214024668520202
Ni 5.987412055104853 9.17490681882518 9.243354143384632 -1.4936528138626857 -0.5618485185477872 -1.136754898720797
Ni 0.8241610362399636 1.2527067560177825 5.52798727620479 0.623955572291177 2.4348940862207678 -1.4404371490716545
Ni 2.4306567218285346 0.74313294059948 3.545524130743596 -1.0148768955663618 0.2560193970572559 0.398617663478178
Ni 1.6955234651412736 1.909081053699579 0.6733341860178588 0.5024048705691734 0.3574211346352103 0.20978582001101292
Ni 7.178243420024984 1.228628591642087 7.245675310593949 -1.2043558856992227 -0.17041503152287424 -0.17450514243184787
Ni 8.667915798387263 1.308485820224796 11.609202722049499 -0.10807555005370419 -0.49356438945940806 -0.017724670973272696
Ni 6.496590307327961 3.5096228151477824 5.946136664475979 -0.4091399031657405 -1.4012807905871671 -0.28906758576147634
P 1.6093558401740569 5.300993569326905 9.290746337116602 -0.5767714584062066 -0.42292153033086516 0.2127366751092207
Ni 0.1496904204307356 3.3980181498872617 8.895210133293496 0.6000592252895537 0.0406977348296783 -0.3342752926463663
P 4.59240492987949 9.038916846002108 11.546050359884068 -0.38697262304008195 0.429999263113253 0.03924043355786146
Ni 5.951522839089127 0.3761740834710536 4.103915098133497 -0.9203371752155634 0.6740949121497294 -1.1218545845701968
P 5.433428127077879 4.326995986958215 2.5692425199490105 0.45065884834513353 -0.851846843653649 -0.7634780280002529
P 7.835101700910313 1.7889322234228666 0.018665929128510863 0.049408375229798775 -0.3464409814746227 -0.4206149936848756
P 5.266416692382293 1.10858214242766 5.922161811899498 -0.11646120301423812 0.8915189654322905 1.1676626440432472
Ni 3.8556894204114527 8.008833056239549 0.8860541113392827 0.10320845176938999 3.358701993593751 1.6241622674398737
