# total energy = -340893.7466779053 ev
CRYSTAL
PRIMVEC
9.05553104210462 0.00000000000000 0.00000000000000

0.00000000000000 9.05553104210462 0.00000000000000

0.00000000000000 0.00000000000000 13.25368502723042

PRIMCOORD
 96 1
Ni 6.4131272095384 1.9080185389779158 11.452217917275467 0.38471108069941484 0.3464978028544871 0.61450419707029
Ni 4.752777449409503 0.31868134911798135 6.117702275697934 -0.2998968151664964 -0.22666639781643544 -0.47057975563877663
Ni 2.843527358185757 1.5685176180335438 4.790716503006061 0.022483525814496762 -0.15540287438475817 0.02196416297591701
Ni 3.2515062062107973 4.175125112927642 4.7348656086576435 0.0697368023745057 0.5709049723231007 0.2688378889781628
Ni 4.8109320709001215 4.501251014261045 2.957586301658986 2.187300965553994 0.21916803255686126 -1.3668161811513944
Ni 7.039688470135931 6.03284017598211 2.7474490775016545 0.5343621402020604 0.07905962243732836 -0.8641269465725826
Ni 5.117661024361692 4.448765155313735 11.542117609008612 0.17748556521641046 -0.11918374415172377 0.29340940766993984
Ni 5.5862032651816955 7.933596178922112 12.629449653533706 -0.17047313845431933 0.4463900457664505 -1.0939151778474514
Ni 1.9461694920050059 6.261121062490515 0.11763497275174757 -0.25910343529921825 0.3615770657851128 1.2604974658877968
Ni 2.6729483166070014 1.4379459133818435 0.5630421424125746 0.6946017738538295 0.8090276916055937 -1.0144302949472463
Ni 0.7070613109249986 9.128609356282654 4.769762909317624 -0.8727771660484129 -0.21644472008842722 -0.4628031970171514
Ni 8.531188795148966 2.438047836777255 1.4230350756760741 0.507472514900068 0.8126030676616779 0.30780295738745056
Ni 6.806254986363718 0.4071747168527627 4.680353121823446 0.7256637853659567 0.09258516772758893 0.3309500849278752
Ni 0.7949923301710587 7.198151210943206 2.2803231217643565 0.45638186687183985 0.012948846851184153 -0.12402384585284447
Ni 7.5264142176443745 3.830589316625315 3.8522899916393474 0.48197925572496997 -0.05095797910510579 0.03213904662638981
Ni 7.473584248510729 4.0283258963308795 12.537588533738452 0.711464096826807 -1.490630224986278 0.9224321100713792
Ni 7.94755075253112 -0.019506519799585804 6.972790733253038 -0.02752777310662356 -0.8439617844786175 -0.2718663913918415
Ni 7.0973903150655815 0.6863585554513376 0.5929018510552347 -0.9404264897662707 0.30000145906516074 -1.1831219160211108
Ni 2.1215389095987938 6.403175180728343 9.14563918829375 -0.636360116603117 1.5380472808176608 0.0109824671534327
Ni 8.83691258464519 4.9910646979152835 1.1859449683974912 0.02659883353445097 -0.018719430786374214 1.5151492931735646
Ni 6.480147196092755 2.023195840556734 7.143722940549347 -0.15432095417448907 0.8808995380452312 -0.7876147731474564
Ni 3.40834800692981 4.176003499455917 0.6641670706452167 1.221522627286496 -0.07449360033320074 -1.4496216437844
Ni 6.078905663294905 5.631218310873048 4.911073568442343 0.10196738027343728 0.4915674136340373 -0.2276696422699692
Ni 5.188837499745725 2.7924541621086645 9.59464774272051 0.126318298313976 0.18506414889461678 -0.7846893719705453
P 0.11235740915711473 5.664750942978273 12.437762168682662 0.12357673101309685 0.0479958111529883 -1.2088784561599244
P 4.007914728962481 5.915018659287243 12.642584701567364 -0.17213612797903904 0.4975408576086528 -0.24658627666881403
P 2.4613296075421847 8.344590518843193 1.2965917877072721 -1.3539406107403067 1.0807182195412033 0.07670526327253886
P 6.682366263751893 7.553254812178505 5.919042937361119 -1.57179686646428 0.5994802128576321 -0.16204557651225643
P 4.729061013146046 1.0587455435718738 12.539046474264767 -0.8428006742909807 -1.9455357644229072 -0.5738761391362827
P 4.166314081051222 6.316414136115822 8.096967923203394 -1.0976047108838967 0.09458574309738549 0.26139197422307886
P 4.844093426225353 0.8634177351706549 3.7558422452814955 -1.2428273023015435 0.6879593288366475 0.7114401855674071
P 9.278568953274965 5.457442666773863 3.5132336972778457 -0.484968420260281 -0.3026029012437498 -0.1113511354811824
Ni 1.3370401290047094 1.0486848483871845 2.4432774060564255 -0.44018674516921613 0.1653756693267539 0.7379695993165033
Ni 1.9153625747968026 6.612901283768316 4.55478822038292 -0.6063473722911106 -0.025512028228175415 1.2039334534498234
Ni 5.909893228617095 5.358076322704018 9.191205715836357 -0.26158634962207206 1.4901571420046014 -0.05647942314396725
Ni 8.673913022697024 2.4616374956036426 10.320074576511455 -0.08825440156271896 -1.3545851863028413 -0.267342792489875
Ni 2.2503085635378453 5.431851735548001 6.857867892101483 1.3637413988808125 -0.3122298828105526 0.15195219683199637
Ni 0.48665873657742004 -0.12088590845949156 9.136096469494806 0.4390652299702632 0.1515145950739455 0.37123027260416064
Ni 1.5676663980989256 1.2705091411361997 11.55435072613282 -0.6613103587905514 -0.5879745262108778 -0.1413001164347889
Ni 3.9977725339968173 6.888080766461698 1.3248224062835725 1.0946931936640567 -0.06204354749530605 1.3613878110469717
Ni 5.675943579565381 8.062338666267506 8.275415315858636 0.17573335841199414 -0.9779607392663029 -0.6768719606742343
Ni 5.312391167702435 3.0521758530106284 4.8950362226528865 0.32392685953250666 -1.1664169445616042 0.24060846181882434
Ni 0.6974425256638129 7.408348201606586 6.796397135078342 0.4168578406352885 0.28327334767720247 0.22606475967669454
Ni 4.86068315941919 4.609374057019995 7.007793078075163 0.381938145939968 -0.38734954676352645 -0.42711859913134825
Ni 7.927103363037844 7.128106676961592 9.250104701993207 0.8054654281756322 0.28952729900671426 0.28259251956009396
Ni 4.605407734345922 0.26266202188888443 10.249737548871456 -0.21791539109668276 -0.37726105217927286 1.0555473767025305
Ni 8.388410234413593 7.089167892718418 4.631486758704507 -0.17950156720517474 0.5002896239983836 0.13964304044734016
Ni 7.55773730013208 6.028665576089993 7.2537286282487985 -1.5363557520478508 0.3135632569099954 -1.8243969534273419
Ni 2.398837386597502 5.114120311654929 2.5399098852511517 -1.7049758964538315 0.6813577643597297 0.19125433686572868
Ni 2.2586215411972015 5.226273065806486 11.210696033018138 0.2170687268256713 -0.18244650876611157 0.9325640562990584
Ni 0.9477337863539536 3.2723248724840657 3.713324715100439 -0.16343448643998304 -0.007708167277535113 0.2027011452500896
Ni 3.689495084696739 2.553750359166795 2.6649051937779813 -0.3968289470088714 -1.056478373157232 -0.3500582665122358
Ni 1.341423006114871 3.5056134677567687 8.257377603222826 -0.9609055835562289 -0.08394857509851349 -0.19729745773601504
Ni 3.6398979402083995 2.5658394933446176 6.852671828287825 0.24869380993012008 0.21568573043521563 0.6865238819417016
Ni 4.312416021744094 6.8772775177170224 5.795438558429581 -0.8107909541536036 0.9675066338125143 0.7123508703071345
Ni 1.044075582996539 7.534011808337403 11.37761301777179 -1.2679698630054421 -0.40785897957078787 0.224218193386259
P 0.3790382758011434 5.62622871317119 8.08893657256496 0.5116664983767576 -0.504213384532822 0.6837586604917385
P 8.54437364860433 1.6556046617699611 8.151639787387053 0.5542437096173358 1.1607995983748267 -0.13699763240469306
P 1.7868826978567705 3.1900644268875578 10.58313413622087 -0.6309338033812231 1.122660368300944 -1.0559155586752267
P 3.8060941046769936 6.153776795416429 3.7100375572678175 1.3441976724209301 1.586970488880925 0.6938435555315664
P 6.883869944444704 3.9197772436046203 10.42220738536881 0.6404929078245679 -0.2694125305347102 0.10113948505550323
P 6.38696577984572 7.8283256284972556 10.539489192403003 -0.7867917630255288 1.1823873518479315 -1.139768231625824
P 2.4688004207981424 8.604357487401254 5.8755836319332495 0.8939949377766088 -0.9185633711445923 0.1327221449577908
P 6.665858030339032 3.9473513361675177 1.6225429172881416 0.7319606741182619 0.687670336841319 0.3637679027888445
Ni 5.358827931795224 2.6217573986240574 0.4335389904447566 -0.0032233920333041262 1.7097992859844038 0.48436112569358514
Ni 1.366425327811476 1.033208945533328 7.046639495899899 0.21860161853042998 0.9917801616478984 0.2570537518590411
Ni 6.8942294721596316 0.8573342292975006 9.27400134332793 -0.06809849544013433 -0.5783087209863395 0.3432445860245121
Ni 2.927118966871508 1.919736396375745 9.244856116098475 -0.5965576398941984 -1.423286348323981 -0.2897108757724301
Ni 6.314603029871954 2.005836387209254 2.701339218085884 0.8111164558138223 0.09944152852779004 -0.23501785510492426
Ni 4.198642327504274 6.615400610384855 10.575234996338235 0.5204103060076586 1.2841091917694658 -0.3804744169102479
Ni 8.129159431135033 7.425399766892608 0.06384511730885277 -0.081138359343228 -0.4942619297470649 0.7411886204744332
Ni 7.675432039389875 3.973041878236793 8.358132160228598 0.9456250032480747 -1.659747106523019 -0.6283842974864919
Ni 3.2294107100356015 8.296686758692871 12.457894425689505 -0.4065634006878159 0.42853167742879106 -0.49922930105466923
Ni -0.05922860749323194 4.732493059478175 10.34405090652091 0.781807165326744 1.6716446292915534 -0.20904097142518835
Ni 8.631813858058301 2.2079196219001025 5.6990976673401175 -0.12564158396192557 0.5510306019966769 -0.0032136218412912396
Ni 3.591423681591259 2.650898098087902 11.61293186314387 0.3485176614979933 0.4048104225524512 0.4329601455137898
Ni 1.1265443058110916 3.6255449232257413 12.760781117254709 -0.4477157065564096 -0.7851655402760155 0.10550933198842476
Ni 3.2191870152889632 8.501921318248051 8.076650027806554 -0.31931661445400494 -0.11703173080572747 0.05266981958988993
Ni 5.358239322265966 7.775341715332882 3.451656990539438 -0.06704357181305873 -0.3222433011824966 0.18226730287576998
Ni 2.828848342079202 8.585884203713796 3.4841020533452203 1.4080571900790524 -0.579643380637363 -0.33140954106279696
Ni 3.4870767953507746 4.440388788935842 9.326326919372658 0.3139779758499109 -0.48480952608491334 -0.6429205434294541
Ni 7.220953038553511 6.144766541853183 11.492588381004417 -0.46595331261035877 -0.39876704457184875 -0.714733254496382
Ni 0.566918815327575 0.1364840609848091 0.2628576213632222 0.5991207726356843 -0.3776883695246786 0.2780864041596243
Ni 4.718004209527228 0.4256045339903686 1.4590978232039837 -0.18976078303933772 -1.092368916406254 0.5315799494712329
Ni 6.074794452121323 5.74991821409619 0.4614019544535517 -0.26403583960382915 -0.5440492855828373 -0.041188044202535516
Ni 8.025808653328678 9.134133230326452 11.431622017070195 0.35887715035544643 -1.7453234470329426 -0.9635545911433018
Ni 0.24933771325274381 4.835363894129907 5.740939654892212 -0.9221184354857023 -0.43855435177211566 -0.30163333824162886
Ni 8.050041254871639 8.625167098143303 2.423051877078024 0.07488389379308392 -0.24344413149540656 0.928310166118711
P 8.479545100605055 1.384482057062845 3.4786288902762497 -0.5805841472840775 1.4352080394622315 0.8358268140763089
P 1.7553513381510195 3.2612227912091516 1.668016172859192 -0.6993464876276665 -1.7713108722356397 -0.8328487052845913
P 4.73919415258049 1.1903043011264827 8.169717344360226 0.6257442887604837 -0.6678921257731271 0.16703711618957684
P 8.496397444204252 1.7728919021228862 12.513188404867932 0.41981152394697374 1.4252452718225646 0.5435021548301155
P 6.330595098005312 7.826170412067051 1.3779992022629177 -0.06245980909711824 -1.2779228604530959 1.1889470073433202
P 1.8128358503314062 3.229772931284375 5.928426278810602 -1.7085484442964383 -0.4403734072587254 0.7963120438111383
P 6.866610101940637 4.084207579485442 6.110028618542663 0.9753022185975331 -1.2327632331973222 0.48055229347045625
P 2.384746980020205 8.707889375831998 10.265509567596185 0.7499352563188116 -0.15344369377585831 -0.9224665628537403
