# total energy = -340858.3301332158 ev
CRYSTAL
PRIMVEC
9.37987949610872 0.00000000000000 0.00000000000000

0.00000000000000 9.37987949610872 0.00000000000000

0.00000000000000 0.00000000000000 13.72840177529783

PRIMCOORD
 96 1
Ni 1.3005108818048814 1.0617085353049394 3.135223710176009 -0.2218777181785405 -0.3262488227974639 0.9188117397099724
Ni 8.159350625267162 4.6550933867286135 0.6793762141042051 -0.8048141677448785 -0.6855579184840064 0.03203800227215128
Ni 8.251723676381951 1.8255027249095501 3.683426064550331 0.14680150586899232 -0.9954450120939952 2.276758386285879
Ni 2.1986061828901544 5.055267176301143 11.625938268631359 -0.9529181944753783 1.5087680722375694 -1.2513780200850322
Ni 4.2354751074159385 4.44698200522132 11.165419025733588 0.9755544438176554 -0.7249320494062548 -2.147998568409946
Ni 6.793377565991715 2.382620654536168 8.069787785983607 0.3908233642447398 0.6781940219197675 1.3510334643958408
Ni 2.2625863394350345 2.117367048476548 1.3933501129197123 0.1326496398486425 -0.42135932805006787 -1.7023975942036937
Ni 7.346621605477147 2.5889310992223784 1.772295359713709 0.6714801002347016 0.5241499755557488 2.745291286697956
Ni 2.1975743961697414 3.390985816395757 9.840092735314846 -1.7816744748581508 1.4449090688000794 -1.334934244841133
Ni 8.309287995501718 6.529521561944291 2.065094857244572 -0.4268517186232068 -2.3433059922991255 3.2814300591844647
Ni 5.0950660040712545 8.565246141198346 10.106093917752801 -1.7082314272766514 0.017885622031169196 0.8649209032287878
Ni 8.955158342842404 6.77260113339431 8.348391774217442 -0.8503268074646969 -0.5713083784091064 0.7034520251556079
Ni 0.404678007601096 7.9189912188073235 12.291518556295715 -1.7756218409061677 0.7561377855850978 -1.4252822957080873
Ni 5.675886888629542 4.082911370983967 6.830648516296815 -0.4804929009874305 0.8754128038990471 0.2975882216379778
Ni 6.4561990456400355 2.263683785310383 5.623881085969018 0.4522902133009694 -1.1471246719908954 -0.1429286531771474
Ni 3.9875555182592564 3.006438905697846 5.812880025462553 -1.2948453472400472 -0.34262186483884866 -0.7803588629159915
Ni 4.341927357324726 2.2696400086509483 12.988604920461846 1.5707979928861207 -1.5741352847894696 0.3978167648434375
Ni 0.9612500282538227 8.27998525264199 2.667331882166921 1.4403103936858033 -0.7527621842446456 0.4563844379750011
Ni 6.635795594146827 7.17274678332901 0.5666328791646806 0.1135093194747658 -0.02634352299053528 -2.48716795592382
Ni 6.3108296766131255 1.6365638166433836 10.6833326264154 0.6715186667821209 0.48798226738594025 2.005790852559223
Ni 4.655843777070732 7.313191715735767 12.254876995890069 -1.6007958247997915 0.897266409439029 0.5602518634846286
Ni 5.621277231481866 0.035420300123849384 0.7849561352402807 0.4678898675114393 -0.4517577378362671 1.867292210128971
Ni 0.9681160998842071 5.489480547768024 3.2704618715963916 -0.4511882384860423 -0.2755541246560739 -0.13237221781753977
Ni 2.7212342964171494 5.228813702674604 5.679974640018232 1.0420552557533667 0.14744376743868157 -1.6248981171646337
P 7.460268222790997 9.120938329174937 4.737066965689569 1.1229581020470207 0.8672672919737773 0.22000518374617595
P 8.298266637351853 8.017001577367278 10.541160858233843 0.08744476117723005 1.8702309810423212 -1.1271677692529942
P 5.793679412583596 3.6033462832152985 9.895912396889187 1.7214312137963772 0.13553210360276013 -0.0009613354720047959
P 7.7434373982686955 4.021660759308543 3.4855997206696983 2.45917172782121 -2.5278870309097368 -1.214648268764166
P 5.9830497952964805 3.3125043664894367 0.5909502161889589 -3.460333330684008 1.9321030359567692 -1.364755956188256
P 4.04696767359649 1.4077510415728942 4.318638993057078 0.07754498556501484 0.8765605443502453 0.8406522604894102
P -0.16130296995386914 2.7016303487293034 6.7319412327066175 -0.7776121534087898 -0.7341993336407936 1.6996832805963245
P 0.3262096895257625 2.2390897418474482 0.052077089743025204 -0.36072680196967555 0.2890138497054055 0.6417301226657787
Ni 7.190587313712877 2.0329012355918326 13.298866939241734 1.3616618906439646 -1.5241520108928073 -1.8025999121569085
Ni 6.385343437585496 6.7180852750394 11.127569336877128 2.345813332102012 -0.7703937812834797 -1.5029895178825794
Ni 0.1517054774781733 8.499258690488299 4.817968424449221 -0.818011383161443 1.0199694795979208 0.982457855805708
Ni 2.1744529937532144 7.293690946719962 13.27749207034649 1.4646559124097032 -0.8126945989342197 1.2777433974524381
Ni 0.2940498354384181 3.673470260686274 4.899171915321577 -0.9714656184602625 0.5606706961896022 -0.6989430815416608
Ni 5.638986443555863 4.962387611705424 12.69999353902793 1.561071766737292 0.3260102244240966 2.424215009240367
Ni 7.842770319806634 4.815733199217635 6.5468274392094 0.30282324478467204 -1.2355598221058528 0.47983932656383166
Ni 5.9767465164226845 0.5979541720447077 3.5160768244148417 0.21655090664898832 0.16337972194264766 -0.3151367720447024
Ni 5.0017831046666466 6.942011133006841 4.461154064820155 -0.4176361135622098 -0.5732678161283223 -0.7401617218718156
Ni 1.4570423071708045 1.7788659651468843 5.419149274965039 0.8998773646993148 -0.606814027514884 0.44489109262342097
Ni 1.7556882834546985 3.839400325087231 7.096595295434968 -0.5297161567896168 -0.7812006420909966 1.4349090201645738
Ni 7.353844112520037 5.743375120023825 4.299488093538286 -0.5144546026448559 2.1314476060297998 0.447396632654094
Ni 2.987697906903436 6.58009787100308 2.449407270960571 -0.009993620877602144 0.10963646678292086 1.2320289261344586
Ni 0.2802951804673856 5.807120779586794 5.732980337809629 1.253669130112054 1.9044544210015655 -0.0025091395750989043
Ni 0.5031920656781982 3.207684215574756 2.585250434594287 -1.5223126436912233 0.4665004433630805 -1.7447966279951952
Ni 3.6457714771828242 9.023828439025525 3.2900667572721654 -0.5652277194326653 -1.435840530839908 -0.1268695428317557
Ni 3.9328239226809867 2.167605681881383 10.55774448479466 1.2554619603464185 -0.976121629175035 -0.12142446055678444
Ni 8.440803282837265 0.6677845592943293 1.6145014025971716 0.776680899843772 -0.5308335582235115 -0.8178095515632818
Ni 2.586023336646669 7.16664048192002 10.961345682254816 -0.3162734567523069 1.7221428951514213 -0.26880112220295643
Ni 2.7320211575851037 4.368294197970916 1.559546565892122 0.1452544730968466 0.9179445066136708 -0.3745032869284776
Ni 7.480247365649903 7.3184163084927665 6.141469390360759 1.9014696273416287 0.4019099610762046 -0.9921316314500462
Ni 7.129252283123965 5.384285201682284 8.851043558849314 -1.3020020128894867 -0.5110021253198813 1.088335369766829
Ni 4.225213519487467 3.465246320627661 8.49398157040735 -0.8531701904507628 0.3950032066540423 -0.6919411963025308
Ni 7.60027230087176 0.46002304728404736 6.942164025039047 0.7924597599445836 -0.20646061229252188 0.1515701309022293
P 7.934618097681941 6.0770549454053775 12.808763557105937 -0.16352601771252484 -0.9097082347468075 -0.29674130025665024
P 3.6450304667199815 8.726401847047574 7.712299951022488 0.23068091829246726 -0.06851604259352716 1.0858496272304976
P 6.23852018727073 7.093308585736487 2.583109008155466 -0.7378158473474584 0.05772178019150059 1.8852909606992372
P 5.245003374305811 0.17653120395923685 12.54587837056363 -0.23201223550938108 -0.1965891188150808 -2.9456905232877464
P 3.32702441960943 4.051076060719589 13.13150456727526 -0.7742224110009506 1.3018271778745192 1.7298724025851948
P 4.123779504991597 4.722909913897576 3.5552162466718165 -1.5960814500432576 2.0612881142955795 -0.10131097763636102
P 2.943068441305937 0.36799611371455987 10.782245329361752 -0.9860422307228567 -0.9064239075685808 -0.19492690062130946
P 1.1106058459732373 5.435227326032855 9.416585558054141 1.0588409598521378 0.24095041853927532 0.01966893918383709
Ni 5.397614010134165 5.17278768375618 1.5527649131752257 -0.5356566906437679 0.11443697349535775 0.6734151124738854
Ni 4.770250164605977 1.310941307560329 7.332503949178115 0.4167359703454436 -0.8001316746675445 -0.2519071746610952
Ni 0.9062501681282459 0.00961062430668293 10.139591342624971 0.3547137630063762 -0.34556603506883715 0.17238269677220636
Ni 3.0907077411177557 8.939165648676003 5.711880299377184 -0.24714677715797434 1.008712675737179 -0.4608100778465225
Ni 9.160915374651301 7.978797329074169 0.8933828497367685 -0.3824325690778833 2.4600050223557828 -4.322716040871975
Ni 1.9823718259294267 7.200914560796283 4.562702513843199 1.2502657608574597 -0.06475477577888203 0.5198143242948725
Ni 3.5318809830077855 6.16539464843128 7.890274718402376 0.8144478341799005 -0.03982150287231207 -0.03339323074846507
Ni 8.927065604409343 3.9376545605083746 8.949311864089372 0.8257411477055328 0.3219609940553875 -0.21431250423677284
Ni 2.694276523376542 1.6357665269048827 8.299765542060234 -0.7746589843177368 -1.0712218500149937 0.4269352794759486
Ni 4.661968838238275 1.7743730029734497 1.888862871434255 -0.7975225191794717 1.4037243670316537 0.18568198498427377
Ni 7.78781360712573 3.896842705776404 11.642714182717347 -0.14040845785845496 -0.27978307513575684 -0.8134181073638056
Ni 0.8403855938367204 0.4254872697759702 7.22590255918883 0.1909118659246454 -0.705389608497953 0.07127226518242565
Ni 8.679905785474054 0.7167006297211803 11.741847312826698 -0.21025864588237334 0.4839386934441859 0.022847594022134845
Ni 5.709523135715004 3.4091171230371957 3.7755571147797875 -0.06850807217372717 -0.7566003270438131 -0.34744474014878873
Ni 8.993334451497685 1.5922626468205614 8.97071393463452 -0.22191911293943717 -0.30675780395238783 -0.09636906025005339
Ni 1.7320978870743475 7.5974301974509855 8.844934443476543 0.7001242463339555 0.14202156798184573 -1.4237627737397673
Ni 1.6047285063790055 0.4494434814481039 13.353849915584615 -0.1396659232654756 -0.9246466012241946 0.1666463085090614
Ni 0.5690172444767623 4.4611456229288065 12.817549690024219 -1.9921596349290336 -0.9667769547353413 1.6299318229337991
Ni 4.1994282313564195 7.333968148333173 0.711852170123167 0.526899256166112 0.94681542401175 1.107838472796763
Ni 6.369256944626329 7.856455563671022 8.076240204937898 -0.38483680764400174 1.3037238806765998 1.815417889857183
Ni 5.668101588830062 8.888833216478403 5.809187166991403 -1.8102468871792048 0.3582739695538088 0.42409318204146323
Ni 2.48551793019917 3.238656576945698 3.7074094778723667 1.2416397097513454 -0.1823950867028859 0.7278533368181078
Ni 2.047561986900973 2.4943912959947214 12.119940866582388 -0.19002097867925985 -0.2514891132870701 0.31776829613027857
Ni -0.4627122586726146 6.090214916030281 10.883602428847555 0.4490531944209105 -1.6443228015481486 -0.37709547313568603
P 4.348080558130099 6.317789547036275 10.080984918917588 0.43472752182685775 0.7188850718812265 -0.4210173713296168
P 9.70920683787875 2.719114443700665 10.85006373250657 -1.7999323926270743 -0.16755339370436304 -0.5925266643579343
P 7.477836736675846 9.023650221319272 -0.5043514187567713 0.9913721275762023 0.5291677404853145 1.200979513027822
P 6.5004533160664755 0.35217319536306324 9.129167297264194 1.690703445695217 0.8931338753278941 -2.5691691774879755
P 3.0956415576171845 -0.05372419654397536 1.2627756274755964 0.010646166859936503 -0.05913537270957557 -0.881246894082321
P 0.7095165801833231 7.693855356413215 6.839215160040026 0.2621622767302001 -0.022862249310154178 -1.3816802427474204
P 1.0991623932559298 6.373665487886275 1.1958698865843818 1.048527750851588 -1.56713802753603 0.5067564626696498
P 6.039657366730046 6.124704732129904 7.103308475033145 -1.3662271414171439 -1.6720470069362945 -1.1512284097466239
