# total energy = -340897.68565551814 ev
CRYSTAL
PRIMVEC
9.01198314141516 0.00000000000000 0.00000000000000

0.00000000000000 9.01198314141516 0.00000000000000

0.00000000000000 0.00000000000000 13.18994827268404

PRIMCOORD
 96 1
Ni 6.260471462914108 2.1098314138516034 11.414119097386212 0.9847559078112653 0.16158457771543785 -0.4571264583473482
Ni 4.6781745043818415 0.2627263436104453 5.848805876838698 -0.4019922363773658 -0.5710291566057907 0.4386399695073865
Ni 2.7691480981907857 1.526566854979047 4.9031127016130815 -0.03552441815885495 0.13222515071671423 0.18109925070959781
Ni 3.345824897409816 4.351976763726551 4.993766943313097 0.052241216692903575 0.17708987243988858 -0.16170799066717959
Ni 5.154683111331462 4.42304526253326 2.7849785477220896 0.2657206835054198 0.5137377790834894 -0.7297765219827497
Ni 7.133984961815532 6.111196974677446 2.6111482079068677 0.34396860867473017 -0.3249822973802145 -0.8917786468515803
Ni 5.0738906827488925 4.648128552692573 11.306925163084124 -0.7285976711833 -0.5429923050732326 -0.170468510468629
Ni 5.569630861655592 7.844769081696829 12.349880166026123 -0.05434077953440963 0.16009308077157589 0.20648709465508308
Ni 1.7736303719440374 6.382133234901245 0.5574452272619527 -0.03866450644973341 -0.054297842111616174 -1.2246776279757103
Ni 2.8848259133927776 1.5883169632498522 0.4032817381880294 -0.8996315672370958 -0.2721178452810152 1.121221321861572
Ni 0.6022564120789038 0.07724981802196605 4.6788440947269265 -0.4527026182480397 -0.1096125555235209 0.17915164006492373
Ni 8.463423698242977 2.2292131541118705 1.4102563985627221 0.7536826391763859 0.740752561378279 -0.17743157205002347
Ni 6.8791350914433655 0.50378787982407 4.598345456793748 0.6531694748509719 1.2197457378917316 0.8869868818898918
Ni 0.8559662665876356 7.505386809751377 2.5279594930153078 -0.39892516741626777 -0.4324333264760424 0.41677582244444344
Ni 7.710670773017673 3.867312312062237 3.7918991361981216 -0.8813859907633464 -0.37003599518574337 -0.6639598805982565
Ni 7.681372815926548 3.872088663110621 12.499071744018172 -0.09679920580893651 -0.8005870170374083 -0.1610104503795227
Ni 8.002199414648185 8.662462357213933 6.936263854775281 -0.9631051623107091 1.03875833016965 -0.48089604996312013
Ni 6.726066558317327 0.7087942740105734 0.44702860779967096 -0.042216485467049876 0.3314383374182034 -1.3652647775038746
Ni 1.7705843216528039 6.577882520036994 9.240798262523544 0.5080936934238346 -0.6926042838078266 -0.21679284745646538
Ni -0.012738438126208776 4.823537791948695 1.2724253264793386 -0.40268514867933225 -0.3044443253278628 1.2321556815203103
Ni 6.413080384901529 1.7168548783500401 6.948108304176962 0.15975652336776358 0.9421427011264291 -0.12295400982743339
Ni 3.4441456331416433 4.4500812118637345 0.8174869011038818 0.1536234138868322 -0.7902157011054133 -0.1873110359472645
Ni 5.8680716943315945 5.644096878094829 4.757073515312966 1.1013173838487937 -0.4636668305690273 0.10084303686100697
Ni 5.408118100355335 3.038606393184519 9.115771416043074 0.10570010784299215 -1.108024363555324 -0.1545713796223983
P 0.23300932930469828 5.427034252903557 12.325584760759448 0.441040351418763 1.1559019039628933 -0.25140838064780574
P 3.952475552453233 6.007180665619998 12.585374099074292 -0.1382459029894974 0.6125157058853515 -0.4377418831731493
P 2.386463247401023 8.398870863224912 1.2247762681809986 0.2589026321423219 0.8507497539347283 1.0104322295314467
P 6.298556103537637 7.702334688640777 5.692425439919676 0.2611698309099437 -0.40518374673146995 0.3371063343372582
P 4.754659205037755 1.0921351971707556 12.64890948119922 0.24648908896931745 -1.0821991749621038 -0.379706685506288
P 4.001572836437376 6.257596640301967 8.30960176332893 -1.2358130757672394 -0.685055267815975 -1.4375983940712789
P 4.673082733924602 0.9766556455971869 3.7906194345964788 -0.11706412670555968 0.28025975766185923 -0.510541897854011
P 0.11779653243119033 5.560258399221027 3.5236547553293263 -0.6496357506661006 -0.21160821793173235 -0.1603118816506013
Ni 1.5308114990239317 1.0554744498786315 2.6484758419491436 -0.1113015131901696 0.6198209812975132 -0.9414844987171398
Ni 1.5448521687095582 6.551991092561509 4.843309181694072 1.76730483640004 0.15117700922886865 0.17575701256107795
Ni 5.913104573933055 5.717742804071044 9.127404985039977 0.3498430651776362 -0.030011972981057986 0.0796561183707467
Ni 8.672267394837785 2.3543895995119697 10.12612106409252 -0.5476593715315987 -0.4543236987912304 0.31303566654129955
Ni 2.2841502031513956 5.364121598811542 6.982613385109136 0.014564270967420077 -0.3920752343739699 0.8404362878238623
Ni 0.555188626691169 -0.05210818754124639 9.013390781920119 0.21517716622991326 0.3341133131472052 0.8777242256410432
Ni 1.5066593842887075 1.1110964096345286 11.362454299413987 -0.2643644265878415 0.22207749289417236 0.26054248173858996
Ni 4.018668568397346 6.7731812060172345 1.4383107019846448 0.7706290372227373 0.4780858342078347 0.9339902472226237
Ni 5.599397441868445 7.807657735249197 7.870679434336846 -0.24424168769603738 0.7715032122975746 0.021978304043304083
Ni 5.306174547413223 2.9282907079330713 4.802051421817455 -0.12479800501470764 -0.6544588830863567 0.33062972547397895
Ni 0.8008444718943524 7.372018471704144 7.087341640832286 0.46475569275783185 -0.5885360551413026 -0.6129013713595445
Ni 5.162127009380453 4.531531515213345 6.9280863813011235 -0.3325940482892014 0.5657221425705805 0.5830737464751506
Ni 8.04799831281401 7.107895270711624 9.097014775595902 0.1870014751266457 0.2133182586443036 0.23230662682134828
Ni 4.677011958560631 0.48092177507866535 10.380265296187163 0.024977238770627953 -0.8654019566302644 0.6160046928752166
Ni 8.262483510835777 7.122179263941225 4.681785606014082 -1.1895689571980352 0.6597170461615025 0.2387156156714857
Ni 7.296777424717432 6.197684976585634 6.840610666044061 0.29412520279004184 -1.2267023717152228 0.5485587434174165
Ni 2.0487572043140605 5.140083698693006 2.820921039960334 1.274038437797025 0.17756526941441034 -0.9138633945657616
Ni 2.302570696628559 5.211296389229476 11.36080600770314 0.2602069527760422 -0.19301605675184177 0.15889006160241023
Ni 1.0694430236993768 3.2207836317563694 3.9456012117368044 0.20708847568450786 -0.4216025544091255 -0.5852725538986823
Ni 3.570034025207445 2.7842431699003005 2.997270229054845 -0.4793410467711745 -0.5630859904993142 -0.9001738128938109
Ni 1.210047984184067 3.309425497627887 8.24015632268036 -0.7970705192437175 0.11224870759478732 0.08361304613596568
Ni 3.5199273991149647 2.881194084199384 7.198730653272154 0.10182237005514078 -0.80523711421491 -0.38256343822879274
Ni 4.10428240794385 6.773280337831446 5.797259135845214 -0.9349099308234157 0.5910259114426919 0.7772694253573904
Ni 0.9293877941844065 7.385419290588949 11.391656729484144 -0.6911693511335129 0.05221653410255523 0.41627471443830893
P 0.1587181453377972 5.452393973375542 8.09351062991693 0.8775722734442111 0.9662151686946006 -1.078402169813517
P 8.463739117651834 1.6100809024608844 7.973837802602205 -0.01994019056735275 -0.009743709650325155 0.14864652949753107
P 1.8883078570208018 3.1487688747230944 10.386543043621698 -0.19046732218805906 0.12972706688520885 0.29441393767505425
P 3.9179866930906573 6.081232130836169 3.672358785035115 -0.055885241203394075 0.049718964491682116 -0.09290835539496257
P 6.891229172777198 4.124225926566631 10.343438728405811 1.0041713362233997 -0.7995148670191521 -0.30136645773348747
P 6.257055921315358 7.884908454469475 10.213135365814342 -0.13639727981653282 -1.0965356461894342 -0.2696105054781292
P 2.4224030360443343 8.443993862657475 5.731402266871111 -0.3283697257952087 0.13876012362175458 0.5031525473684754
P 6.9266282424339005 3.8920231697502907 1.6055073210324788 0.1146290349015058 0.7509043051003003 -0.3602606609665344
Ni 5.363373604213398 2.92878636700413 0.47543167496795685 -0.6025840485939363 0.38541093497991685 -0.2092991101825815
Ni 1.4098706856856071 1.0811045298439217 6.953595700692738 0.04752658482605363 0.4036485410338661 0.17475068278375064
Ni 6.820088578105609 0.6820845584686862 9.187827628198654 0.0906864080429793 0.5782835241753589 -0.4088362558823927
Ni 2.962094656579275 1.5313341940443208 9.247063393181726 -1.2715259557878165 0.19453326472731658 -0.5308487277321632
Ni 6.2429882156804 1.8962023542253006 2.5714071647876917 0.551358931870373 0.4771800345641136 0.4701526954036871
Ni 4.081653318354242 6.947373827553485 10.478701385302799 0.23455402809462828 -0.34661221694516436 -0.34456356194625176
Ni 8.163000229282739 7.084698426186077 0.03268015435236709 -0.016540935077816673 0.8262610247647448 1.7050939100889344
Ni 7.608682160160011 3.9507362397129726 8.089065919847 -0.04851697376378096 -0.8498539815933364 -0.015429447181192784
Ni 3.145767884347412 8.327126465684943 12.335556520070837 0.06068394814361807 -0.03603452502605407 0.5602953151280544
Ni 0.15314333258585328 4.726091218578553 10.16191846340269 -0.4731811978173658 0.2612593052999565 0.48580942810433747
Ni 8.516369099015156 2.2000503767673982 5.722301065128162 0.18879199136816519 0.37551450180181134 0.22120408915028358
Ni 3.659532029474427 2.6718637405166263 11.627216450009017 -0.12735908087366452 0.9057209679642853 -0.9604728668941845
Ni 1.1580939015540044 3.477255659088365 12.741305739234427 0.4130263827043403 -1.4088367485575544 -0.29097714407936337
Ni 2.9890134501293177 8.308615852376677 7.893458122846081 0.9276501639372087 -0.12355076287116785 0.11593309842491002
Ni 5.671394174935499 7.874553685875902 3.5712308165644737 -1.3008820403524306 -0.7630599666262278 -0.9553705126706127
Ni 3.004135557788164 8.241098074915373 3.5327559570722746 0.8540788183079613 -0.3384746754396945 0.132532654654804
Ni 3.481166859758174 4.32800488865353 9.266558115045619 -0.48110919441519073 0.48095389978424913 -0.025536453708207636
Ni 7.210487686437667 6.166999174095546 11.335521086690967 0.10370647445173109 -0.6901825617402113 -1.1080408186155561
Ni 0.4919010741017712 9.128327812110458 0.4128957217699463 0.47962129701575457 -0.5151675695514805 -0.22785476169758176
Ni 4.620110297203091 0.16069176963892187 1.6942879714438925 -0.6439304727512071 0.27907705020766777 -0.6508840212509047
Ni 5.9914277191434415 5.48189019409509 0.20850304363324476 0.021819409867936616 0.5622005025705673 1.3212747450761697
Ni 7.919793841088897 8.805888068412102 11.27827606877693 0.48898371206726104 0.282134606087069 0.3667167010045233
Ni 9.092640358994231 4.694206822334814 5.707370011511252 -0.8131442848771286 0.7351727532976564 1.021635297336118
Ni 7.929950346054046 8.774129839931906 2.2332694477097528 0.06759944431652873 0.1719342963808781 1.401321671127432
P 8.426105076183811 1.6444706300092484 3.531674519099056 0.29354721879938483 -0.6517291428600195 0.08482532127651198
P 1.8469338425620652 3.1764266508881702 1.6914257656081062 -0.6877423277298349 -0.4289646512011515 -0.24901442649433245
P 4.663079432672326 0.9625609040128993 7.997606006856937 0.42517895890647417 0.7575179537620761 0.6753336696528369
P 8.48857614310343 1.595202118346013 12.41164919946146 -0.37540754391030184 0.951991826006367 -0.8431518869828124
P 6.308496320908141 7.694151807976753 1.2318975372346457 -0.03851461113543045 -0.997723523715527 0.8015118428445228
P 1.663287650743259 3.259706386809143 6.0759628243116595 1.1072196082658416 -0.8460196954489106 -0.4196009505980644
P 6.900808910823296 3.8578947897121214 5.906722287494441 0.596114895929825 0.3652822825508419 0.11244205455251603
P 2.454503719882718 8.455871656396665 10.19954980127578 -0.30384063030559283 1.0225565235988066 -0.17467766345397015
