# total energy = -381172.1030712114 ev
CRYSTAL
PRIMVEC
9.20971453715629 0.00000000000000 0.00000000000000

0.00000000000000 9.20971453715629 0.00000000000000

0.00000000000000 0.00000000000000 13.47934815733876

PRIMCOORD
 96 1
Ni 0.4309124064400137 3.4860058392318556 2.915312992372355 -0.5334751096114168 -0.6901645640180823 -0.31093738925137415
Ni 4.223225058121597 4.271465542187962 5.610253175488271 0.5048916415467691 -1.226726540084939 0.9037245063595468
Ni 0.5055414851981244 0.018852285392105993 13.468105839092388 0.48560039741732497 -1.2514651804821997 0.5332470527610107
Ni 7.810086479829735 2.8614951052608206 11.772215213527911 0.03541900292924222 0.5868270428699959 -0.5518500125741786
Ni 2.2751125889367425 7.315322202431242 3.709839659162624 -0.6611062131995453 -1.0604293873851802 0.07494817137211608
Ni 1.694826903550414 5.288273271059899 1.9238531604641183 0.603078985952484 -0.08820889303676421 -0.6296351391744576
Ni 8.488824012231996 5.726738564285485 3.032732246210487 -0.6140521971345361 0.17744288490393312 1.529897398017017
Ni 5.063003656653004 6.417936840281063 9.557073521898337 -0.8123824670104396 -0.35083551099789256 -0.3721057332305785
Ni 6.571950894317305 3.4534218696582006 7.55610465978609 1.93515596385048 1.8144313575741977 1.6455618161615724
Ni 8.177701440118598 6.8843167778757115 7.642924637505378 0.1830419762582654 -1.055574116175408 1.0321572799133643
Ni 3.964588648416412 6.855361435778603 1.8421685194984392 0.29289338726546976 -0.49762878933676874 1.1247457900750628
Ni 1.3163260608319127 1.1354196407258366 3.4674003741858694 -0.622235761386593 -0.3109566725250838 -0.11582768319529728
Ni 0.10720568056023928 3.7014302689371563 0.018766635048116452 -0.1262113404224665 -0.2944309069559187 3.49914670400678
Ni 7.396312430930596 3.2764572073185247 1.9818006835159654 -0.38763853875885496 0.8445901620912358 -0.1579904326062763
Ni 2.6559434894003355 7.744835653252759 9.23945994307055 1.9321014932948726 -0.40752679304234973 -0.20983287119886443
Ni 3.604148055650974 5.154364023575179 3.4790736871973476 0.4995578880386816 0.2952264062740206 0.24177677109531265
Ni 6.276871644701733 8.259336348626478 7.42241644544715 -0.6999941485139944 -1.819648125888447 -0.39656849425863316
Ni 3.3068492648632 6.692763927914592 11.34985402691524 -3.271924690797191 1.6259813229264837 -0.9629454968043932
Ni 7.516259751373581 1.8913622090059792 3.9301599730469396 1.7456116676973226 0.34738200523165336 -0.5352463425792265
Ni 5.690083900943725 5.793112976020174 7.4505475181047895 -0.11672139865416026 -0.29171993578265887 -1.1834605303074521
Ni 8.745692156770945 9.197318131884817 7.33101279286726 -2.672980810059003 1.9023430310855172 1.6811188873305758
Ni 7.654608081202705 0.2363885026110416 11.321061696763142 0.4240073071958762 0.639065431349422 0.11075489665808023
Ni 7.805131653478513 5.599082712883442 0.7794743095626879 0.9863677323830755 -1.3579638729670869 0.3284630568399634
Ni 0.3204280675507125 6.556174653537296 5.552588390668735 -0.4113993886238786 0.10729779134741521 -0.3551068846797368
P 3.0926773563173153 5.543050810428351 8.179915455462156 0.26794340218835144 0.8232852299658725 -0.7941839417245419
Ni 3.7210930091971206 0.8998075170393453 8.698776029636374 -0.6356258095402537 -0.06541066419532605 0.3884142405826149
P 4.607408294629511 1.2230869121706127 10.659333585900052 -1.6603191769764052 0.4437130131549197 2.1592687420071264
Ni 3.16403422354645 4.606054466611612 10.083441855257531 -1.3830367567753148 1.8315685314751164 1.3191993506043795
P 0.2569887917976868 1.8494580084519574 10.711768173907583 0.16041832532147857 -2.562566070349161 0.46238744963597145
P 4.917057312437713 2.7465210305978744 3.7166880027960243 -0.48547081381799617 0.7659007785091325 0.10280247458022296
P 1.2408248221194138 1.8331936528083528 1.2526353598755628 -0.4204820676514372 -0.27263437990611755 1.6806725438217764
Ni 2.562363581305959 7.717749883180368 0.014590029564325507 -0.07773678986084676 0.23296637189253425 -0.5075758732471516
Ni 2.8292426854058355 3.227240493524966 0.5153682504709026 -1.6475107123578272 0.6617248206201506 1.4145289138463253
Ni 6.984794762061289 6.544690139671172 5.585720338249633 0.37107883462796093 -0.07594370251616597 -0.7857039292779887
Ni 1.3377939051157424 1.9194610476631921 12.58803934488547 -0.08993153215482576 -0.1163501313576706 -1.7665440469746159
Ni 1.154686363266279 6.002937899365729 9.838130981328526 0.11015223007707481 -1.5984463507310085 0.534745234573092
Ni 5.795047016045745 6.867389322794769 0.1689604995481374 0.43559938290884986 0.14086302889737032 0.08528477741143378
Ni 8.099778046516933 1.7339129314957475 0.2307097927073911 -0.660543912938172 -0.6917298516226732 0.4780575520730605
Ni 4.692754718043603 7.0907709457481305 5.091271033083875 0.3792634273212823 0.21616858360890512 -0.08566684334120085
Ni 2.5818329175633656 3.1044381616156644 8.034324606222993 0.260324452190513 1.3206052298129707 0.47866098998501433
Ni 6.227525994906469 2.421685193731743 10.090370323406276 -0.1272022435808261 -0.8454208855226472 -0.026574922275051007
Ni 3.6864184344529685 1.6784704507627344 1.913851410617598 -0.7690964026282947 0.4066184222954674 1.0473453005077125
Ni 5.716617088151668 2.3131671288684386 0.4896399923021741 0.16411737143962057 -1.5318401235656844 -0.9511888704890973
Ni 0.39661082512936463 3.761440768016278 10.03927022301639 0.6371304191102383 0.41342901745939764 -1.443296730007637
Ni 2.3980714859909713 8.858787449694766 2.001386983146347 -1.5332801984463207 0.8059891618895861 -1.5464463035146334
Ni 3.5241708957364413 1.2210607750009679 12.932773690700397 0.9229874683542169 -0.8857941471333713 -0.27919917760782886
Ni 8.17934076928313 1.6973964138701 8.927156685570115 -0.8244309135345413 -0.6851995067033232 1.2038966866746168
Ni 4.7912894524892025 4.1841666593194855 1.2843213822944883 0.9146169849023345 0.8744324422636488 2.42836888350774
Ni 1.3737762593057559 8.10606828145724 7.2716764448827655 1.1893732962474615 -1.2507774103865557 -0.019777696847559485
Ni 0.9368213592429965 7.3242279962632715 11.779966109173245 0.34862744760298026 -0.46255431423113885 1.6938389060004055
Ni 0.21465633952371746 2.9589891419783756 7.547127030181682 -0.9592392515973996 0.652523870847173 -0.4496985413143933
Ni 4.8793527416535 3.937162118910945 9.028022398732245 0.43761872733172374 -0.4952944847766373 -1.5223584093274942
Ni 5.076477468831143 0.28532524108661284 5.832676067171815 -2.7549190395957073 0.5478234079132888 -0.8442044966170429
Ni 0.43072452826610114 7.403680202456578 1.6973328668406884 0.24357088688125791 -0.275590377210648 -0.12743389997565796
Ni 1.7321354566151044 1.7131266060780714 6.27194076360797 0.2861830651248297 -0.7799024921048633 -0.7744622949258984
Ni 4.225490647865836 3.336642690971389 12.26036967889616 1.3299555606796192 0.7094501517205718 -1.7837051321349344
P 5.061870861780885 5.9421906231340085 11.641735663688534 3.1903746978378407 -0.7276355643803468 0.9834310183522548
Ni 3.6054282059536136 5.576132104580009 13.4091470893986 -0.5984607704541822 -0.7365544641365316 -0.4543098148341595
P 1.316989160269251 5.347261491839791 4.058052514109255 0.1803590301094636 -1.2061831687159486 0.3910429364547136
Ni 5.448964368041563 8.668781831754103 9.844736188501567 0.09873498937906867 0.30855680483433956 -1.2506370281539492
P 8.131671287510027 4.955627596376227 8.960018788518875 0.8222421334133388 0.7055220203107592 -1.8289915147765599
P 6.491844798401068 0.18701522367255588 13.395183320413983 0.9321791621558139 -0.3686360295144232 0.2505095229826202
P 7.496007589391538 8.638500290782316 9.134644183399052 1.15349997938962 -0.09935745345441599 0.5590190195187921
Ni 8.207227784508971 7.3176338407475185 12.978616886106497 -0.35296952662175984 1.8816358804451532 0.2496471749823249
Ni 0.32185281036954927 9.01524207804899 5.33342757982832 0.6554014495052841 0.1258030492404543 -2.664973109263178
Ni 2.4141976959184643 9.155119220469755 11.193142447529047 0.05144108938911141 0.3935456482719093 -0.19080696491566493
Ni 8.186809847667595 0.04323039942869836 1.9309031968430421 -0.8466370173179354 0.5024097556651799 -0.09721392474885193
Ni 2.809395750857722 6.213407502719807 5.986987594983418 -0.5972814054341004 0.45675750504370366 1.048124087655266
Ni 0.8049999540144519 5.276908483481073 7.682460099513797 -0.024656107985783344 0.6110365502366638 0.1164977126791284
Ni 8.973761524357712 5.06043414633332 11.84675587902771 -2.263402019583631 2.2873693290325057 -1.312957483459726
Ni 3.665033477598806 8.231486172258267 7.208203093186432 1.572616277041782 -1.0907439792083216 0.6415185208756048
Ni 4.924581649108621 8.490500180254157 12.107621960590944 -0.20815342661391248 0.38483089410673077 -0.4848570914933972
Ni 1.897459039943729 4.142179571335796 12.092875365881692 1.0718471423038185 1.0572147371026246 -1.5423628774738793
Ni 5.885541669813616 1.2283272396684672 7.809705197653266 0.5494180060939182 0.95641669454694 0.95059828809295
Ni 6.200099465401002 2.4295410801213215 5.714084416689611 -1.220526324811498 -0.3812817433028917 -0.997221644378444
Ni 1.3875263629161194 1.0549083173756701 8.906789402157978 -0.7728059902693981 -0.35854753493016955 0.05696021943512771
Ni 0.5459491071609309 8.05448467106096 9.80292316412018 -3.2162528511561836 3.168832195780375 -1.9078570189252109
Ni 8.37779169533545 4.141884860474757 5.386697488932609 0.5363526882695279 -0.47437933189052495 0.43555156039004983
Ni 6.0338641203460375 7.828017793781094 3.1379513913730332 1.880581985259342 -0.9391699916513504 -0.16269966515648754
Ni 1.639890957109812 4.20455696701764 5.905370184932914 0.35149628451034304 -1.198513825096149 -1.5459786198495955
Ni 6.360947127527593 4.375618202422123 4.271402916129992 -0.8134954975689602 0.8694840971194381 -1.5854422251618567
Ni 6.689061622722786 4.702719629032494 10.395178715321908 -0.2512867674682769 0.08353539882049485 0.8360085910698118
Ni 7.129120196540865 7.118676380402786 10.944879860132446 -0.2968839964821016 -0.526215599835526 -0.6035302145572896
Ni 2.7274016634879517 2.50223335593954 10.480098728958932 -0.4039910119749494 -2.2956480241015305 0.2603563338697129
Ni 5.741897754200193 1.0774905371028045 2.63843398036884 1.721146849786739 -0.07518779818674792 0.2219296544623984
Ni 4.073714554430611 8.795194371711135 3.4033062877384723 0.1869294842381297 0.89550906042829 1.1503673472979092
Ni 6.219826673661819 4.590738711551977 12.802294140861022 0.53209417010349 -0.6710646099638379 0.2189554023254229
Ni 2.7414648973881697 8.949143957746525 5.290954218923916 -0.3740859968854009 0.41149297677894936 -0.21706538439156164
P 1.1999244804358074 5.7549202903723655 13.35857286370138 0.028128382805099945 1.1586794667080302 0.13349373301649267
Ni 2.5753400689060943 3.0073861911896684 3.8022278302126726 1.3575540391231782 0.36808298522443056 0.7366184846052475
P 8.41565283126459 8.038837366282657 3.6729602787893216 0.011826817431598987 -0.9425471356536992 0.1683056984893553
Ni 4.63939363276668 8.875899099063858 0.9620476879765174 0.38185355664596177 0.6115793101140112 0.1641417969196528
P 3.9449719567284856 2.015030254069584 6.831724703751814 0.9502486180630151 0.14353723329542376 -1.266524388808167
P 8.612289443578637 1.8419889300674934 5.836395870820995 -0.12543255327491298 0.018105451351459145 -0.17600435268519365
P 6.257964101023182 5.811394259119016 2.221558099657262 -0.9755472447288037 -0.8426003853547166 0.2974961761448038
Ni 7.016724841912013 9.028015951932161 5.112406406677595 1.9977993497133142 -0.3545867505102087 -0.27462569930453345
