# total energy = -340868.69801333203 ev
CRYSTAL
PRIMVEC
9.19831298908985 0.00000000000000 0.00000000000000
0.00000000000000 9.19831298908985 0.00000000000000
0.00000000000000 0.00000000000000 13.46266083925571
PRIMCOORD
 96 1
Ni 9.161418322884401 5.356260302252829 6.440685266400326 -1.3322055330560605 1.0291048662402857 -0.2881098498338974
Ni 3.491412770859472 7.380229446000918 4.240966720329666 0.6242599909054732 -0.3362218748497758 2.0750977664851615
Ni 8.3603188683958 -0.1514934515867236 9.908221976840748 -0.9666589411002385 -0.21729035591817417 -1.3226328017659608
Ni 3.0229243056041852 2.5080579474364426 7.343006633773859 1.0422768848458694 0.8625603734164113 0.44263520670970863
Ni 0.5443901826185766 3.685920292384021 0.7559955278927625 0.09120448532997841 0.09446850079323085 0.9471686935861106
Ni 2.1259784322048767 4.174681838952091 8.72376352181631 1.2118323965819258 -0.6058184963708342 -0.09107387328938508
Ni 1.3466881772592003 2.00938061971811 2.4697248988598135 -1.4992246515235081 -0.5762477246922527 0.11740814030853973
Ni 7.057129512156631 1.4285715574072912 8.542839148737581 0.2389117908426918 -0.650200364920319 -0.03138057119381047
Ni 8.663108927676282 0.8734386653217459 4.590834664123286 1.299755382947155 1.0244095176471455 0.13995825769491382
Ni 5.875725816798244 7.570919667731997 3.6924851281975113 1.3205478942124742 -0.06970954868099608 0.5171288070429094
Ni 7.08794385988704 6.5329912547315 5.393989941512707 0.08059534235556443 -0.902329168673917 0.5147453944123973
Ni 0.22591148110257564 5.860539402439168 2.500190630536795 -1.2985760179270731 0.33282493335308483 -1.014678920622943
Ni 4.36347720825557 0.13019383857044414 3.308852937772843 1.4148112209734343 0.6897002227871541 -0.1760236359589033
Ni 8.569690863332987 5.047969651944649 11.546748702213915 1.0912412305597141 -2.1250244761122756 0.46899827008426975
Ni 5.135114466988798 5.991725738955914 7.694597421546554 1.407142648684583 1.0364998731527761 -0.6849529379101558
Ni 1.4105796576578342 3.632303327333109 6.362695532041573 0.12716470547467132 -1.276699015348324 -1.1361185506883789
Ni 1.0159168505769547 1.164009685938027 0.158999274795086 -0.5352818238028524 1.1385099337386908 -0.8457430447487563
Ni 1.5126349376783994 5.833303198370588 10.37685761510012 -1.61067811691051 0.11145423671794999 0.9533771363896676
Ni 4.722570139911526 4.895599601152342 0.6415372429528889 -0.4687226478253798 0.3245349254301507 -0.3848895152588081
Ni 6.992327398795218 0.45742749416698364 3.13179185605136 -0.20714658261595292 -1.6116494796848437 -0.48844635150655236
Ni 3.332235968628208 3.3002534351778703 10.517784044993501 0.04012386460407929 -1.2977807757192876 1.030053346196484
Ni 7.130256098561633 0.7902224496554053 11.718317471389181 -1.9631264809214772 -0.31363473357787924 -0.6001268453026956
Ni 3.1478097978835193 6.562720201556779 8.944308707257417 1.3343310640394954 0.5914169762335234 -0.41945876859324527
Ni 1.3969937497181881 1.0471359240685993 6.47278001926628 -0.23198241071271017 -0.18638852413299511 -0.7273002925281151
P 4.825683225898955 5.849639401824083 5.303291818251168 0.1770839589026176 1.1651666170942707 -0.029782887689387416
P 8.374134734154328 4.736744739867515 4.475661670282322 -0.7512848283681706 0.42610866980959516 -1.090168823431142
P 0.3295203561475185 0.8440472965745885 8.320125920980038 -1.396587755986872 0.24573704129464136 0.2675921894965198
P 7.173184624190832 7.156931205552136 7.520295833651675 -1.1347885190230456 -0.7481478254010858 0.5640642952521834
P 2.787015178367824 6.403258251630098 0.6206046426155478 0.4113207128671433 -0.6649104174369839 -0.5805445522953938
P 8.347432032225559 2.0377390179428416 2.392355130780771 0.2702993040150377 0.7270411253294575 -0.06659465720109821
P 8.547219385271678 8.745912139099907 12.768014205728868 0.6913120473589642 -0.11866746663693759 -0.627484411380042
P 2.199574132560401 2.3566997110472228 4.670008221333651 0.37342213804915686 0.7509379865517132 0.3942023080193018
Ni 1.3238579650004312 8.306941059476525 9.10744906245496 1.5859937267899522 -0.5670220923289268 1.2983186505006286
Ni 8.588289851724296 2.54743592434208 12.547132362040916 -0.24233701447415684 1.498192353604252 -0.9221330907737215
Ni 2.5451087512149773 7.976344500736632 6.547187930638101 -0.5756861957618279 0.046749340340396905 -0.20162693834930437
Ni 2.6346635242010263 5.34884646217202 2.4697653714359373 -0.5400558481527279 -1.4872674791616323 -0.7525986620835878
Ni 7.336693831729865 5.777092309122668 9.48604609647735 -1.3037151389258514 0.015007272042109637 -1.4109859336900732
Ni 4.6226028768864245 1.239362264029822 8.502908353235348 0.5008542382526019 2.5571551837462345 1.815723336912744
Ni 4.581330047553187 2.649757955432549 13.048993225803875 1.579908182717505 1.1470537095436437 0.43100482155963193
Ni 3.4616102375321516 8.915418646555425 10.25658139734249 0.3659849650448213 -0.27886441997622935 -1.4429180065119795
Ni 2.1669017256534118 1.686124314556982 9.231911432347546 -0.8593454660235393 -0.5827937533408867 0.5341777921053961
Ni 3.883555240245387 0.9248075627352518 6.123451096600124 -0.9909453244514289 -1.227772207740634 -0.3315720347825903
Ni 0.630018195889369 6.775909496287435 13.302131712662275 0.6564759135163856 0.05675118874811516 -1.2725513117285374
Ni 6.6019050138945525 5.964967847150612 12.570152979373722 -1.5983203666761054 -2.44380450133652 1.5520345962356885
Ni 7.466509619646064 9.070980511873838 6.50860376812325 -0.8484398748546291 0.9158688550315647 -0.10016812228116943
Ni 3.4345396030931674 0.8288231691332153 1.2819532115809011 0.4976727552008268 -1.087589749850056 -0.05556308197728495
Ni 0.8505293475732809 0.8159124173498115 11.084965806957275 0.14066813927774485 0.5280444255141487 1.191399839759187
Ni 2.2619938829181794 0.3685598351437584 4.0432140340650315 -0.7268192391266386 -0.45095478231899755 0.2903983887577579
Ni 6.862557602442795 5.745155767236107 2.3027608050498736 -0.26718595519703664 -0.6953448226674412 0.6264114900308374
Ni 4.993984754383523 8.288075320015311 12.552961332833979 0.2917451325936395 0.27646120985137546 -0.08693054054497286
Ni 9.172207943746422 7.741667947409487 7.369662424307577 1.0673384558001875 -0.030556532630618343 -1.1867284024254463
Ni 8.779817119916114 2.602248670051187 7.180781510695473 -0.6471199262227824 -1.332058465955235 0.15200130490237693
Ni 6.958854738678513 2.8317741682353383 4.05269197552814 0.5677967657114221 0.13450314811761352 -1.634446422974701
Ni 3.3446812857861916 4.316271467195134 4.474530277813414 0.705026054510947 1.3194713733188437 0.17153191873613682
Ni 2.2116791121464363 8.452541152080899 0.11806862269634694 1.4082533652502587 -0.7205994834691719 -2.3749467591328584
Ni 8.097302313469433 2.347639372983207 10.307471062661442 1.8005803106237186 1.0721772719497278 -0.39912237102873843
P 4.75218870698374 1.2936691025373854 10.97481509188073 2.1627433308192883 0.9292951557397996 -0.8129969606659869
P 7.246964290801463 3.8925511901201153 8.210917113129641 -1.0200370996110626 -0.7685019635774054 -0.7537985959289598
P 2.61815255280518 2.587798120712538 0.46040314834333806 -1.4171691796826495 2.082828045249884 0.11081737446489946
P 0.948042500755256 3.2904848270316926 10.85553597122578 0.4337319906828079 0.49084956163140625 -0.22543458229186333
P 5.304749750822891 4.062370440209316 2.547727510856424 0.3340408080380569 -0.5612257973621237 0.586661463826409
P 6.433778253352337 3.41785386375497 12.224957778459817 1.0709207738348072 0.713859336531861 -0.48561093894028623
P 1.953068549029881 8.114264002190291 11.334321947610675 -2.7143182353552096 0.27829003552999815 0.34064802894192947
P 5.764223869577939 6.795244349699172 10.831612079580399 -1.0029575184209565 0.32690034033853377 -0.5127581887790396
Ni 5.722730280738572 8.800237374232982 9.816326233258462 1.6471253039939504 -0.7428076441350948 0.4778094406179964
Ni 3.2061822906289454 6.60926366409883 11.900211346632323 0.36068849253257235 1.3782434491517297 1.1280931092807411
Ni 4.449996538032355 4.045335164986414 6.510609920135192 1.1273459467020714 -0.0819909371515104 0.06081867394926946
Ni 5.0755002020214 8.15622670498018 6.1166655012805045 0.5363467747322569 -2.243201890486672 0.4788628215831753
Ni 7.9158012061809435 7.1419563523864324 11.149492890767304 1.1073790166618414 2.9184944224889287 0.7229507573101678
Ni 5.736444965056794 1.8006065151100195 1.87961634235334 -1.3751946350230768 1.230861902409551 -0.5713600575826483
Ni 2.478108241105036 5.591911876732041 6.3483176493736915 1.456217294724047 0.9262867079307789 0.12504328825629432
Ni 4.486633417736899 4.982716821258225 11.428277193418882 2.611681596928889 -0.9141217904334707 -0.17059500874416428
Ni 7.094391877128538 3.6538641724316396 0.9717621898574669 0.08050252553144199 -0.22666614070611932 -0.29802813738887385
Ni 5.911948772428797 2.0608267829587605 6.71951004162803 0.2719172992344349 0.5860120031678682 -0.8373458218239965
Ni 2.1956096597628467 4.598567685656705 12.58084233862671 -0.13533541421092174 -0.88504775588565 0.22888448851367682
Ni 4.6511176464279975 2.3862170966791285 4.5173419848706216 1.0402020045947118 0.06672732612422057 0.6622948341910078
Ni 0.1314172141669052 8.718666736718573 1.40725170810295 -0.2480484630366373 -0.5060118711941415 1.4633508204450347
Ni 2.1386721038072545 7.805835377190782 2.2962723152322524 -0.01870143306424521 -0.06608429322358296 0.8951979569457744
Ni 9.156451233996515 4.393482104463509 8.772310376876476 -0.2576283934155886 -0.013598307509724968 1.6901933388280181
Ni 1.4897127422920766 6.4339070297309116 4.259289759338316 -1.1433988863998759 0.8920815228039797 1.9470917960561176
Ni 7.143280909423202 3.9312484918818567 6.026074998278203 -0.9869369746229841 1.0512037550218543 1.249588789395093
Ni 3.4727677909043857 2.7369303654149646 2.6973785403982515 0.09395042350623174 1.1213372786141462 -1.9116943903934303
Ni 4.354821595952789 6.760916246496221 2.2662904148062015 1.40520095157718 0.40826521387027104 -2.06729241150813
Ni 7.615715450850533 1.0989684164449747 0.5581940905705245 -0.5516039580016436 -0.5956394989553032 1.3083852907080111
Ni 3.133212075540785 1.2046662283166567 12.189752156220006 -2.5404232157035347 -1.516309889140569 0.24464817910583675
Ni 7.309227669842401 7.430406242081331 0.6730350253210204 -0.3079266274495084 1.7458101568613742 0.4489768326570203
Ni 6.058910215320962 3.3531897250848863 9.924606011520568 -1.8070067829753527 -0.05330616762230819 0.4051456944046829
Ni 1.117263860515358 4.098519809337826 3.9217539934557886 -0.770418463873828 -0.6764338446955512 -0.7708640360516789
P 1.24687728555094 6.021767428414875 8.055504260477864 -0.4938636658673818 1.796918545501415 0.7357653925763328
P 4.243853150872294 4.296200748762968 8.745936974544348 0.731442853941579 -0.3301561282716701 0.17551224354012354
P 0.7739285584405852 8.534157781159085 5.256267283952012 -0.5503253483995361 -1.8864281596274737 0.0917521303033323
P 3.8813844384351253 8.678635679607305 8.04099116261248 -0.4293886261124476 -2.743201751158779 -0.23081667253938312
P 5.379844776157536 8.700067748327262 1.325953340646099 0.15975086694080873 0.3091029071457967 0.28461520641707755
P 8.43200131969821 5.445778281987858 0.4911273526087451 -1.5578766568387623 -1.3543635572103383 0.5791708118763187
P 5.8828913024346585 0.6500741970211257 5.0708587334050526 1.0325272616582735 0.05342675236057251 -0.9650761699941508
P 8.479685373021926 7.899014285402438 3.23646405605082 -0.7548555764385645 -0.6542591083707249 0.4537642267433346
