# total energy = -340893.7729930823 ev
CRYSTAL
PRIMVEC
9.07154836408490 0.00000000000000 0.00000000000000
0.00000000000000 9.07154836408490 0.00000000000000
0.00000000000000 0.00000000000000 13.27712799700570
PRIMCOORD
 96 1
Ni 6.542545818460986 2.111021874615121 11.504804327440441 -0.40418975824931674 -0.8142876544529524 0.5974320720793517
Ni 4.825056783037807 0.490275459469911 6.011764081275949 -0.5943349212112667 -1.3617860749266548 0.4018842500445917
Ni 2.7422474238070005 1.4241242331680843 4.922003513153765 -0.22036873773318177 0.03395887344394797 -0.06406957678639934
Ni 3.109563488252747 4.475956387689071 4.882597614254112 0.6858888194608639 -0.5606406142826151 -0.2296599332271206
Ni 5.07135839242672 4.385413263556967 2.9448668064016728 -0.02002863651610099 -0.16896518645022512 -0.5399463191580572
Ni 7.00719052520844 6.007832472218855 2.5764666919274934 0.6776330072099749 0.4030083363467059 0.03017343825958674
Ni 4.993497292895025 4.566299937757362 11.665390690731828 0.5739491584660631 0.4590103056336224 -0.8098676710083859
Ni 5.932030614163765 8.143147953328894 12.509258776295912 -1.0138214577186542 0.10325781695008668 -0.23175872473767828
Ni 1.93645806961822 6.487971383556793 0.20370978270695334 0.37496402861498 0.8124102349245814 0.39302628543332957
Ni 2.743971017994467 1.4705161314559891 0.4697048164199203 1.1249360517089981 0.19909800127986355 0.08861049935055706
Ni 0.5973442232404729 8.777866048637481 4.479384525812458 -0.5613458678797558 0.8326602434228692 0.4152105348398526
Ni 8.78314568978014 2.326697936757267 1.3440433257539006 -0.5612885322792591 0.3545942067093764 0.6532082985087073
Ni 6.949096329542476 0.5392082984520751 4.80474014334176 0.26427752330099 0.07475790973818093 -0.3467829381950737
Ni 0.7764710170599813 7.3487161776806795 2.276841614152555 -0.3116562696952697 -0.8023279109879149 0.8087867792393812
Ni 7.38298848736619 3.8021308474217124 3.8114654706790945 1.0859416727236717 -0.10754307458900188 -0.15466548199810137
Ni 7.935890288060267 3.897291389666554 12.73346935113052 -0.5066371634829662 -0.07031632902705955 -0.5395567970291224
Ni 7.797639891128771 8.984615707198223 7.06120161695978 -0.24293556729010418 0.880273217315142 0.6800858396258416
Ni 6.8295242506741 1.0069327958660803 0.609482862094412 -0.33173761382617706 -0.3194001753067467 -2.007672642962968
Ni 1.7904877850365473 6.773226221582442 8.921313535621605 0.40788340505082005 0.20798476224653215 1.1843061661371992
Ni 0.2752734133705479 4.7682144610448445 1.3327447122776424 -0.43255365410399055 0.8098167631657924 0.5252622347833211
Ni 6.280877006158558 2.065255913163717 7.105985129724328 1.1309969131910973 0.08615021073552259 -0.2119717719187382
Ni 3.5168487947509988 4.578292524682785 0.38760095372255243 -0.367537911354238 -0.6558930444297221 -0.0877869750079972
Ni 5.836035489470255 5.607015179697779 4.95899365872646 0.7842540842053396 -0.05520492730691783 0.6778988592768519
Ni 5.480775512788417 2.9723200331886668 9.328815652125543 -0.6920687230193308 -0.5107686691528365 0.24968445597816355
P 0.17115018135088222 5.725036023797435 12.392791888429482 0.8101831453662757 -0.4803252650613147 0.5991282288348521
P 4.436259292087219 6.450006953690763 12.70780503367915 -1.8932025022368297 -0.49920976067064343 -1.2437426150269615
P 2.373525269366216 8.523173257020115 1.4036316054339475 2.073718626749448 -0.6360186741032982 0.336236273027479
P 6.430793414274693 7.798039039256395 5.937877227078617 -1.18866675709874 -0.8462734633309297 0.015195733903831896
P 4.763597042932106 1.0894929574457088 12.557573842835094 0.2576715879486982 -0.407897289007891 0.7942870429613095
P 4.114201182384991 6.19728268806645 7.977522344926259 0.11222145390127769 -0.3505354632589705 1.3606596746316952
P 4.699597269286982 0.757615803803937 3.7767323263371453 0.059481186084768524 1.3835224381624815 1.1124278919396584
P -0.00048260637249052216 5.5300793780983035 3.5651348323354455 0.44034846755806095 -0.4562635961264207 -1.1074798039057636
Ni 1.474761616086169 1.1208170139158173 2.676815252676608 0.3032513334610261 0.2908326480816991 0.0020054604658029974
Ni 1.6149896105590729 6.509842886640905 4.668755819189363 0.08978832170874214 -0.299072262382672 0.29146333968716254
Ni 5.9821146326321895 5.4912077933967645 9.200094009586229 0.22647202241744221 1.278862855768862 1.0411926506427553
Ni 8.73351524872947 2.397782589667713 10.241113148396542 0.2656432933002651 0.6549476497973171 0.9228848813380816
Ni 2.3836219026854253 5.3791197419213335 7.03459385847948 -1.0927831211255372 -1.2588049086767223 -0.2965641512488376
Ni 0.4603475142916501 0.22020185761649785 9.393276260427106 -0.3962589334380143 -0.2022681714777291 -0.5989299967811169
Ni 1.7055599493362417 1.101022895405022 11.476059312167683 -1.4667163944831578 0.7684065756501218 -0.09991512573009889
Ni 4.347693765496524 6.54728116670234 1.649802584526547 0.3668609398918714 1.3639090348069283 0.048464266148974595
Ni 5.484014055551182 7.999908204802101 8.25342078797847 0.9828972573359717 -0.6367774066461936 -0.7923430318610613
Ni 4.941181673531251 2.8354485116071437 5.070442166042856 0.8565285654000346 -0.06014401647974803 -0.38485840491055656
Ni 0.523578927791099 7.69457803026665 6.8735557320800105 1.260129798135733 -1.4860770583979568 -0.33752593837317996
Ni 5.306320566371777 4.419894218854646 7.219836690199987 0.09076739779255981 0.5014869867405944 -0.7117865131632323
Ni 8.338930109928338 7.259651715930455 8.957135265766164 -0.9344939263319196 -0.05368463400764948 0.8154564779500731
Ni 4.716216345873497 0.24957008826125004 10.368879556894065 -0.2657479371989294 0.31021310949083997 0.3293652569392586
Ni 8.056079232216787 7.0190470389085355 4.675102274418581 -0.11357282572284956 0.6677939096323661 0.26362060644328145
Ni 7.342765241959745 6.038303803143585 6.987473514858662 0.36517069667364205 -0.26749011670101674 -0.026673138415812127
Ni 2.473974524302072 5.358037463544116 2.500003517997317 -0.7431894529545459 -0.7592318511293892 0.5494997671744472
Ni 2.3004811620110712 5.282897828518947 11.303403253789856 -0.15858615720874622 0.029859763673909863 0.7147761919191754
Ni 0.9842992827201432 3.3966326359494126 3.840409152860829 -0.19405452531868517 -0.10896540885782524 -1.0971748224353297
Ni 3.733731372824371 2.4657012722022342 2.7677103528848885 -0.5120318521359762 -0.02724880841362404 -0.19785692978391087
Ni 1.2041573286539833 3.418077776260833 8.2392809655574 -0.7545033353054683 0.5095170561339225 -0.5564743987200674
Ni 3.60717420172258 2.9455226793477456 7.3578920488418476 -0.8020877699526509 -0.7715078402832648 -1.190070322314486
Ni 3.7949824673179053 6.916248252948712 5.9049493208593296 1.4781207796653575 0.39597482653869226 -0.2032081667934952
Ni 0.9308406482636272 7.438597078782863 11.240642653650035 0.5006485499996991 -0.16714561674298312 -0.1925753696699974
P 0.31995351048384807 5.54612694713845 7.8855522662379 -0.8254339008777589 0.1922814925786624 -0.19246738333722335
P 8.499251584007755 1.7996409773268283 8.110001422794248 -0.07988417522115274 -0.6908505343415134 -0.27100764293597196
P 1.7554897514826293 3.34564146264548 10.445899723893243 0.4141522687786674 -0.41714091909334616 0.126666168571698
P 4.097373460186309 6.139170349303775 3.8445122141818335 -1.2938030220184622 0.13142785162639944 -0.5307769939539633
P 6.970314681145019 4.018659635109236 10.623959703626193 0.26930968640825875 0.7297081306386594 -0.5578453109256651
P 6.408831195707033 7.682921090630367 10.24423376103069 -0.3381751419214047 0.8224568205273061 -0.9208953617118786
P 2.3502658193837775 8.440948742729624 5.824370385440452 -1.5226052352309778 1.302526003713757 0.07047753719527217
P 6.858362702894914 3.979352616086653 1.622637832977245 0.7560192577293624 -0.8102294252231788 -0.2391694153794526
Ni 5.236124925200129 2.832681689358843 0.7486068491325022 -0.595203182748833 -0.012464451015597889 -0.5337108797713067
Ni 1.3339893287119597 1.0575157494940342 7.095456690703417 -0.03931036756384843 0.29190685498248437 -0.6799372298631192
Ni 6.863288553651727 0.791967943114973 9.313453892141043 0.4160983367614447 -0.23027442688266797 -0.07104086589790991
Ni 2.585100991651863 1.6251769593618335 9.05696674825904 1.026804500241883 0.18480241059279784 1.5074611805006877
Ni 6.373062080542932 1.816486842622221 2.8246424832065666 -0.06047903122166359 0.6472384540785175 -0.4144086077638476
Ni 4.061023765927483 6.832209428987205 10.199344111150387 -0.11068007755608682 0.23010447696370692 0.2567765869382545
Ni 8.135518781162267 7.370288319669072 0.28293252164674615 0.07840373402088434 -0.3407156489550713 0.32032808643765476
Ni 7.622713224197668 3.822596260510784 8.32112175335247 0.7497079707993539 0.24409744880868928 -0.40058944249256817
Ni 3.1186985374463183 8.427858498453237 12.15311250933978 1.248230732705302 -1.0279738379596361 0.9923512036600202
Ni 0.013115644611781897 4.9911477618710585 10.068192200806745 0.12225544109851202 -0.22290101723673225 0.5316789369429424
Ni 8.603810250348465 2.111684097645042 5.782959674354324 -0.12717036190162614 0.548123455652211 -0.049988158992668744
Ni 3.651307284470069 2.6425601789329716 11.610011609488538 -0.34681456276395756 0.5882365216230128 -0.5064240190308955
Ni 1.1969454477116908 3.1168388700335257 12.814380305219196 0.6193916070695784 0.7500049332144825 -0.7167628833319011
Ni 3.164682216058244 8.566435471125516 7.895735079266483 -9.590214791596386e-05 -0.6158640535322942 -0.3481934453893552
Ni 5.5825219991390505 7.784114212531339 3.7036682615756193 0.13065317824390404 0.34901825528349567 0.025204267179769497
Ni 3.0269216827379233 8.303061207732332 3.677246469836599 0.4219018308170992 -0.544620584705275 -0.7894207160079437
Ni 3.5371055622279037 4.3408084602950145 9.438431706674212 -0.25330122679514444 0.4522817286605372 -0.461478821778773
Ni 7.3069144828604475 6.220224633856461 11.46607425889324 -0.08379353757788795 -1.4412480750087244 -0.32051937651285445
Ni 0.6711975127088907 0.10285412240478928 0.4787164925558617 -1.1114151344044279 0.011519056383193066 -1.6274327106610296
Ni 4.681399743286681 0.19118651020275848 1.6466030494217088 -1.3212860579300794 0.21132051148798447 -0.6143134212157226
Ni 6.232398651748985 5.563117957207523 0.30160630393568866 0.028999986776775857 0.5523308088653391 0.11360085074730757
Ni 8.056550952731252 8.664190476199911 11.340911384773626 -0.23639005286210255 1.338248911036663 0.27854971694928804
Ni 0.03880989817272466 4.582030002605079 5.687895290522047 -0.019789009701469143 1.2439354477640578 1.132585597834456
Ni 8.08997960841974 -0.02963946994056923 2.24753869865596 0.10512752316897378 -0.9620628370891238 1.123231924533698
P 8.547902297836076 1.6199880337027246 3.575783015794644 -0.2336412864723718 -0.12248864015524066 0.49150647848911483
P 1.8748985424806133 3.21387722278787 1.8028613769928834 0.5820597033883395 0.06630592231608581 -1.322325297827871
P 4.716170988131721 1.0749603369808627 8.259701020904696 -0.08453195840580927 0.9257195225733992 0.0006108941111215285
P 8.613734524248928 1.5096054333180504 12.428560096438746 -0.3626145059106916 0.3714470166006571 0.05947990053318789
P 6.302458219695306 7.912558265690988 1.469711485116893 1.412661264509967 -1.023083085526238 0.1997405199598689
P 1.7123545390542003 3.1338026654575346 5.906251088048284 0.7985432471345022 -0.7632126901540082 1.4884941524798816
P 7.031738135057299 3.8519155047944187 5.9451126940466335 -1.341546350841012 0.42735411218092206 0.676877617101189
P 2.4419338155119115 8.746623636102568 10.013968834823896 0.3334152586389161 -1.59749787077481 0.5317709824361164
