# total energy = -340860.1014415136 ev
CRYSTAL
PRIMVEC
9.36077321841305 0.00000000000000 0.00000000000000
0.00000000000000 9.36077321841305 0.00000000000000
0.00000000000000 0.00000000000000 13.70043780660501
PRIMCOORD
 96 1
Ni 6.437225966667884 1.685772308833969 10.576477559880482 1.564560753727157 0.6439947503302392 -0.835380984788142
Ni 6.557633594055072 4.499115291086155 7.259273167490112 0.9116579022740106 -0.8433480621540185 1.5799457208236596
Ni 5.4926771334637925 2.9052657763859178 3.731848271888165 -0.6724272946393194 -1.2471709239822197 2.8142842689279015
Ni 6.982285076323579 8.320491871289375 11.31464380693968 3.417069634899367 1.4379053837887368 0.9961914033417165
Ni -0.002169827258676066 6.697549073069012 10.53626742194964 -0.7767143241848687 -0.21427805145441162 -0.38693045694823686
Ni 8.86036511251838 5.93769765850572 7.958118550085138 2.3258829117266715 -1.5703354514274053 0.4051130413945345
Ni 0.9575135042708144 1.421433430672824 4.305184405629316 0.6218758069440128 1.379634415961985 -0.2517030290700891
Ni 7.757113728220268 4.320333881192048 0.35109826972418756 0.46219127446476527 -1.0819500350657754 -0.32856564385609865
Ni 9.127278203346204 6.149868946879972 0.6899489036189888 0.3753106133211214 0.6776276078933363 0.45764119320023766
Ni 0.8120012188808508 8.215286139795586 8.871266669142427 -0.08735605811816569 0.21941434423971246 -1.1366949920171392
Ni 3.9043691965769125 7.177110851711089 13.394206064439354 -0.5936270965109647 0.5190789887907447 0.16514581270413495
Ni 4.889927577754515 2.4033879141170775 13.683408092651273 -0.35982151654658673 -1.5873741520772469 -0.47796910612431226
Ni 8.276159248782516 7.030090545737119 3.0651440406106105 -0.022180649862097286 -0.695738201451118 0.016890090887119298
Ni 0.5680229587971272 8.60036963318392 3.973387114441212 -0.3493023621828178 -1.094413971860741 -0.279683316333099
Ni 1.3153197041656977 7.798413460167114 1.9391871645150667 0.29152761726619475 0.20784283735202916 -0.8780926647240554
Ni 1.653224899953828 5.495363675410471 2.9728851947142108 0.9665085315653031 1.468271911895736 -0.10157194460723151
Ni 0.19985157459019903 9.296436738253602 13.365339311633896 0.6469021537850214 -1.2270633545990672 0.02686211449816664
Ni 7.953006631767783 4.089422324604381 9.87590605068278 0.1885950448660107 -0.8816137905034365 0.22192811180050165
Ni 2.9915065811062918 0.6294614584933933 12.381674614901634 -1.0774074100004156 -1.6517969984380068 -0.1239495409714833
Ni 4.416356694045797 7.374014718778609 5.6525956490138185 -2.4544717512423793 0.11652548059327028 0.9051273002443444
Ni 8.031534159261456 8.94035292065206 7.690768311142647 0.677415234772214 1.9389398563729445 1.2413892843034362
Ni 8.14673719667529 9.396625095240703 5.170833152561066 0.31769090592512383 -1.2557275553029792 -0.2091039634526399
Ni 0.7747210030033559 4.188028710898141 13.128129826747534 -0.1414325282475951 0.33604395451101476 -0.16578601739129514
Ni 5.943978737412414 3.7048536737493816 12.089211293260366 1.2901780236713651 -0.14331920374734672 -0.2480266086597664
P 3.015479521613062 0.7150236071470972 3.165869705987047 -0.24217426364404743 0.13045391774890439 0.3302327471458764
P 4.742523480073877 1.1205126503248537 8.633056517586729 -0.3308549541109076 0.5073840689513197 -0.03559923726084836
P 5.321459228423051 3.938255196043726 9.379895521139296 0.47143567588116875 -0.7736469981134547 -0.4281179869301401
P 2.896878523479215 3.0368782494531548 5.049049491493871 -0.3950618278061196 -0.9478482361516386 0.8713296349686092
P 4.313434991245352 6.620257167655344 7.832389323057928 0.4702948774085061 -0.008962351399610371 0.13620958928575896
P 2.3349887433701144 7.192743343177823 4.3026092568853045 -0.9477397355982323 -3.068205388695232 -0.5443537041971335
P 8.693556131717658 3.042213890253178 11.859565313227373 -0.3594736462888648 1.110204144815462 -1.528022292481491
P 8.624351934464025 4.069961276844296 6.535930641081645 0.7666949922756537 0.28761671224756274 -0.867862502355615
Ni 3.7904953889764195 5.287797887516239 9.964780977019164 -0.5262698501122292 0.3224142795427221 -0.18420720021096018
Ni 0.42337467278583396 3.9826533439639182 4.218830335551608 -0.518949662301732 -0.9849729089180779 1.2386721424825893
Ni 7.836764548513947 8.405075819129742 1.0488493779165433 -0.0727388224256231 -0.781009609126113 -0.3540843569524934
Ni 6.118463552346503 7.846247011900654 4.271248794063835 0.34564496793588856 -0.8014707051939423 -1.0661403217270284
Ni 9.279512460066861 2.078101040782335 13.572516627434792 -0.09358558396764528 0.5076491496872483 1.1162554932158646
Ni 3.2199843366272813 3.2325090513473356 2.8917244816818597 -0.6585556788635497 -0.5503076077877233 1.4465712869938505
Ni 5.776065185358354 5.593380332984229 5.348349921977833 -1.1073854444197444 0.3764969203197387 0.8528675716086797
Ni 6.8718653940831 6.871575210109766 7.396140778706704 -1.8407792514401073 0.43838800139758044 -0.7251109981862802
Ni 5.99307599354596 3.5196788556685794 1.601827701812272 0.6220863802929222 -0.21139481636934562 0.6742586914211033
Ni 3.6562806209225047 8.840754292384963 7.546447652198022 0.5334314008576748 -2.640224184453272 0.8239781422678389
Ni 1.5243270511532694 7.365880206751907 12.78707098642339 0.7985818136819215 0.04754201144502135 -0.6112039290524635
Ni 3.4849129435084287 5.059497986688583 5.133540767678237 -0.8947593267464591 0.6065083233490071 -0.7477220507175768
Ni 9.090612054199378 1.926531398968345 6.4630860390786635 -0.6118791007426171 -0.11449790864028023 -0.4183459951450408
Ni 4.282984395591886 2.5821225201445186 10.916468335967288 -0.4847295647765974 -0.1719057571357878 -0.0983045867098694
Ni 5.033025719701802 9.269037754706817 13.075615888347306 1.4559768965784665 -0.7481545102693051 2.4926737162333974
Ni 7.101354113124094 5.682710192904616 11.5889809270982 1.5205432104956265 0.314794043993303 0.20158168693366574
Ni 0.6683704489308951 1.557557796486747 8.896200961070535 -0.2696395589438517 1.5011146694573696 0.4330923002162799
Ni 5.989444013492611 8.872112883051765 6.536834891785649 0.023353844234592035 1.5180507830910759 -1.1301049975044473
Ni 3.735126414709513 4.426662905485841 7.577589072923491 1.0373341961286136 0.24620806739378884 0.10179408792036661
Ni 1.1426040753916162 5.548682640317369 6.0175338221114 -0.41627805687241853 0.08610393087861946 -0.5948781953092465
Ni 6.403040422454403 6.367057609760914 0.07908168527500922 4.255359565804188 3.59978302417362 1.3245063646395898
Ni 3.3943942653747037 9.182066809666441 1.0547270074925688 -0.4974925208692206 -0.5393495661143227 0.7646177980316509
Ni 5.258414420022778 2.759668307958621 6.380512785350305 -0.3687746119748165 -0.6645844015561329 -0.27792622443267617
Ni 1.7038198798207138 3.2972013558542823 6.87649616865112 -0.3198076951578105 0.06080093333745658 0.013578510015383065
P 1.2764537732855292 0.5712234071998077 7.253820517023421 1.2755767288184228 -1.8039913931877962 -1.9587041834840653
P 3.2937285089476007 8.075951028728316 11.151526715141637 -0.5588115314936764 -1.5744229912332175 1.5098289094019157
P 7.339239445845124 6.135874590746578 9.376579935224617 -0.8120685353144466 0.3184007875079549 1.5531239726451254
P 0.9720975891242108 4.9721900538082044 9.56161808601475 0.5461028256777563 0.373224420216054 -0.567366620152539
P 8.90129041353189 0.6701340186269028 2.354406731572865 1.4019392501067727 -0.16566183310860502 0.11376463001868149
P 2.897580581479218 2.6182551052113414 12.689893990217636 -0.6789638102062564 1.9738382109120263 0.5937988462021386
P 2.1183710876625095 6.078942367332999 0.8049048166168199 0.06119199812828816 -0.8059719354984055 -0.13207782650557254
P 6.707331081202387 1.1314834766715678 12.63938044907875 0.11668720298211516 0.3950949950369002 0.42114824048052624
Ni 6.916900074589962 0.08754008005904587 2.9692822330581956 -1.0969279965318464 0.17881379710953074 0.38656098942396006
Ni 6.023161519039424 8.840342418358293 8.827124070334236 0.09532570658720357 -0.21041419762363117 1.081407532298744
Ni -0.018882551968081793 7.774028645633674 6.440863563185233 1.482156383187312 -1.0671355957607622 -1.5258250277198562
Ni 2.1548032174760006 6.4117740239744405 7.959708009397145 -0.5338759445942611 -0.4305139979661425 0.868644374826962
Ni 0.9231173426573319 1.1782218179251038 11.123864693864185 -0.47106492280531126 0.2243467485443233 1.001330781450811
Ni 0.9250877854440072 3.6329067699090705 1.8291728037599235 -1.7201623743862826 0.4107913227262345 -0.49300260341866714
Ni 7.6596119131798455 2.3993534208103933 3.4508659387402814 2.0202725911151656 -1.1185322050651834 -0.16645244733070044
Ni 2.9894940148396163 2.359017848516885 8.962072723017487 -0.05052192000895169 0.441356339997285 -0.9025027181373038
Ni 7.299933558618287 4.547716426233033 4.26083586980779 0.9691325994517116 -0.19348682574067322 0.9838477941746993
Ni 7.711405072033403 1.973344626408548 8.440894818289896 -0.8862443472969125 -0.035260622974507015 0.07532406665429608
Ni 1.5368236835533235 1.4690048807530298 1.7134998555247556 -0.04844781108874237 -1.1098789002655594 -0.2585151668959161
Ni 2.698458211131689 9.348772821960496 9.609487208686959 0.07426502926216243 1.192243675816721 0.48442617460356563
Ni 7.302882202218301 1.4442830783795897 1.0860416025247044 -0.7410739492734398 1.0265833853700128 -1.4582317540509144
Ni 3.086658842040037 3.9389385324970623 0.7877146924674122 -0.6775797853745362 -0.3776179212980593 -0.7013234088483792
Ni 4.769548032687327 0.32794158865208717 4.620253058793347 -0.10186067949224392 1.2494417222942678 -0.46725043415522755
Ni 5.558155742930744 6.977932316723559 10.397783205178374 -2.4120855729666846 -1.2557236986482374 -0.9724506080813511
Ni 3.2468871991873978 1.2635920707254735 6.431013221406524 -0.05296832466691522 3.8412180956587973 0.04334931351991244
Ni 4.85334567556769 5.405874682343416 1.1515108512183214 -2.0719440513475287 0.1292562978963774 1.459661030298273
Ni 2.5590388531044184 8.890834429718513 5.274956778657517 -0.9033375553337732 1.259575982514792 0.5162497468720657
Ni 2.1252138129692058 3.7573488906029424 10.952541012084778 -1.7427438592312243 -1.781264898124558 -2.4542262108904764
Ni 4.847916427034334 1.3331145342724415 2.194193351662838 0.5077568789097062 -0.3286214367946986 -0.554439884788542
Ni 4.114031797697821 6.738923691202524 3.093353667128066 -0.2510671952583031 1.1152638187265569 -0.07457381875183286
Ni 2.798899308998791 5.042807727835178 12.464973328563326 2.2802085496180085 2.8886020058048705 0.9433498340606529
Ni 5.008856202955029 9.327027745507069 10.923496404585984 -1.7894044965125568 0.6310775280479389 -1.81214796085666
P 5.060724247995255 5.597442908610914 12.605978401593271 -1.6205488390570026 -1.8575742115102591 -3.2508547575007696
P 6.754406410295925 1.4590450179263201 5.399630110452723 -1.828268520567606 1.5337548240898942 -0.20421501079145474
P 4.918702594981307 4.820199177194213 3.2982301048436202 0.300233886790941 0.05250989697325795 -0.10461793052240691
P 5.383446269436653 8.139857028275259 1.7649045422849785 0.4152177339287043 0.11622054775834179 -0.5641617400619962
P 8.660671734997514 0.07374978878431945 9.84773761156799 -1.3026527590996082 0.45133890513129366 0.6043187718968559
P 8.739798351984525 7.349489492645169 12.538723117347649 -1.3939346346347414 0.16320462981736408 0.9828995713288169
P 7.62902090592638 6.743950426482546 5.181765599737113 1.6277404717094355 0.1635005637912281 0.8216538650100366
P 8.380307212889635 4.774387552500682 2.5847660025338635 1.7063177551937065 -0.11971313429263253 -2.439043589612767
