# total energy = -340870.4268770411 ev
CRYSTAL
PRIMVEC
9.26972735860166 0.00000000000000 0.00000000000000
0.00000000000000 9.26972735860166 0.00000000000000
0.00000000000000 0.00000000000000 13.56718298771510
PRIMCOORD
 96 1
Ni 4.418285758675287 8.729617403344086 3.8524690178480463 -0.1305544478825106 -0.05609272922850985 -0.021652031052136905
Ni 4.815651160401413 3.8995610866620307 0.5101205110996818 -2.1021745680972956 -1.7818981608331825 -0.46659711684194477
Ni 2.9721712152996718 1.8819771227294864 4.075731327716102 -0.44052535945555743 -0.5747500571008037 -0.46845216777281257
Ni 0.24941035673835252 3.6771154397723054 9.351140570598957 -0.549257312146338 -2.0496564435939213 -0.24729718669290957
Ni 4.933626980210785 5.948476728991344 9.141933948290967 0.7300567722273298 -1.4209217047465463 0.11127991592361479
Ni 8.156525780503301 1.1186892344020405 2.9738990924751625 -1.1640749266919888 -0.2788919307800552 0.40170273016140495
Ni 1.887696544495997 8.517822673163797 4.2641246312358465 -0.07124372593733536 0.3580412847177124 -0.12340241021876168
Ni 7.583406348480506 5.42639641568234 5.551718494405748 1.7399225877323454 0.5184205292711395 -0.453193184731213
Ni 2.6725828975170733 5.774697150617311 12.861635442419072 1.032820881639292 0.6929269572545679 0.5517659375008046
Ni 9.148201210943055 3.647786022480182 0.2428622213479745 -0.621142528322414 0.6222033654867607 -2.0878843767268687
Ni 4.44116344574133 1.493047172879414 9.4295309467913 -1.4771692143853656 -0.4781866214517571 -0.20610605716658054
Ni 3.021412006910216 3.9608617935371297 9.709192131719005 0.2648475368718471 0.4454801323576715 0.17000134102422335
Ni 8.170476720144466 6.289259715056558 0.4989810797596234 -0.6213585009879622 -0.4127947263095084 0.16048080312829782
Ni 8.743596152167262 5.210430308200704 3.454218357161302 -0.9899572495065468 -1.5020847466801228 -1.7337275146652271
Ni 5.422605097201784 3.3052881368577482 10.087852150653166 1.037415185878194 1.3156594557719212 0.2580829644545039
Ni 5.09802559452046 1.9401539314922447 5.3489700911329745 0.3197580728667977 -0.7480606650039182 1.8034679165841585
Ni 5.474265287647107 4.872270654971669 11.875640500891016 -0.8072389751362871 0.2575782569039435 0.12426732932221825
Ni 5.252014305031445 1.7534801623933873 3.091730304538089 0.5384417095880727 0.22527543100617978 -0.9477646752988967
Ni 0.8375244997003825 6.252505246168041 4.8987709514807465 0.525833791016075 0.6310600445464422 1.3952307277383456
Ni 3.0620041429159706 0.33558081508407045 1.891590756949986 -0.013216498690274013 0.47254562111589576 0.6751428937982694
Ni 2.618076900779499 3.470780578993109 12.690484758717618 1.4127008594986508 -0.9361713140343426 0.8240969272338904
Ni 1.8810872289051992 2.141705612965899 10.755994630627868 0.21346558285544523 -0.7211584412964355 -0.10947088773933406
Ni 5.570967083219621 5.009657283823301 6.588061032988303 -0.621862180097258 -0.08019116493861028 0.12326717019247804
Ni 2.18079605314317 6.354286852320858 10.668431859236232 1.7004193874314006 -0.15208049487974454 -0.6692057023782282
P 3.02722412595009 2.5256113705996843 1.1784048179026283 0.18315099103230392 -0.25739905101360183 0.09133458314993947
P 8.198350790244788 3.463179402577325 11.364618972294243 -0.3866190963554051 -0.7507785781557135 -0.6252462660781425
P 6.730285532536762 0.050175180126045014 12.97043052427455 0.6497776755606035 1.1326940983878624 0.23105269980958915
P 4.585678494914594 8.035314825853552 1.7776945441413283 0.3823695770504318 0.09420290583667001 -0.44454527924822795
P 6.622636188980051 4.781288281165666 13.782086922870192 1.5236362475986533 0.1994471570891662 -1.7536959873673539
P 5.1738426944042395 3.828582784447811 4.312057464319235 1.2022946322948198 0.43150901488956006 -0.9767219817631951
P 4.051389950703652 1.9736083774490314 11.644862296098673 -0.10252273855627504 0.5634590575680167 -0.39679655110903916
P 1.5122447781929376 5.254415164411553 8.827691118562377 1.3134243957938154 0.9663036146433488 -0.503549525696578
Ni 2.9204554064903308 2.3709645094478202 7.590554235229544 1.0328620192898728 0.4368062587327574 -0.765333850262069
Ni 2.507331468292457 1.1151018499228837 13.201587860914952 -0.6832945763711264 -0.09385169314483836 -0.9800124795890088
Ni 7.3657994992603415 3.1330936818582265 4.300213533701616 -1.032882331004847 0.1819852528589769 0.24314819752154257
Ni 9.18097896680429 1.6096603427703478 12.234099003041129 -0.34159342357433425 0.194008245461782 -0.7546061794319198
Ni 1.6151943699901323 8.104726544147933 0.5601890893613592 0.3139036709685497 -1.116268348731671 -0.553946232981575
Ni 1.0773647899367158 3.7527007964726775 6.675840715999606 0.7736613962911578 -0.5786388506322486 -0.6259265799746188
Ni 2.5057370751906096 0.3615582989713799 8.755472526830557 -0.5254535248585208 -1.1645084146849816 -1.3618894332737383
Ni 7.633611191734027 5.573636764692481 11.224523729114937 0.2946458511802022 -1.0907882021826956 -0.17372789794619115
Ni 6.830491285042404 9.14922088095005 6.262272757862324 0.21586262233271214 -0.9721880984485838 1.8614599197179105
Ni 3.6795441083344222 3.9843142036980246 2.605862181068427 0.18416220590563767 0.341534802422257 1.6531810232697273
Ni 6.457764818576225 7.398642143212932 12.184334471836085 -0.8262579394409513 -0.7582314348893329 -0.010461304542640047
Ni 4.276384772610866 8.081654192807827 9.54866455554498 -0.015810227559379223 0.6886764095083301 -0.38310825498866924
Ni 0.2754434589896799 6.537465934213923 12.120432679470413 0.7698422796553838 1.446040611301361 0.3722975375264104
Ni 7.065543761109528 8.15504262412949 1.3340732030069549 -1.8740884071151982 1.951585827271729 -0.33359652141178675
Ni 8.717826310172287 0.9623460131476296 5.569152070607169 -0.09619859611046014 -0.13055059122776871 -1.0699057023067315
Ni 1.0962750337028133 1.9726906744427357 2.3516816226428032 -0.34616073123004254 -2.5020582427720908 -0.46909468645281793
Ni 9.002926044128213 0.0699892223074338 0.5747407073339178 -0.4103506356443901 0.3281547815709252 0.16267549678677146
Ni 3.119430103764487 6.364363045935442 1.8181383645097025 0.5477110507051406 -0.3165549925484677 -0.9049676347380285
Ni 7.177540606786973 4.403324418754463 8.794871648928128 -0.15046841319761828 1.2707895918424241 0.8664679360009335
Ni 0.9587864378504818 8.448151402504 6.764990464711218 0.5797583089486725 0.2951772982036401 0.47892195695588485
Ni 5.2300172420623525 0.13555307678450737 11.250464134092903 0.40163151060383734 -0.15232706367291182 0.7409327957098852
Ni 6.429130630834325 2.581405859437008 7.682458019932778 -0.6632479421328965 -1.0370284919627366 -0.8641562571486214
Ni 0.954188653091666 4.321964021923563 11.479939942194493 -0.7088361722856567 0.8448436728629386 0.11871040405973103
Ni 3.074490465637997 9.144085452005728 6.208899521805248 0.2793207907873576 0.024761523215396063 -1.3279668123843646
P 6.25583307828178 0.4793218420247512 8.941587331371034 -0.36009096815788955 -1.0467814575844423 -0.4707455917926796
P 0.9410349100014247 5.676308264669587 0.5029791131597792 0.7753583243776065 0.4654167233805984 0.6183618802534835
P 0.6008933890678837 0.8368505905230319 9.541175542829963 -1.2517215194673796 -0.27304961306666525 0.5191959739845833
P 4.208057612414835 6.645013310769934 11.388876921760666 1.0148771526766778 0.9284837155820977 0.06185045764789348
P 8.701622826788395 7.244570005155919 6.210961109164845 -0.8185523432665774 0.32887186224260784 -0.5537297460953947
P 7.42460664948197 6.807836071432433 9.535491346027332 -1.4981414457616586 -0.3207821432559379 -0.868058420416505
P 4.480828609013453 4.0029927042807145 8.035896964730274 -0.16525585591943798 -1.322954703881754 0.8608451904975174
P 3.496457723714722 7.464383049482129 7.566526175001064 0.3998327668322017 0.022258811398200375 0.5320396627164709
Ni 6.050045131415427 4.855510987947598 2.2770343623488674 0.3505318637145447 -1.0107978404009816 0.9602193561224817
Ni 7.784281339858609 8.744625091901593 10.623321658126756 0.21504089776236512 0.1337837534530857 1.416777857781502
Ni 0.2587792701571734 6.893581049293415 9.682301579689069 -0.5030291344167337 0.3525856609197799 -0.5888582143674117
Ni 5.004206684149542 6.360200938361433 0.29278804580867246 0.35525112356708494 0.2893493786679533 0.40693646775651854
Ni 4.861684626353588 7.52103962296173 5.850888747485478 -0.07273985086688763 -0.3001089311773025 0.7605307724464708
Ni 9.032255461420336 5.279971802677793 7.613753581834158 -0.9041749636334041 2.8814502252514376 -0.22297840744188693
Ni 3.7309540161416654 8.386683840536845 13.23123244893651 1.291355331808918 -1.0246301182983837 -0.5242232519958456
Ni 7.619725140184217 1.897707850019225 0.5872919181472982 -0.14152251685824013 -0.14724322139210125 0.9589973107899227
Ni 2.6158336267641094 9.022837418446633 11.029766757778807 -0.7237002338816826 -0.17204536803744566 0.8006970602527114
Ni 1.0103446612951061 6.927359935706972 2.505668479208321 -0.44430025311695737 -0.983807684965383 -0.12557113573530632
Ni 5.335543818059045 1.3069852057847542 0.7798649417229909 -1.480461254873076 -1.0588419882934024 -0.08918591223805285
Ni 6.265510673620901 2.1794982913160847 12.345675003097506 -0.2040250062678357 1.160692126262685 -1.5367067076293663
Ni 6.9969477788207435 6.999228131745479 7.338326808353683 -2.118712674961635 -1.4894894265136154 0.9020725725784206
Ni 2.586698873746048 5.717827373408975 6.510172149044855 0.07922880102534097 1.1653540505147284 1.7793203728036777
Ni 3.3961407344810426 3.875645190134319 5.388735367460329 -0.6530206079779334 -0.16494526665755463 0.6157933481953588
Ni 5.776124688627105 5.973152743160633 4.40880560852843 -0.9313222134721573 0.27534715085159034 -1.5097484338729676
Ni 8.584314427347236 7.842142977891933 3.8131384917327646 -1.2993221520644782 0.8955435132106512 1.3241638936985065
Ni 0.5379519404542558 1.5936515236605193 7.522962164411283 -0.6270648073441201 0.15415228980710874 0.9929993787669802
Ni 0.4042806183190218 2.839391640934193 4.493980498158227 0.43744106410327893 -0.20186990759804585 -0.1460700270196065
Ni 8.268392849998039 8.598886438719935 8.352853043650205 0.9630012897429931 1.824141128662794 -0.5707792453785138
Ni 1.385481256868731 3.9966151318733245 1.8612685518601424 1.2436688243662324 3.47168115159666 0.6075156815675988
Ni 7.71655671193944 1.7347367737193438 9.653728572147589 1.6509781020811374 1.4304293871266656 0.913100291147492
Ni 4.8310759866890525 0.3778526256831671 7.2916277759787596 1.0702957386562986 0.19184286237934703 1.8195879620744728
Ni 3.111309822617869 6.3993655363573945 4.219922863405327 0.8532192985211434 -0.2600601427855328 -0.012666025503442703
P 7.178180217973179 6.608666709884213 2.670577855494227 0.3314025990842615 -0.4975341727404335 1.383627082061146
P 1.66800400662516 1.3209917637899369 5.678829630505066 -0.7369781819375115 0.5750529330532033 0.24048273487423744
P 8.100462469573225 3.6467848919278594 6.531201452480036 -0.4132307854056625 -1.8942322290529245 0.4861321015510789
P 6.451795114171633 0.26893703737231534 4.37001643448959 -0.12852404771604317 1.1498366716054196 -2.6065069947064856
P 0.6635891899070993 8.778246392950434 12.175257554828358 0.5715760302481964 -0.1760174653113162 -0.0859856601332003
P 1.7258934538404922 4.42861223492795 4.041934828820604 1.1586151891289982 0.9317292191025889 -0.23680065803695993
P 0.7263582215922716 9.149610209498174 2.592987456771009 -0.12305248307851066 -0.4391580467943856 -1.025380623311163
P 8.146672060344791 3.340151581369656 2.1317304593792827 0.447130780587217 -0.6607123201952364 1.6077871685159597
