# total energy = -381172.5053502966 ev
CRYSTAL
PRIMVEC
9.21251961217433 0.00000000000000 0.00000000000000
0.00000000000000 9.21251961217433 0.00000000000000
0.00000000000000 0.00000000000000 13.48345366817066
PRIMCOORD
 96 1
Ni 5.506958614341516 1.3171599863584065 5.6779632452125215 0.046993852251035195 -0.2686820801265889 1.0369518730885303
Ni 4.979016755007778 7.999543973383743 6.032214102966934 0.45941731126405394 0.3143793250533876 0.16581789907049507
Ni 2.854333365227472 3.930733364990386 4.150125833681631 -2.1406853225779843 0.17285526553325067 1.1901376852173116
Ni 6.646031384778997 8.696590842051943 4.493738073829842 0.9232360940299132 1.781962438412215 -0.7620659781440747
Ni 7.8160213709130595 1.4528143371129267 5.156018736122668 0.4889690567792418 -0.5089380437020009 0.01502886930866444
Ni 1.1229877112580313 6.805002622580016 12.354578352479455 -0.857844970218613 -0.1126855380218898 0.8690153850131356
Ni 2.903261056694858 5.716073596193935 2.717158948742935 -0.3167395977554481 0.15297086790449785 -1.4341304901273366
Ni 1.3703899244677185 3.03668597771202 6.156976491826916 0.012141263348224251 0.5864249223355706 0.3998343094940985
Ni 5.846974286847312 5.369037983771335 13.102707720943835 -1.1555175240402809 -1.4945385589017488 0.1884001552463852
Ni 2.4298296756914763 5.109576582436848 6.2544348151679685 0.6901383387658372 -0.6898169508706765 0.3618879121573122
Ni 8.166760416205154 3.155877555984481 7.071019652844683 0.49941673447512697 -0.3112052982007802 0.017289640318383127
Ni 0.9264570311462365 7.985190867884554 1.897472255725029 0.35959577368902584 -1.118150139135416 -2.213480709273156
Ni 0.8784257178335816 2.073627606290897 12.699539305493571 -0.7279767497698495 0.2568886870360866 0.2021851248456195
Ni 3.186417058378453 7.954439477540338 1.0824784201790651 0.9609960863875062 -1.3825780719713416 0.42834013024327516
Ni 4.57841034125156 0.5666086464975325 0.45204083180019533 1.0836819301552174 -1.5776625812164378 1.7747332676536274
Ni 7.131227153280751 0.32461049727104413 1.4548779414979192 -1.7336899765590725 1.7104762574467705 1.718929016199814
Ni 0.07300276887497759 6.03855784394687 10.326545348073399 -0.8625829991242305 0.11227544706766471 -0.6091683866796734
Ni 1.7641974987769529 3.16573495193065 1.2855527529455928 -1.4220280504368477 -0.6447647957270444 0.45315718928695503
Ni 3.810123058703242 1.5314339791733054 7.914288553472873 -0.7231083659339547 -0.8161612173265814 -2.271046937723398
Ni 9.039195232558555 4.098161695762043 11.621550146103822 0.29963610530594204 -0.7934869156575174 1.0414353627811808
Ni 7.005835549333736 7.537112340753936 8.828655073927752 -1.2217087751553735 0.02534953450838215 0.12381327250393515
Ni 3.7692378968255813 2.4543073402045326 2.3597666218131548 -0.8764677275261228 1.4477825336931325 -1.3106488899312074
Ni 7.982952225627621 2.704436459208674 13.422427291572056 -0.6501427722095062 -0.32341238178993337 0.4020544570738689
Ni 9.070591499273082 8.165157437798955 9.213351466376462 0.46689639324991844 -0.6650669976195063 0.8701721243253981
P 0.2703994258269033 0.9386083444667941 1.2064006272537293 0.4864830571325944 0.8556880717766101 0.18981966130173117
Ni 8.33459409783815 3.4404614982023336 9.54329140622214 -0.441324201207769 -0.42084819274160423 -0.6327909111946198
P 4.4031237312816955 3.9887261757204167 5.940836963797906 -0.26801616440781584 0.016188436834404376 -0.9461960452601963
Ni 7.829361099258903 6.4386299315676885 13.100590683945304 1.973651805932833 -1.2729927701413302 -1.1252512689565717
P 1.569610660295664 2.408124979570753 8.605058932554043 0.53397364651439 0.27755058626081236 -0.1859511794852604
P 3.155942043621512 0.213395118447362 6.074188184658462 -0.4683506091979418 1.420427024498315 0.5592373061771853
P 7.2984528086217395 5.283057538569845 11.306846792384656 -0.9089965533917634 -0.10009741694423406 -0.7446734936992401
Ni 0.09958733661503322 5.21321742766526 6.014429333925738 -1.6882822378482345 0.2550449489591285 -0.2775891528082316
Ni 3.457790247524524 1.7872564352753275 4.617813208729466 -0.5135058655783414 0.05718981894743054 0.6691992746203249
Ni 7.8650780376545075 7.10172866559885 1.8951534645477852 -0.44211687231239344 -0.31365607373411786 0.5413036045169
Ni 5.0235500746374795 6.1577954848172105 1.956367893373494 1.0009114345252053 -0.5067011839516822 -0.3051313240925584
Ni 2.717665637319607 7.414042291740039 6.230960394036723 -1.6980933104013851 0.6308697829125071 -0.09765384049974794
Ni 7.360572828121755 5.444166080912463 7.946217303818884 1.2768990471742718 -1.5007701416337573 -0.12726215028448407
Ni 4.289957140811847 3.9112396735678687 11.55417346293382 -0.8001247326890091 1.3188656214140448 1.2670746048846824
Ni 6.663664147247191 1.5554418051879932 8.909124589918962 0.6482123879560127 0.26016530090482937 -0.748410335033853
Ni 6.170342936479529 6.604400008815691 4.179614187591998 0.28264059918921 -1.8505779826980837 -0.6818295617898257
Ni 4.015451695009983 6.221850133428156 4.813148103800314 0.11663141004351528 -1.2825012238523976 -0.6564931399075662
Ni 3.6789091423842866 8.507817103423022 12.016858439851962 0.6570492695213522 2.4308001186570523 -0.2440897354992054
Ni 6.412143937787095 2.7840234158245183 11.221806945431862 1.7372072456837113 0.3307935047453529 -0.8970879748796355
Ni 1.5405727985925575 6.252859474320497 4.443229514003239 -1.1865340270264535 -0.4139581504899903 0.19167856888734086
Ni 5.482683625259129 2.5861384953350717 13.301103015017784 -0.19986676112508805 1.914071889486671 0.9924944141061035
Ni 2.2821990494883395 4.8548504161643535 10.334514177506515 0.4019757813171336 1.0762265023184368 -0.11687257952004387
Ni 5.434898286219149 7.102622279997709 11.480540557719854 0.8544894234828188 -1.4509714729440752 -1.1698745640929014
Ni 9.135512124724158 1.0132021154725224 8.367237739703247 -0.6499597096644225 1.9487355023071278 -0.4134945805900105
Ni 3.4390427701876516 6.395939115853159 12.496073440645068 0.582468508790984 -1.9159932748791002 0.8741964149934429
Ni 5.751283846012867 3.129925888339287 7.362384009470368 0.17350678307432055 0.21900142507200995 0.3242801291068673
Ni 2.638226081016977 6.290888755129641 8.296071947231695 -0.4915787264879469 -0.21167378106234513 -0.42389494998772803
Ni 9.034220471987592 8.000824513604787 5.874322572460206 1.4145111732345124 -0.3106586816686908 -0.5612142273978981
Ni 1.7437272802793948 9.12409781296967 13.067759106680858 -0.8369290460015522 0.13000063226156966 0.7028233904326735
Ni 1.8267228691383062 8.721483069945913 8.181665351626936 0.003502613836619774 0.4763778503777925 -1.099720728785635
Ni 0.8472818741554334 0.8878077477696361 6.222479348515187 0.7775483900503899 -0.9255917387462833 -0.619050678790392
Ni 7.700146299687908 8.165516726062414 11.392547176991041 0.2720365984211186 -1.0754384591995028 -1.2143232813245797
P 0.7495877103132392 8.619076702340669 11.204574927565217 -0.3447782490602191 0.5845683287428062 -0.26272406277094107
Ni 2.428982123890497 7.360637315758785 10.356114772156031 -0.14850100505860234 0.47532704051577485 -0.14275921747881865
P 5.2558253307036065 8.242257014129317 2.2743481403057926 0.35454869818342166 0.9763921092276022 -0.5173128980292574
Ni 0.8148805215551805 4.7199054294171745 8.295587368702005 -0.14433221839289337 -1.2403569863841801 0.13902057637199283
P 8.63143990361147 3.3303811017903975 4.732597517636836 0.2510098596578064 1.2783260094287854 -0.15379182114389645
P 4.360672441076138 6.108480867527638 9.424772341878716 0.9534342148798485 0.11097035510299598 1.7445217770672534
P 6.3804160203678375 9.161408517251898 7.368384123470125 -0.36718644155209024 0.2377501664344228 0.4654694309954048
Ni 8.455978255769665 8.608767892935282 0.031293086495277046 2.4416756279189755 -0.25161201201817956 -0.9536177916455642
Ni 6.7074236152325195 0.7730400213975028 12.579603355639382 -0.06062764098438591 -0.6911444114328483 -0.6744484388344062
Ni 1.1460466477564057 2.1552228921742778 3.802226086922816 0.9366515961048708 -0.6635420763345475 0.8498298132236202
Ni 3.167595880884973 1.8983686338797598 12.931589776082047 -0.5336435168684809 1.5839296451720721 -0.3964743918829301
Ni 8.705582261157982 9.179308442787791 3.148291967365719 -0.3465325127471645 0.9131609691820984 1.6879850183227896
Ni 2.9862382205146174 0.6356813545214487 9.939206805010333 -0.023924886246713635 -1.183654134375497 0.6870537863032425
Ni 5.0155628201652105 5.807424940308151 7.336576057130558 0.39912365658031906 0.5885298844937156 -0.6683747218365006
Ni 7.412678838842812 4.882976238429451 2.8851216056499918 -0.4921608242436621 -0.9186842129931726 0.4012671852858831
Ni 8.802829617800747 4.6895133273364165 0.950171899038412 1.0560451422745554 0.5298691374277132 -0.2274611258035889
Ni 2.142113476817831 2.6572038713432464 10.784457318599287 -0.8867837647401502 0.2017675776922267 -0.20802127191142242
Ni 0.6925207578005821 4.493996024377966 3.193394620705208 -0.5837617736811108 -0.2106275991860179 -0.19902318217787013
Ni 4.118530576544266 8.256481144354444 8.13119640563451 1.266333870063916 0.00031675990947042227 1.701509792282102
Ni 8.488931438292513 1.1358944511838096 10.72119310416795 0.28391843746036904 0.30073268080423043 0.38294036195223724
Ni 6.682789337886674 4.3395020710908145 5.4406680872295095 0.2469266907273683 0.4190389074470074 0.08387889820284264
Ni 1.9134126783471372 4.583652264890223 12.704137274013881 -0.6719518976647976 -1.214570107228063 0.10221446328723686
Ni 5.539460383405146 1.4121871257833898 3.1107537138499675 1.8366318049306367 -0.6960171661441175 0.2809079327688194
Ni 3.6065632261550675 4.016234759173931 8.05440821246581 -1.1289294891391075 -0.6077828191860565 0.6536541277968743
Ni 4.962553982525718 4.097590519548339 3.688425675106148 1.9407756240301024 1.0213326784940346 -0.2909907709261182
Ni 8.556707944812104 2.492917009746957 2.510012682323878 -1.6066049752824008 0.14739440225798486 -1.1919662537856184
Ni 6.182319211928146 7.769221771467698 0.26839201781132366 -1.9787194502637278 0.3508905326055441 -0.29835543882130555
Ni 1.5893530897467296 8.33904374479329 3.9701085949095636 0.9553293750200321 2.3811713998863313 1.7009770597070835
Ni 4.183782852700074 8.84613767232686 4.062133374204774 -0.6470970434046469 -0.8864299809451572 -1.0739819292586343
Ni 5.809995233269814 9.004510096355446 10.13828935304464 -1.447205835254056 0.8270840348866725 0.4651796676691278
Ni 4.392980747228675 2.523382811984322 9.781733522892347 0.7553883090135829 -0.388150445398267 0.48548006978937686
Ni 3.651336071293741 4.325010777797989 0.7045734971616782 1.7667793029138734 0.3351481821696228 0.23973274408209036
P 8.389500714510268 7.031473991313352 3.9858030432589966 0.44983429556130916 -0.16600970336632698 0.28352531578700846
Ni 5.806991951888085 4.393312397933406 9.483613625661684 0.4616878524657855 0.9315122179957764 0.54341885108769
P 5.689523114776309 3.3981852458687185 1.7683956439476718 0.9572980687106286 0.713417621008752 0.42554405555537683
Ni 7.059203675236686 7.245858534363161 6.4795003534140285 -0.3596258555960129 -0.9028816987432772 -0.11094978627770569
P 0.5974355795022711 6.772491640996811 7.600541459285681 -0.6379148626847465 0.732188473858352 0.040931705217355306
P 4.778100915577875 1.241598900797213 11.544937912059021 -0.2974270134697652 -0.2390334040222206 -0.26199078414934235
P 1.7010272520452894 6.1175828368685865 0.9624448176173711 -0.00045302837701857463 -0.8058222972944187 -0.5523603765516939
Ni 2.421215969888048 0.7095795802991998 2.332664310472936 -0.8078768658306021 -0.49428147013109064 -0.8623323165660053
