# total energy = -340864.1121276536 ev
CRYSTAL
PRIMVEC
9.28148349330787 0.00000000000000 0.00000000000000
0.00000000000000 9.28148349330787 0.00000000000000
0.00000000000000 0.00000000000000 13.58438927918526
PRIMCOORD
 96 1
Ni 3.7353052050886952 0.8897619941052206 12.850275215021238 0.07139027881752866 -0.006320800011705243 -0.1912671923815351
Ni 0.6181755761753545 8.822217168796131 4.960611392030157 -0.26699569356310143 -0.5236732930296465 -2.1821744429607066
Ni 7.4406497813193635 6.948304205605953 6.657206252984221 -0.7153976275532582 -0.8881924721622189 -0.07173043576576678
Ni 0.09164351214943772 6.760901771506691 12.414691480027825 -0.9447179180527729 2.777573029549797 -0.007456456278045223
Ni 8.351469605273746 4.7459937919031665 12.313039744180243 -2.233973172799552 -1.5291975437365146 1.378722445670677
Ni 5.673019086113468 4.831893922039796 12.413673301283794 1.0398181388927317 -0.39598022585533094 0.8108035525590939
Ni 7.2369676250958825 4.758913616986924 3.7014472812934054 2.52714963852308 0.6128316944638735 1.2532230437135707
Ni 6.62176305180078 9.007716898770271 7.9608463046828 -0.2679431450780353 0.2743174240354953 -0.23549967983734924
Ni 0.686350857201025 1.9209608032401584 5.014975825552498 1.2689849345335178 -0.3023948989980018 -0.3658895771175376
Ni 6.71787281382831 8.862767970370085 1.9749391270473535 -0.3151097754615089 0.11569424294122654 0.07006024715219547
Ni 4.136265293895002 8.380836219185392 8.92533816348765 -0.4808173742063848 0.6120673054940233 0.16612257479510745
Ni 8.319764057510728 7.100734009737111 4.0635801400186145 0.8285292519736313 -0.4079960193692845 -0.5512519739788636
Ni 3.3327951085316796 0.3859055225089956 4.271964295802032 -0.24473791060616562 0.5800550142534848 0.7251958445906026
Ni 1.6698781105922833 0.9009833077016749 2.6806752907641394 -0.5440431149352501 -1.0133915692700868 -0.436309521601997
Ni 9.038355075926512 7.482945501798307 1.2768917442927707 -0.7983092767468252 -0.5110838864004101 -0.5911449535190594
Ni 4.884037296551689 6.668829454817835 11.289591901947206 1.011922183813412 0.26829255799765406 -1.6867511459156885
Ni 3.1888764248041195 8.676841292153233 11.334325868151367 0.7391006275971529 0.36067255169297235 -3.0455493418586133
Ni 1.9659574354284217 9.103761690413041 6.681101432350699 0.9753574973155009 0.8460744599462461 1.1656327580974117
Ni 6.459244275064705 5.104379715724415 8.371583508247175 -0.1571638229399229 0.4719964334806452 1.1240821883491352
Ni 8.859862866022945 5.2606427725564275 7.7492145578097205 -0.16908628540912168 0.18786253757536034 0.72340687101098
Ni 7.503318358162423 1.157215367415979 10.806177897841627 0.7276957281943209 -0.9982290025970357 1.0210493429256609
Ni 5.286352481954425 8.810318306901463 5.479955875204879 3.266212470903762 2.4836524865713936 3.9491956866820574
Ni 0.9224272472659826 5.5006897812785915 2.8415011249030315 0.7833613971877412 -0.48266496893808486 0.8932526602939456
Ni 5.019528393227487 7.980832123183416 3.645153227343683 0.056048506254135724 -1.6012244276967778 -1.2830812647255838
P 6.140648071167361 7.8466311527192865 9.746636222429192 0.7344538728537608 -0.7148623238750785 0.1413548809321243
P 2.881557223404452 1.9133778311902798 5.9040064387549895 -0.5402034294741858 0.1288752604078748 0.10645395528988118
P 1.9880195217963057 0.5238376493550726 9.330423871726234 0.48364867300759296 -0.4404466836988221 -1.0558019159154979
P 1.697406990763568 1.8294732200141455 0.6101767936630101 0.5050340806619044 -2.2690288788521054 0.8934745464967644
P 8.664766082071358 8.894751962639216 2.7169324780537907 2.2681775865954035 0.9141076493660838 1.6056112439105636
P 2.7879441804484246 5.624263453092647 3.9978041224873055 0.9282813697633046 -2.900642224798856 1.563602760689262
P 6.427826453291341 6.495330683057273 4.834507587803866 -1.4024051339995975 -0.448900213782814 0.12671116287702047
P 4.7060648497262045 3.803199257163189 8.209725573138948 1.1949734160430583 -1.7729653771199272 -0.25074992112820044
Ni 7.283922650310492 5.947240517219542 10.701863304367226 -3.148496569546816 0.5825579831809967 -0.02463451071922854
Ni 0.28723778361861785 3.311382726011398 0.0208174394255478 1.2628145440567478 0.32687385797597257 -0.041688380877721753
Ni 0.3102985576151028 3.2479716304853636 11.023976262376811 0.14423708757592577 -1.1142415481096295 -0.6282693691751824
Ni 9.00070009721616 0.6088699607809749 0.868743146486916 0.04043368253501423 1.044387246320653 -1.3581693041096736
Ni 3.8080627545366728 5.613264895101085 8.775053310201935 -0.3527137018572119 1.054562644191758 -1.5512668648317285
Ni 1.849836794894725 4.119159519735973 5.692578884519729 -0.5137706892039539 -0.38600151737606425 -0.43651083897952564
Ni 4.717453230026328 2.85467804708077 0.11180660698561411 0.6794734028528233 0.08445225420780939 -1.5540649964021558
Ni 2.7424556296326905 3.1214371654229476 3.8696899489268612 0.01825328978323308 -0.5573629719726079 -1.1719337606147753
Ni 4.961045765459697 6.895130586421431 7.167178294083096 1.643331641279473 0.17476302407892483 0.2608610414202733
Ni 7.5438505967693015 0.09351094663711895 4.377460422130715 -0.7476174068189124 0.05863992113039578 0.04340253535535105
Ni 3.458011602931815 6.0585255048303654 1.6303714759162637 -0.5824723654457259 0.45634741408947854 0.1710259256339958
Ni 6.425292608285691 6.587876355406524 2.580761976783071 0.5270146986980537 -0.33643219108836897 -2.438947944575167
Ni 1.7800214757280344 4.675333857734592 9.677573631577367 -0.18328160307289726 -0.3174209400931888 -0.629082351994781
Ni 6.880688598037575 3.4204772835074473 10.43944049513362 0.3739998649294978 1.2845614488155361 0.25050052412155566
Ni 5.336815907946088 4.622123112615921 1.3999939167431366 0.8709074598295259 0.15090730050724976 0.2289752484552702
Ni 5.025264350053466 4.948450792299739 3.724228682635421 -2.2206258049583694 0.17899865942682722 0.2523949129307911
Ni 5.569530544673878 1.1822289655486873 3.351228134836525 1.4784971891681697 -2.5292564004534377 1.3143083410606655
Ni 3.90728181354916 4.482102651973978 10.822546722207802 -0.0035810324830389943 -1.145120497076673 0.9001159630726822
Ni 6.288678452101894 1.1000228658598572 13.838145274559544 -0.6753483249408563 -1.1163683646446452 -0.9734559094174138
Ni 0.9566796341116027 6.51438556875911 5.412577873615053 0.6035222441374897 -0.48559268410784107 0.7009493133384121
Ni 8.591822902952638 3.2032441613196787 6.555472840081512 -0.370995016664903 0.5395567970291224 0.7491958070496259
Ni 1.7666747024015652 8.528745940833941 -0.009755767345933072 -1.3482098789041168 1.665535688180338 0.155632473897061
Ni 0.15885073444217998 2.6243673145891107 2.3063437782260108 0.613234329218931 1.2146667807069274 1.013929701161744
Ni 3.9116441108116353 1.096495902115728 1.5058297453692808 -0.42856124511514576 -0.2753615490292935 1.198966082142219
P 6.596378194326585 1.2969666650353437 5.9514570951904835 -4.396064214746822 -1.5228870281374547 2.8969737748083335
P 7.130787453430509 6.278663731365272 13.57577722607881 -0.6588464706310911 -2.510311998140451 1.1052519430165093
P 4.6452061621728955 2.780973786312 2.8129058022733244 -1.0650378326914691 3.7531611548188653 -1.4423515924855481
P 9.221302397927927 3.778278473865853 4.249264571515144 -0.09203109499633183 0.6515779619941359 -0.37441304120751645
P 9.234788393507454 5.373431360500276 10.424511228864063 -0.19677320980142887 0.6746914080831476 -0.33819082565068853
P 2.847345675086396 6.487033036775032 10.523663461195081 -0.42981594345785334 0.872487402722136 0.318930948979812
P 0.9649679989103073 5.8897881341243785 0.6223364652450736 0.7544058904956555 -0.04534294691117352 1.8631578762456236
P 5.3589800906328815 1.7644193019020296 11.574320900565722 -0.09404812542636061 1.0929633554571434 1.4189419553123561
Ni 2.7941256484841883 3.5263326032490196 1.427243424259952 0.044885290548464636 0.3791716389384244 0.6381701732286622
Ni 8.435838290626739 7.280145086510858 9.267813768229457 -0.4106697095467056 -0.6982429701508426 -0.9857789497591409
Ni 7.28138880530484 2.6295463824028587 4.755799679260201 1.1779884514492875 1.4693247786402823 -2.4359405252074113
Ni 1.076624245862619 8.004397809884324 10.710340083281736 -0.32357050463435244 0.421485569215287 -0.6512010382706914
Ni 3.2674998718475967 7.1396234257579065 12.77174365466478 -0.19510842050449623 -3.1948088223497946 2.1670049343091193
Ni 1.5143390094761702 7.2288741714514595 8.340488682100904 0.23142628109892402 -0.4129950152457726 -0.22569992013810808
Ni 4.6304300403817 1.445451838663198 7.407758059960295 -0.24277872999726577 0.30320839603823263 -1.5518972993268756
Ni 4.823132201580694 2.94976684591921 5.173872967412365 -0.7123123037597152 -2.339467849499958 -0.517287958328593
Ni 5.597077987812238 8.854860146396403 11.591070265756922 -0.5991133164365167 1.3510365497196344 -0.5096515248292578
Ni 0.9530784184991757 2.696540130574246 8.104949689932749 0.2703365850108764 -0.3645091518302432 0.8435398664498505
Ni 4.177586458602541 5.056598638474996 5.960599356474609 -2.052884720723232 0.44529398448879437 0.5057563035399096
Ni 6.277095160647489 4.279636370093868 6.209424792326241 1.7630771714719378 1.4225852084918982 0.3787546060056638
Ni 7.185854495256615 2.9771472223539 2.438547373432938 -1.6455237638347855 -1.274910298879017 -2.3641506969586183
Ni 2.4474158309527163 7.487762591754104 3.3960428499474595 -1.2194958266644547 2.3808834363322675 0.5327868252951404
Ni 8.985227864159675 0.18653275909182832 9.061262705444634 1.1543440725574698 1.8931279402451524 -0.45307954197148426
Ni 1.5386843407942015 5.1143109031092004 12.422639214380714 1.9198190763830936 -1.2473717271391163 -2.3462223946149723
Ni 7.363186519718035 8.055733695328483 12.689667495745471 1.4904116812175687 2.153853741639142 -0.573920876331289
Ni 2.5258258038748385 2.970381020855294 12.606462708428039 0.2527983190167969 0.2714809830279647 -1.2536521608311892
Ni 1.6426833638283371 1.0975539912389667 11.3517945483167 -2.5238318870037566 -0.13512072709695438 1.3752270309229089
Ni 5.546744502590094 1.7626558200299647 9.484375839157488 0.7537232626063342 -0.10017969224539522 -1.4280210347954891
Ni 5.427189713147639 7.805245017626988 0.23720409031472534 -1.8076205052999514 -0.584190119467781 1.0551380570792537
Ni 3.403130190776452 2.017608891312845 10.366437914520262 0.26960202083769697 0.60463861713012 -0.5055701556710326
Ni 8.464397415470652 0.6539603359529635 6.453794187931671 0.941761149417294 1.6745708017994128 1.2969886188352953
Ni 8.405886943252248 5.105456367814727 1.499091388321286 -2.0221361266864655 -0.855951352740326 -0.6190643056371468
P 3.6060419838663473 7.826397518608227 5.9049169522899865 -3.378624443549291 -0.3988868579791647 0.08030686458086814
P 1.6512965805508428 5.055484860450534 7.475041390418042 0.8586913773793083 0.4958963800266944 1.2398934164842002
P 9.00452406843348 8.159045888580867 7.2362956456877905 2.28048005811184 -1.6162080455898038 0.7021263643656488
P 7.987431257978353 2.210905067458219 8.800986703353178 0.26856818025654394 0.3240104203852484 0.024022845277158627
P 9.053029101398797 -0.003901935679031742 12.154782096536088 0.8036751690444288 -0.31317861987706713 -0.26725948874744937
P 3.5498611640157787 4.928857580552746 13.286361078274012 1.819832216874795 -0.6063471151807944 0.2281105864621297
P 7.693895059631402 2.5608448412606304 13.821573185703903 -0.4075249932701368 1.110135496361056 0.7080008208685549
P 3.897062900174721 8.266061393764588 2.0094031317176215 -0.591296391495259 0.49479440521176726 -2.731261033857135
