# total energy = -340859.51573416323 ev
CRYSTAL
PRIMVEC
9.37872028361010 0.00000000000000 0.00000000000000
0.00000000000000 9.37872028361010 0.00000000000000
0.00000000000000 0.00000000000000 13.72670515063840
PRIMCOORD
 96 1
Ni 4.0715369842708125 7.469653709211715 7.7104279702540275 0.04886407269055455 0.04623640525972037 -0.22816252274598767
Ni 7.24515527951407 5.72222928574988 7.822711886368252 -1.5154033181659 -0.9396921827034075 0.873420970279999
Ni 5.300824621707827 5.538987846996795 12.92579275400188 0.36635828922384 -0.5701187289763794 0.8977613467975765
Ni -0.02473543712597948 6.520649130283041 7.521864107686203 1.1302093842927954 -0.1507679467159081 -0.006203557707550606
Ni 6.22990879855279 2.8476233536106186 6.859138403203778 -1.9259483292092834 0.35661149424972133 1.9366060660334454
Ni 3.3919173907707836 1.1887059143596985 2.8472341367149148 -1.3094494703064674 -1.3381437529173665 1.454321877473547
Ni 7.774190138618586 3.1503215538233236 5.3056874882240255 2.389392759354859 0.016342188803449273 -0.8045804544675175
Ni 3.4556082808604653 3.4774700780625043 7.821710239031838 -0.5177636124134308 -1.9370691217127929 1.8125097150714524
Ni 3.395012368495654 2.9391315283426205 5.647783817002292 0.6520937252882898 -0.2645081512545574 -1.7356897805979206
Ni 7.984170309170476 3.866283688789634 10.134522379656886 2.393425534663336 1.9049136200261707 0.04139733199986419
Ni 7.199771651603015 9.153565438271059 2.3789611933259085 -1.8794836099888406 1.6682541155527657 -1.046598652149675
Ni 7.964371830451683 0.07124544935447907 7.477334881201622 3.211027598201502 0.10306292733046121 -0.032027203638873875
Ni 8.355623908477195 3.5714260988132676 7.700242679923091 0.013402646559151113 -0.36615182963998877 -0.8413505721080156
Ni 1.1819438569668757 2.8739869365942874 6.457920496904182 -0.8275427196906457 -0.48470179686245557 0.10962463970837895
Ni 0.5687931305326088 4.238571994210031 0.16014540194924928 0.8587240303894565 -0.8687004248758781 -1.4117701201542654
Ni 7.713697392177936 5.509988843586797 4.011217744157164 -1.8365266468113401 0.5285241933640447 -1.0210524282494544
Ni 1.3648851766678523 5.738763969776991 1.96031105945899 1.1029469490324166 0.13329858628655106 -0.28481575246365787
Ni 0.603249611330795 0.4053989398442835 5.739780623066009 0.28287868334194505 0.21653702269191738 0.2768759287912909
Ni 8.992982987952177 5.132570378119418 5.770583154404773 0.6532640914473071 -1.0376846374894968 1.4706841208816543
Ni 8.480848582969529 7.4799046505853015 2.7341267689514694 1.5136526540233803 -1.231501592876079 -0.7297389838765949
Ni 1.2139346721775817 2.821597404560572 9.973618239229026 -2.0757994205378765 1.824948712165754 -2.500146370461359
Ni 0.17668477533654917 2.5053844682825996 11.923181285134376 -0.5513586747600568 0.5193803220812474 1.7772611762818036
Ni 5.910825973839029 7.587769313657224 9.262300446594097 -0.6441523589540261 0.38850602896547287 1.4478367839698356
Ni 7.371214660120079 1.7167466291041047 12.146528007969554 -0.5091085078415942 -1.7442099022537896 0.2596834761724044
P 3.9881132665049877 8.36863219364203 3.762407795494642 -0.33977462519804064 -1.7590819342696156 -0.4132171585589077
P 4.5409138030483565 1.4862551970846645 6.9038326951670195 -1.2793423665084418 0.8957193766668832 -1.2971847940065016
P 3.48889335948339 7.9394150555247744 0.06368151136930335 -0.436611626223448 0.27533352400483546 -1.1654314407198831
P 6.773949610262739 6.013297872693374 10.22297778090572 1.0625132664974024 -1.7036348090449047 1.3781570600855104
P 0.77833437697079 8.984185748237241 11.540782719146067 -2.619968262417714 -1.0623194053190412 -1.463119421160519
P 6.957191049015823 1.0601236579719004 5.896635969906517 0.9205086677964212 0.1849397075016105 -0.7466375594041463
P 0.1349025760507986 6.663271331077296 0.42981737622147326 0.19510430673943818 1.1257642040372484 -0.5370839100085976
P 8.093591839825212 4.297460979465975 12.681073803168415 0.6001990933015277 -3.4529221258216016 -0.4033659767964409
Ni 7.965863046991848 7.980315655094955 5.182298229309745 0.5661330048557541 0.045610855860579516 0.12287893361512384
Ni 6.318762795417707 3.4524288946521895 0.25074196506047114 0.43383792013305283 0.4466312152429793 0.9182512392208122
Ni 7.919719742730145 8.84726580943305 10.479914390776123 -0.24096250272413341 0.49326742704427945 -2.064846778181115
Ni 2.506031599988709 5.4640893860549316 8.525203365255074 -0.6710450695798121 0.28626945419104893 0.3692451238533318
Ni 6.276736749402117 8.12398827257159 12.001683988317657 -0.531064443287395 0.7282279465487072 -0.21397903215675407
Ni 4.588970366267254 5.062267490162967 6.903324368522511 0.7332806784812662 1.639049468964351 -0.41040642858299
Ni 3.035188382458144 6.280591403477638 3.977683191572174 -2.510028148351445 1.952723026199966 -1.879014640772222
Ni 4.40133968637708 7.062185823651959 11.56085036713972 -2.3219133855559626 -0.1065585991885455 -1.0897479338436393
Ni 5.396590735491621 0.3916947536273725 4.515454328709165 1.4360055956628623 -0.132738600018023 -0.5804645909870777
Ni 1.6929621942244946 4.986374884860993 11.036120340688887 0.5722419459669693 -0.5765999658253489 -0.276718063057188
Ni 5.6357574838610764 7.398975672440129 5.54854007370219 -0.552838344629377 0.1262609627134793 0.5436124551557349
Ni 2.242273846787101 5.1157168175994405 5.9529973900204824 -0.14962714824324552 0.2865463620015194 0.31312334115909946
Ni 5.900312428294848 7.080024149811665 3.1403266515160677 0.19761524608675 1.2593258141771988 0.11196717179862652
Ni 8.081934090394867 1.9926685826364912 1.2211197098594702 0.7304236686484452 -1.6561455052146898 -2.08565882983046
Ni 3.8396012293130997 3.5800732790021477 3.2698936735435975 0.23985204326877402 0.4921258572406686 -0.19173693292910207
Ni 4.415567205191105 0.04395243518131123 10.186656810496311 -3.3974760290381556 -2.2155031390198228 -0.20773562235020354
Ni 3.646765359612916 2.536700015626061 1.0539008770008353 1.792195943214765 -0.30661973571262674 -2.742637908235509
Ni 2.2338611346076807 7.836427327049616 5.6187519880709695 -0.9980989047770746 -1.7842085541339145 0.5465743659975362
Ni 7.701955234264186 6.253937080162239 12.777599593302858 0.22797226111205254 1.9407673964999868 -0.2761783885036341
Ni 1.986450491025615 0.6520761674927582 10.0292387404331 -1.8524934545532419 -2.0451349015744844 0.3021709559126538
Ni 0.34950270426108604 8.352200675539082 8.879613016018135 -1.3396103101605639 2.3181523758516334 0.7082844135472447
Ni 3.1363472604595146 4.909731981928748 0.33374270253723076 -0.8631681822037394 -1.52190975182585 -1.082231570861936
Ni 6.344422974372995 3.576518743978736 11.48613666698931 -2.794380845135755 0.7387275605284502 1.0554748715933824
Ni 4.805299930515317 9.132303879173236 1.4115855769200332 -0.1853055754814615 0.770144384276835 0.08112807493058287
P 1.8091270248312974 1.8811274611762372 4.252121431540699 0.3945522351595528 1.4126959744026444 1.9549819974374718
P 6.78919940959801 7.726236741323851 7.40131566317454 0.2834294136390925 -0.24884267680315852 -2.1938413377756736
P 4.451665899927549 3.4806963578726724 12.780400079207848 -0.9596323732707601 -0.6701570105479039 0.43550810874662416
P 1.2005887530791253 1.977118664249112 0.23243188926573022 0.3401268663311368 -0.20373781404472008 0.39568609165367985
P 0.37799244315453706 4.395196624529231 3.5411609681521865 0.2989704466974851 -0.6530139231097141 -0.10015603809631138
P 6.459865643510662 4.945990114911624 5.86831786159599 0.9803261541746858 -0.34325924131253144 -0.5006436649036926
P 0.8898595546064006 1.1245179520899617 8.072441887499894 -2.0640263391623486 0.4729351432448307 -0.43786555323520715
P 1.9059154191363359 7.535501704988428 7.752541238369136 1.055472557600537 -0.5918286098496452 -0.9638998902978626
Ni 5.828508945077854 0.2578941772210353 8.043684855075659 -1.2880123834786141 0.8040865455502346 0.9119849465961262
Ni 4.669074017019127 1.1446259285812412 12.458193202736043 1.2852541040071865 0.41220722923715464 0.4237481399972186
Ni 1.0302899484482253 8.952588839282427 0.5116120102575713 -0.26000743517072644 0.28141829674633473 -0.8257393479333199
Ni 8.370836192930952 5.0846544957061965 1.5601219987849049 -1.5834655610514599 1.4641239511656332 -0.3888793531444915
Ni 8.165301535838422 0.9378251442376272 4.082294376544832 -0.27537774697920964 0.43054330854218104 0.2980116823286416
Ni 3.9252101889270907 6.54403028018638 1.55905188678973 0.8737410726235791 0.5402767059142825 1.261381154044331
Ni 3.168591301120437 0.3886785571536806 5.247554427830581 0.36506502433371324 2.043119156696036 1.0356125854518166
Ni 1.8452913706103893 6.974194669061855 12.371659501292742 -0.8620332972683475 -0.570729880197817 1.263655037680172
Ni 9.130540679742099 6.292643059163876 10.424211356832721 -0.6348722192036808 0.4807782934383333 -0.3322050403808988
Ni 2.6326161889359088 9.152599430072085 12.124990714492606 3.6490895837182316 0.6674982327688181 1.5117700922886868
Ni 2.998470692176727 0.4395749969031556 7.920899585753746 0.19532053651530235 -0.7576863610191402 -0.5752498795553577
Ni 2.6001001653840126 2.3461337962574493 11.825666040000012 1.1085558105787618 0.6610455351649389 0.9828571481266558
Ni 2.1827752447065616 7.591792784699556 9.939727295269657 1.4591298403851516 -0.9072667151848505 1.223721434710028
Ni 0.6827830358836618 6.317543561768515 4.141854878179868 0.4849761335697647 2.115834839193208 1.140085505755927
Ni 0.7451477749118386 1.080400451429991 2.6418833025418014 -0.3802311905511903 1.9871300429249261 -3.1954130315926967
Ni 6.150499173108917 7.44285870509064 0.625573779447489 0.6946202857965909 -0.41446002982707336 -0.15072449507248237
Ni 5.855913566023525 3.8097112474671544 9.109453564843314 -0.9858319144842633 0.263407719101527 -0.21224893683952475
Ni 8.394920746862672 8.74149260100551 12.629021905068322 0.4503042932191922 -0.1613215538620383 2.2708307079475345
Ni 5.653220661205648 2.8002983305812363 4.532653964011104 -0.39971243920425353 0.04754175433470522 -0.843402826651354
Ni 1.8804428145886145 3.2625567005915785 2.1525391880786535 -2.5757108352612352 0.6004310068066756 0.5182500651315461
Ni 8.055420447885144 1.8191716343565587 9.189713840225506 -0.3481322531341166 -1.7839614711201148 0.2647701466666924
Ni 8.114975322287954 3.3062521588345217 2.8954698334930393 -0.8267896435747051 -0.9847481945017814 2.0242819693848753
Ni 2.156355389400623 8.231449650667244 2.4446853899936256 1.404539406733781 -0.9421105623369129 -0.42502315005490027
Ni 4.783588192839333 5.471536090035377 4.454768380628721 3.2748313229210244 -3.019174965630142 1.0580750282203906
P 3.1538010590837082 2.22468874607761 9.576655458365108 2.8148933632668105 1.0478510364995373 -0.04164672900650892
P 0.624902263068396 8.813099131094557 3.7110968163044427 -2.1051981854149675 -2.7517699524437638 3.0062392314050808
P 6.011318962693533 1.0722784795823008 10.32684710909645 4.453101824387105 1.9906647955510621 0.7726409254464435
P 6.107347680647922 5.47303668529592 1.7279316910273788 -0.022786915987528498 -0.21044556508219883 -0.682931793715069
P 0.3006630178905931 4.641969515125566 8.821425559046496 1.2918399847548203 1.5695337814617163 1.1077911644985954
P 3.7802151718771015 4.877366017902906 10.383168200712788 0.16807481342547184 0.9050375687440155 -0.28184278587826295
P 5.3976130160128655 1.7263223026104464 2.510024121253792 0.8738552296039401 1.3806032076331578 -0.34386807854112394
P 6.832294629736736 0.4223687964969518 0.21878022388293816 -0.2761274806610406 -0.8198250393314138 -0.4056198058276241
