# total energy = -340866.45657313894 ev
CRYSTAL
PRIMVEC
9.33466379689205 0.00000000000000 0.00000000000000

0.00000000000000 9.33466379689205 0.00000000000000

0.00000000000000 0.00000000000000 13.66222402902827

PRIMCOORD
 96 1
Ni 8.085872416125861 2.79558243248948 12.344884619809715 -0.6233369648705717 0.0208066523327061 -0.26719521116841727
Ni 8.88114842725959 4.926462130099264 8.175174343630827 -0.38735828851427484 0.026097468418000216 0.8077166861036541
Ni 7.754034455191158 8.559671943065092 6.994429928034921 -0.29559844490145865 1.001596633517688 -0.2736160270930965
Ni 2.283968182780369 5.775991206831251 0.9935265328960097 -2.6451290779540573 -1.316526174647591 1.0195969267498506
Ni 1.1582917489263438 3.5477976398371167 4.087586705082226 -0.7869946230649543 -2.031249401841644 -0.42069341233129487
Ni 5.1246277064216015 2.1627295702562495 9.187531693669191 0.5403641234217661 -0.4608540437105805 2.007282092392769
Ni 1.2934296757443045 2.103305100951619 12.60930390542149 -0.1301582408853565 0.2939799354614292 -0.13101159002458726
Ni 3.0726725906482386 0.6785899141106887 0.36088090019758334 0.988508175764846 -0.4676558971237624 -0.4720501695367161
Ni 5.484553670519616 6.423303463182118 3.083509201772295 -0.6634705996666638 1.4182976368601379 0.9082313930909649
Ni 8.33043127118587 6.269169495673783 6.267709554266424 0.0969627279699943 0.40384317354317545 0.06028054205761231
Ni 3.446423191730254 7.431335130048041 13.434105457932935 -0.34457616035174204 0.6700096863367623 -0.6685564988300033
Ni 7.298820243738185 9.086258993396983 2.7627477528195086 -1.4000309773404664 -0.6104577949150582 -0.09282299477000787
Ni 8.71890263696996 3.392412827388973 1.0722289497356583 0.8142490879055333 -0.5371337894099265 0.5296135697734814
Ni 0.5873995841331616 6.884809237989052 12.35294603540687 -1.6906245128281658 -2.8797430127523436 -2.341319815107032
Ni 5.579879256529495 0.9597527860548088 13.18147771954479 -0.6010331591670488 -0.012516387299455863 -0.8167014061007677
Ni 0.6095740778235716 1.5028901951798386 6.974415475531613 0.661971132303002 0.3289633935151496 -1.1875375285903031
Ni 6.087414258188633 1.7451713922897492 7.202300754237251 0.37646606708180325 -1.133565188138906 -0.4795482776859742
Ni 9.070632766313109 0.8430396185069516 10.786940444883593 -0.31700570693264113 0.6720943367799328 0.26206611747196806
Ni 4.0123278456925435 9.054791841963445 11.357351874494682 3.3701135778648026 -0.08541693211392386 2.4744037142796156
Ni 5.4081214438990814 2.9300295941914274 5.141108988703137 0.292515949321393 1.1964636274353393 -0.3640836342570504
Ni 3.0917993166308317 1.7242337415435525 7.961893146330638 0.003103578625988203 3.938610712077359 -1.2420238325636417
Ni 2.121787735136848 0.1173301888204045 2.584155099406053 0.12019084525999944 0.24510300725506817 0.4719596667054388
Ni 5.466976498716187 7.426994511413631 10.087557567314521 1.0365795773507762 1.4555920024352222 0.0959851945480734
Ni 6.769675495544296 4.36860395627216 10.480306076019655 0.27226465527152466 0.6707283096703417 -1.4197631656620708
P 1.5169295294296288 0.9691807964220217 4.708261565013411 -0.04965700090549512 1.082448829079065 -0.3321402485812344
P 0.38793742301873824 4.44977819206749 12.726689168757899 -0.7156845626660577 -0.3010175590345009 0.5245099299983289
P 4.209158565101504 4.864255931003119 4.65705626712297 1.6815917132019362 -0.2283342724371616 -0.8619451084299155
P 1.9270853190583075 7.878782901277725 8.418334866064095 0.9898238092524759 -1.1577150459122318 -2.2780033144365737
P 3.8320848237316394 5.181989215041922 13.496746652358894 0.7300506015797427 -2.579506040637609 -0.18003789932461897
P 9.069671295948927 0.49876975241674976 8.529135457605424 -0.2421812056225829 -1.692086442085673 1.282326131727114
P 5.968481307605802 2.715640372306499 11.453069516381218 0.6308278739309782 -1.7743941391466538 -0.02245498656940649
P 8.349436646539974 6.1165664130171535 10.201500206667339 -0.35176316501848454 -2.469608863994134 1.1480811223668936
Ni 3.872681276293034 6.976961038330761 8.057446498135528 -0.511707378917022 -0.8332374560825778 -0.2892403638939148
Ni 3.392907564566659 3.088457507015523 3.6614761082063794 0.22503734685344468 -1.1574399378739744 -0.8664951896944431
Ni 5.287573596490976 8.318837618833317 1.2698596498262724 0.6666435980780067 -0.0810393718715185 -1.609410563051996
Ni 4.030735802567933 2.7164991613696507 12.098295475388449 -1.5630342897803016 -0.17254184805788994 0.540083873177186
Ni 4.894444233505659 1.274881698912966 2.2959912296644975 0.41808271418132514 0.304282860049334 -0.13596353471322392
Ni 7.758823137684604 6.781903905030483 3.6437010415318776 1.4561429898426859 -0.12005123435834163 1.8783109298369782
Ni 2.8682994629455076 3.7812202410673397 5.9078321304198065 -0.16973368918513349 -0.35085942225729255 1.3869345491678242
Ni 4.79812917314041 8.670483736202897 6.415602365604939 1.090038982721497 0.2896445413108689 1.8037340257613517
Ni 3.3251285712237553 3.5470135280838044 9.840271123512629 -0.1084632724104261 0.8754529131083633 -0.15021310265370258
Ni 5.778791605950225 5.853450246462075 0.27782946352616794 0.5807900926472965 1.1353698454478123 -0.08624225622869663
Ni 9.36686831978192 1.4818031898139634 2.7554788501730245 -0.10439887253306537 1.8070252949181136 -0.005293130078139271
Ni 0.38497180035174466 3.7352563568612442 6.223143069220698 0.43652883670165465 0.6470222243026534 1.3667565315580525
Ni 8.853331129344447 7.577049230871993 8.903903537034001 -0.1988331776542511 -0.6326513002929621 -4.543921672684156
Ni 8.056972297218048 2.070820471171519 5.306517363064463 0.10878491741590297 0.36455774567999155 -0.830728316507479
Ni 3.6811526458826647 9.230236846767173 8.916746167393615 -0.4913930928397021 -0.7734989025713647 1.1407910164633837
Ni 7.7901876078171135 8.180581914329565 10.718452017097214 0.09898464349602952 -1.265042662056318 2.38359620727774
Ni 3.1687542844202405 7.277509206442793 10.611435698231992 -2.1065505856778044 -2.2550893859528776 -1.1128436393208383
Ni 1.0927157362236999 8.281246927992955 10.16067785524368 0.26068569218467363 1.2429887675800722 3.1010396616164337
Ni 2.2869086018552913 5.5717020911020905 3.9160034506635637 -0.054430253924422384 0.19271729456450037 -0.10645626928272633
Ni 6.293028896167442 0.438154180020182 10.582403027099213 -0.4428779188481341 1.924412866401363 0.9523270978585984
Ni 1.224026450912396 2.196474379639888 9.479424761570847 1.9064262000159553 -0.37117705076872204 0.3080261291418502
Ni 7.730259066671067 7.9981359117284025 13.39622072518508 -1.6510400656673245 -0.5070742510203848 -0.6621467386489177
Ni 4.399772398466342 4.665576948175635 2.1660499101449795 -0.6685822098616163 -0.01210321102143722 -0.5140123729011147
Ni 6.695548930865051 4.4205420252654 2.9655358546209 0.31880265093206384 -1.2685689300420218 -0.4940392722132976
P 4.854193163502272 5.443742520692433 9.379663343356514 -0.45030866409456644 -1.015628686130722 0.05896619412156296
P 0.3334780613520486 4.945775549356455 2.712088532757267 -0.21539828110178388 -0.18179781943851916 1.2578014071128727
P 7.555570169629462 3.3552702004076465 7.016166625996398 -0.44617844397627676 1.350497903607345 -0.9551157163473293
P 4.2263996890106545 1.2858032554769652 5.6178377331208145 -0.43862042912336074 0.4129577342499339 0.943616457458478
P 6.635928433622094 7.721568494738517 5.24434010142588 -0.7429310570868367 -0.6310764996066744 0.6957001491243309
P 4.749999646948974 8.616389359888046 3.25870030372257 -0.748876476036994 0.5395107742825354 0.8187806572272995
P 1.9092094380155227 3.854385335382403 7.932697118582587 -0.19664028376799036 -0.6124845955371 -0.08285971290970891
P 1.5121781855911027 1.8837258060328583 1.2030393264484311 -0.32593103444672905 0.06103027573944328 0.17845872776295715
Ni 1.4688746805480328 8.84320301919749 12.426926979331927 1.0256816994913496 2.758799605597036 0.4496682022970901
Ni 3.182252208173696 7.208143320265803 2.4625477676646024 0.8140094610909013 1.2926827923710897 0.4763004601726378
Ni 6.164630596562479 6.517994292058363 7.965677419006745 1.7001188254718465 -0.08225910321123253 -1.0353912134696297
Ni 7.651829222012332 5.575557307222544 12.383808300630708 0.591708025111381 -0.22488873709072235 -0.6483933936185672
Ni 1.746580926512966 6.31066207595325 6.807722651441051 -0.6203431723495704 0.2317870068724524 -0.37386950999922064
Ni 8.340456700031798 4.546690670911454 4.600822385881224 1.0183363148698719 -0.5768228804694324 -1.1369040227041516
Ni 2.4973492609824666 9.42194283578841 6.580068872395916 0.003983667238096365 -0.7362670148030996 0.44532020974103953
Ni 4.7324224751455475 5.804041871339642 11.581385670945357 0.6527020482962501 -1.6120143192234302 0.5939271442498868
Ni 3.285456250371622 3.035828672906269 0.8465494520693991 0.5098695543773348 0.4718087429498713 0.09283970694055624
Ni 9.151069563673774 8.961855929868424 1.2863708030317438 0.19398459131269816 1.9234674717689584 0.2907984524096541
Ni 7.34707112055811 1.314068617251144 0.947182727876107 -0.056114583605380776 0.004495316767192258 -0.827909101891129
Ni 8.875006218525307 5.707558787027254 0.8776478842856067 0.39077399906404314 0.7815701096152734 -0.7602548930772649
Ni 6.2472330359084856 0.541160327347034 4.96528966388384 0.045145229078070635 -0.24745453820638028 -1.5380233695582608
Ni 6.369871847992092 5.269585699483432 5.389938452419583 -1.8023854821532572 0.6779793348058001 0.7341049741547745
Ni 0.13738291344500514 4.095210324950447 10.567908161259403 -0.27636299371061435 0.775642945497561 0.36782047559166325
Ni 6.080347917745088 3.5129980134519982 0.7423606028479671 -0.11200085325003936 -0.9835441468913512 -0.5016168274502393
Ni 3.961155219125156 6.876548060588078 5.360004986236868 2.122523306956977 -2.5207673891458198 0.4126227195080184
Ni 0.6344537570629106 7.185469422065843 2.814322703393655 0.7758704881273347 -0.14100829622598296 -0.126686223176356
Ni 8.439432139560072 2.4867730869764744 8.783348221894911 -2.047422926277713 0.7439744107496864 0.3898309184244835
Ni 5.015561495401291 4.030362416018737 7.689386308063267 0.25606439136257836 0.41369589796753914 -0.3476694545650851
Ni 9.012337791319798 9.21231429240574 4.323875048077532 -0.5521179215235845 -0.38748632945170686 0.24944354361195106
Ni 2.392371632675857 8.087188603711779 4.770015032918656 -2.8019535152766903 0.5458865959018921 -2.175491631623892
Ni 2.3327884740878173 5.236727683154136 11.876147281011216 -0.4206149936848756 -0.9700641101270453 0.050961578649531596
Ni 1.8294540711071399 5.475368361409379 9.28510693363798 -0.009814157876944387 1.1762537281463679 0.19187525827917923
P 7.208974105337766 2.103818507456764 2.910791785710448 -0.5506076555266453 0.8869282607378145 1.5325397207358704
P 0.9539746292059922 7.493438647843156 0.5652689633622822 2.3837461025920432 -0.32694482042322404 0.8091379919312129
P 5.7665818657914985 9.15475675584709 8.613977282780237 1.157361262117239 -0.1625402567604878 -1.2018259201885173
P 7.165903966887944 6.758455229740941 1.6914793399816583 -1.03489576189045 1.2786301709327657 -1.0191948062154252
P 5.375375443534544 7.8098650789597714 12.42698112038156 2.239926305059194 -0.11581431345885862 0.7320218663735005
P 0.3348698597141787 7.806700627955331 5.634997645455516 0.8389537897410647 -1.7100936772963709 0.9685445881587254
P 2.7597186544391517 1.0372304950130928 10.858885498649155 -4.243016727968119 4.510032219025561 -0.9482272167576121
P 8.588376034034576 0.6977287751561309 12.906962995109112 0.5148927186235391 -0.2686275727395696 -0.25678969956437714
