# total energy = -340869.6054875413 ev
CRYSTAL
PRIMVEC
9.24287045421152 0.00000000000000 0.00000000000000

0.00000000000000 9.24287045421152 0.00000000000000

0.00000000000000 0.00000000000000 13.52787519340215

PRIMCOORD
 96 1
Ni 2.0749597349338083 2.478420276641548 10.444818040404236 0.7763739101263145 -0.3454534207503728 0.8701754667595079
Ni 6.019789150508212 7.393094854545599 13.24097585597997 0.6354998254853508 -0.21258112336796292 2.5463264685618467
Ni 0.9222721076878355 1.120864423995194 4.524857437392499 0.7109539899596078 -0.8375044588890479 -0.16132978139215443
Ni 9.109523641440573 5.1012049481637 0.328269789908412 -0.21400268630583788 0.9882258686377366 0.3459828108912816
Ni 0.1039601106254605 8.944686288325734 2.5656831416461743 0.005582122073467806 -0.6864212949255661 1.060157621781032
Ni 2.7627494600282634 8.86042828053192 5.349002610049288 0.1253335658032035 0.6599224773040893 -1.3028509911533432
Ni 0.37384453594063405 5.244811427660461 5.41213788581028 -1.0141567295708855 -1.7223344423369369 -0.23875238244669203
Ni 1.8051418582864842 7.366641759075449 3.777361541505405 -0.3089188161594486 0.025577848469104335 0.26109166937384065
Ni 4.54705788812966 0.3960875038822545 6.818712378050065 -0.7234734625828572 -1.031782413072449 0.3137910566500854
Ni 6.838273064962532 0.12764496637048545 7.422176622395803 2.1700180101038304 0.9849425699007749 -0.1948554239534257
Ni 4.403220336869532 4.290919459873609 4.258710828921536 -1.1260048592931446 1.2224952756124108 -1.5557714375703013
Ni 3.5035100761567626 2.839243456572976 2.619808467209996 -1.7565897639753811 1.3599009420888 -1.4565859909173753
Ni 3.296118547100423 8.436097337156953 9.743560528653752 2.285042737781858 -1.1099694030968366 0.7358129579848166
Ni 8.763710883257406 4.568029961372767 7.862901645238067 1.528379932931226 0.17864898939689233 -1.2569621990410287
Ni 5.525693020337754 4.759745582002351 8.046420688277529 0.07051353263953017 1.564116724211203 1.8504255162806196
Ni 2.5993077803641556 8.229657823765683 7.589977239804049 0.8584944308771538 0.12874927635297184 0.15884815262088126
Ni 0.8868118348816744 2.4472255885871252 8.49576283931924 -1.3277104733991842 0.39455557759366244 -0.3721075330027914
Ni 6.420929731711757 3.044074710491219 13.648678875263112 0.3150146446445413 0.19618057052275245 0.72850536857981
Ni 6.722117910953663 6.061807239958703 4.796903770125726 -1.1803523236957736 -1.0826138939020193 -1.3450376518237221
Ni 6.0041502135635945 0.43649733385971756 13.263743818967958 -0.7042220705524129 1.4567654539180332 0.02078119841140937
Ni 3.261919926122241 8.37534394913274 12.12619786223184 -0.295309195795814 -0.2585956424248643 1.8931953031479782
Ni 1.3917914451066753 0.28233457192533884 9.41553659910156 -1.061572499850688 0.8323997906726309 -0.39810138596339184
Ni 4.639246278842198 5.333820270909082 13.098730851312961 0.7239501451089597 1.6165512878618353 2.1362619966993077
Ni 6.786827247566704 5.19827357451853 1.0570969358896323 -0.2500670361285629 0.3745390252624195 -0.25063087905183284
P 5.624092620049573 7.666425021996089 6.218344495333432 0.8016131443090776 -0.05739319320748825 0.9048593912949384
P 8.372885345570523 1.9723453862581921 12.88630195781524 -0.5728088742140328 -0.07858216858027757 -0.5368136870663465
P 1.6805294777384157 3.820947221798572 7.0930712769910595 0.06230734267965399 0.679018574703592 -0.12094854936163041
P 3.5722030899702357 1.1898069953131027 9.032129389305785 -0.3912221423450552 0.43761821311109145 0.1758112628377811
P 2.3539188105398954 5.460336682787288 4.620581226084538 1.2604450153833067 0.11456475732247366 -0.742813814782682
P 8.82225522522384 7.00963588467483 3.9429161413737326 1.9887727207346715 -1.4293325545180608 -0.5287900454309216
P 0.8371138443039476 4.398404801320983 12.041526698125127 -1.515122039480055 -0.16181854810311486 -0.4402600216093127
P 5.135782526833802 4.2241766917429455 11.530011454145079 1.7269002073307487 -0.9036622856630436 -0.7832688374739349
Ni 3.462434759500805 5.18127593560532 6.446803299199385 -0.18838241463457234 -0.7445685926902595 2.1735625329219794
Ni 1.6202659618525375 8.225230488779589 0.7320085420192448 -0.267124762941798 0.3254198991382653 -0.3597050455733805
Ni 5.749703230615383 7.935050568344443 8.487740951982223 -1.784231951172682 -3.235522498019073 1.2865697374948164
Ni 2.390520577857085 1.7492779487750967 6.484722175567762 -0.23958002055430996 -0.016629895247197164 0.9806310870096143
Ni 3.5534677913965127 5.2375095599380925 1.7361946655333083 1.1606113936234206 0.31228670419041704 0.7754706815857548
Ni 3.9286728778798463 6.443953722213555 10.971445377708427 0.7536523001590827 -0.25354522448515043 -1.3745474883573812
Ni 0.9474959013768788 4.651881282863057 9.866555406858259 -0.2063973631547542 -1.195333113375322 1.32098780996337
Ni 4.048673066031127 6.868700594762579 4.99854993085773 0.3954894022618414 0.21823472210931444 -1.1820536226575964
Ni 8.337836380503154 4.952588832837161 3.1748160384908104 0.10085820636965856 0.9564604033006818 -1.1176526306737073
Ni 8.601988377512741 2.8664174959448294 3.9652774180581964 0.07609179805825604 -1.2119784352414869 0.9420316294698614
Ni 3.7143122244403854 0.7601530827972354 1.0341746169637156 -0.4518045319138025 -0.949413009535597 -0.6168487860430666
Ni 1.4736370636909468 1.4364992098827478 1.73869763487409 0.10137705498760605 0.969755063527059 -0.18314224928155556
Ni 2.0113780285259932 3.272937427799536 4.679387141287104 -0.015244584863896326 0.8084849317282462 -0.5569976182133891
Ni 6.353299648009767 1.1793440658678858 5.555641769444107 0.5647152985726209 2.1921390103725855 -1.9055867348337954
Ni 6.9954111069220115 2.84550087992493 7.55469627868626 -0.0874614733477784 -0.5859893774600489 -0.4219956760824861
Ni 1.2257987331750058 5.977401346236335 2.00726587542513 -0.059322549019717195 -0.3640751496166182 -0.16089577917852935
Ni 7.648308995748187 4.480481491668621 12.283310948440876 0.34810319966839404 -0.9073590177883405 -1.6367164499558007
Ni 4.851860029750612 2.889349057741281 9.965485547338766 0.08457875248334465 0.32642160092990236 -0.311540827163328
Ni 8.775782072175652 1.6730982098285618 6.552280164879581 0.1527896051316272 -0.3057730714416153 -0.49114421005368963
Ni 8.720315606097254 2.0778157819290133 10.669516844536696 1.9095380061720597 -0.394014874598844 0.7142383171378345
Ni 7.656165435702634 3.6394819445919087 9.589031749046203 -1.6097710317152083 1.1365497246885266 1.1468935298166956
Ni 7.832140447811718 8.021378979138017 5.387895684972015 -0.20348713148649472 0.8450501324467898 2.592322732786303
Ni 8.593420236527127 6.5433238233315105 10.667988073750266 0.6862857977889665 -1.5126586655412273 0.6154645041010303
Ni 0.9084808205630934 6.526353913029904 8.609167315057 0.5910868465876142 1.1571717718142522 -0.17954656151049725
P 7.897995900371057 4.008919479861624 5.819529420356403 -0.5078502099544608 -0.43086238244449665 -0.46661280057122867
P 7.198227415063703 5.734933123501023 9.220803181242417 -0.27716466367630327 0.913160454961466 -0.9844684584778335
P 3.061941179234686 6.734965500996817 0.146148268893789 0.4073146770315436 -0.08021687597022313 0.8528737422562667
P 3.327969478962806 6.429220586581332 8.573493531941489 -0.03636979687828575 -0.6093437359152731 0.602333366035711
P 0.904057182725213 -0.0013439133757372202 6.725261411222494 0.006667384717846582 0.28752595230596933 -0.2544929331104004
P 5.3893144655990834 1.9514934703320355 1.581760163205211 0.12756888289162546 -1.1835754586187617 -0.33450926303404327
P 2.7169140650469643 9.115522264417557 2.9156089772172575 -0.12134321369688778 1.0765597172881394 -0.019213339703657233
P 0.6409764344105907 8.164255271862542 10.938612852995265 0.3325590812862079 -0.15486731359626232 -0.6686991950554547
Ni 3.1765897453464085 4.237052010397705 8.951205284913819 -0.7048329646635345 1.037975172146722 -0.8079966792379182
Ni 4.624014028201105 1.2141065019486814 3.5254184521850287 0.10058052722823968 -0.6255180316822905 1.058231608402913
Ni 7.7370682814923715 9.105530721369606 11.504713717491759 0.18535725465500338 -0.4572575846085738 0.06990238141809252
Ni 5.918551989542258 0.6900754869776724 9.924969424350154 -0.4743482215422734 -1.056435692844755 -0.692183394220324
Ni 7.525295631802612 6.414422750855367 6.959888906883269 -0.36775311268883765 -0.33692404312312296 2.284100942693879
Ni 3.919097264005955 1.1428809416087156 11.383950992521369 0.6188832999745921 0.6600224932170632 0.3086254532887459
Ni 2.9218562334116234 4.451745407176412 11.658363500111465 0.08149882800644029 -1.1545587596714375 -0.4416589588393684
Ni 0.9502410339256679 0.7011974330920094 11.993922217723497 -0.25733297366235686 -0.19380975629773073 0.9818094235884317
Ni 8.558842657857024 2.884283964688296 1.3613639153066277 0.3616431431363578 0.07292497029450021 0.3392429210642867
Ni 6.412075061739568 6.204064260357407 11.35268790722499 -0.7398940700327257 -1.0343691999630187 -1.41056375855099
Ni 6.508468958545369 2.2875457572306175 11.52255707905889 -0.19328242303935098 0.13947206208711463 -0.03702028597809108
Ni 6.383070934001855 3.4051566907976167 2.7043030924894964 -0.07745551117500209 0.5922464141133542 0.9581002528969499
Ni 4.462032722081472 7.633899360584676 2.2552862904906035 -0.4733151522920687 0.3558841291653936 -0.41310428713012726
Ni 1.6568122719465193 6.454028451096316 12.0284997963936 -1.1109209683768286 0.648160965892787 -0.13556372817164394
Ni 8.309257424810035 0.11924134848038723 0.4771724342215249 0.7816066192801635 0.18400716838501213 -0.6997977162324722
Ni 6.7206852660207925 -0.10490288341999417 2.1546526889705615 -1.4703758456126161 2.137893361655144 0.6018620828262473
Ni 8.454564592485172 8.390992128947891 9.122117052544024 -0.6040079255246565 0.2455046135688611 -0.4745639370975053
Ni 0.9866394580910954 7.123887007353562 6.312877802300609 -0.30843493454449467 1.2909246720294025 -0.4127947263095084
Ni 4.646668303881517 2.569471794278325 7.703407595579306 -0.7653737023610689 0.05202267292419428 -0.4491886915575103
Ni 7.73646749490762 7.198883658871663 2.1647172506957353 -1.2132878980815296 -1.6537685203420809 -0.3568290095771661
Ni 1.9208903259918297 3.9520480974619607 0.5263722340774343 -0.3846817701233762 -0.8282040074237285 -0.5031633460017528
Ni 4.047878179165148 3.0812033214288834 0.03972955470611325 0.5511265041445927 -0.8702502858615011 -0.049887114638430215
Ni 5.7577630137215925 4.0044829020049955 5.947219676792509 0.8812921454979596 -0.10180540077427627 -0.08381333507222985
Ni 5.6564703955324305 8.6195590743991 4.2503903968662495 0.4719139010691679 -1.671629716893218 0.030453945614483034
P 2.3357011127161122 1.975145976030189 12.892904140238137 1.0497212569390568 0.02520143896629208 0.6261327824481538
P 8.097438560767602 0.46147249433137877 4.314675485721751 -0.5204894959850261 2.7987218957132702 -1.9395970303409695
P 8.683889453320221 7.25878670280669 0.29089162146631214 0.8170076244872768 -0.4007537359845743 -0.37210521900994625
P 7.7939396638920355 1.332258115993034 8.921323084475313 0.8737513570362243 -0.2380687261161061 -0.16526305500828956
P 1.128545249409483 3.7119737781951208 2.5202433415237584 -0.4861228455796983 -0.26156963745152373 0.8011991967001105
P 4.31657766847778 2.397720774003573 5.552448357674388 -0.37681882243553166 -0.8919344557031543 -1.3730243668446354
P 5.683062134060601 5.894012168272778 2.7827926247826387 -0.3892225954165232 -0.631701534785183 0.4692165567426629
P 5.576297736514929 8.196328032617757 11.348900178879894 -1.2038450075010751 1.4813752820469133 -0.8039147958590606
