# total energy = -340866.215743412 ev
CRYSTAL
PRIMVEC
9.31206083576418 0.00000000000000 0.00000000000000

0.00000000000000 9.31206083576418 0.00000000000000

0.00000000000000 0.00000000000000 13.62914231067202

PRIMCOORD
 96 1
Ni 3.6564366176602006 3.824388949564258 4.386935209626912 0.7064005662609705 -0.45128979706091304 -0.6521052952525156
Ni 3.0373801155172755 5.5605761596913315 0.3645224896235689 -0.32899013298802693 0.09883526240235882 0.27290434573805256
Ni 5.770907681132723 8.860128040146886 0.2801840844992701 -0.08979500657696149 0.02044258412506802 -0.46677812250449935
Ni 4.74895554846413 3.153520140107395 11.530786157236216 -0.3437104699173371 1.0162251820641401 0.45808625115745627
Ni 4.876810145771887 5.823883996069636 7.501534659646361 0.6591411190533746 -0.6441173919510326 -0.23949183171587787
Ni 8.514371215817897 1.8887653293468547 12.774199586634055 0.8059991891919153 2.0244079534397783 -0.8108459757612552
Ni 3.693433435948891 8.52502421358338 7.0765917935354175 1.3233601668502886 -0.7758326929108639 0.8076806906593961
Ni 1.5665307710629786 7.181694232241424 2.759683282506782 0.7250271802232222 1.1752268295437502 -1.9802253453852927
Ni 2.6085038348467693 1.0771726543026052 6.1978666084466605 0.2852716090541539 0.7202323299377402 -0.6922823816920336
Ni 2.218393664051878 1.9577397650539599 3.45442914753224 0.164318174596517 1.8756202703786926 0.42410398067474053
Ni 5.479710222107896 3.658671512296316 0.26127873828993237 -1.3191211890682766 1.2548865474589228 -0.1951924955778703
Ni 5.887559869076952 4.776239887146702 5.175026105160213 -0.3555840814264715 0.8398919852846181 -0.9571396887558934
Ni 0.683609571294916 0.7619091048712119 4.59240769764695 -0.6257933968308641 -0.6337121374573086 -0.4668125752868606
Ni 8.372213292839003 9.18653440175151 9.057996299167542 0.9455573832349329 -1.708092587705942 -0.038050527014818335
Ni 2.8559532313696407 1.3691057661451524 10.8557483380769 0.6760970301814228 -1.1792464922261046 0.285551859298734
Ni 8.057027964719875 3.488819519951561 1.3039492754414108 -0.24976647416900852 -0.5129967871524068 -1.986802484382178
Ni 6.243727577585843 8.596224231865616 11.138743733787184 2.77350040214232 -0.7970797752150982 -2.1815344953838625
Ni 4.082509967974579 8.174965217079869 10.511871618860544 -1.6836434535246425 1.1112364427347183 -1.4233174586722326
Ni 5.55857406657981 3.3345931659376453 2.6356447677901915 -1.2166971808733948 0.24804692037474058 2.1061492364743275
Ni 2.777229067812483 9.013162450354875 12.733408103494458 1.7710486197131887 1.3581726465437833 0.6214531175842974
Ni 7.2269042883178365 6.783054213585358 4.110235698347784 -0.5228569677759383 0.009791532169125072 0.7293528041817697
Ni 8.76382270545229 0.6938435263161268 0.9302758234890485 -2.354504432118106 0.25196476737190804 1.2577561556972339
Ni 3.945278125256122 6.0347835532310405 2.7223530924348713 -0.9923704869337296 -1.9123402515075452 1.2267635639704615
Ni 5.3608138274665675 6.466360331586852 1.056347161118405 1.9975728355248048 -0.40438284809672936 -1.0984853137166375
P 1.1903980038047912 1.0812327128915478 12.378545945935498 -0.150233928589309 1.2233241992716093 0.6082366188940235
P 2.0299268618004804 7.473469039047246 0.3591075261614815 -1.5520762481069013 -0.2198167218844537 1.2929722985870507
P 3.198823316793647 9.348191780430511 3.694342293100911 -0.06096599816041113 -0.19947646766520485 -2.2573409009912155
P 2.079401841807481 3.078446304455892 7.62177105986326 -0.021882144785071993 -1.9784883080895281 0.8045362314931435
P 6.122754593345125 5.283402664508127 2.9903160280989844 -0.1726153816083027 1.6941829196033855 -0.3496144941065979
P 7.687916491443482 8.13679507910722 1.202516719969126 -0.43333655501660207 -0.8417166971981827 -1.068105158762883
P 5.914108554941804 1.8330047081757803 1.3415746578465084 0.9633496742213474 -2.3873713580494558 -1.8276234307844397
P 4.854619504447459 0.5162252751108716 11.755421935554843 -4.702967800248455 0.2060464075732387 1.4979640396435299
Ni 3.6100625539608107 3.205695617799701 9.429989855318425 -0.8125202781398845 0.850141173816452 -1.9074207027187404
Ni 8.60338520676217 6.637869870786726 8.546031291956766 -0.4436158254554231 1.179261661734756 0.7527557564867423
Ni 3.594194802044392 1.235161080953982 1.734457960402379 1.9834495087495454 0.9945019314544358 -0.3162731996419908
Ni 2.9050836651202396 0.6608713807846406 8.594564822598302 -0.8416789019817116 0.9225064149527403 0.7219104889711117
Ni 7.197385054999149 3.486463568522656 11.472139728366258 -0.7038274062171556 3.005438589880656 0.4690646045458309
Ni 9.55324336329408 5.877353850238692 -0.021852613510714707 0.31417183702827184 0.46252140411067444 1.3823232756480581
Ni 5.85331942083947 7.342262099785316 8.660106832626774 1.1944586811901687 3.147264754022244 0.638753813646274
Ni 4.659457330348701 0.6733970340139679 5.10764403188134 1.0077233152407161 -0.9800495034745315 -0.7186971242401364
Ni 1.9922781992429233 5.629140864715149 4.5092835852749396 2.2439835058477033 -0.05176350572553666 1.540939257653475
Ni 4.91186074331496 7.6817612191331825 4.168882127217742 -1.993310717814341 -0.43723871828448574 -1.940962286119612
Ni 3.1444967530140797 2.1865091672433015 13.24490937006824 0.600507882791198 -0.24347781294681942 -0.2658420395746325
Ni 8.460715120429166 5.082876743282692 5.495242739828897 0.12457586170157253 -0.39169368266483506 0.8570823810209756
Ni 5.5553334693574445 9.432559052943859 2.6056738995137882 0.8075302811244609 -0.0684039424956951 0.930497917798649
Ni 3.6636814011056074 8.08060610313089 1.624484382595741 -0.1734489332531916 0.8255046062146945 0.35998246760448327
Ni 0.9173115721873836 4.863456650321099 9.360999589107648 0.6358371542201113 -1.4108242113012281 -0.021462540749150133
Ni 6.954181958284897 1.721138919577231 4.05866364220723 0.22008103128943385 -0.10223734610537231 0.2715666007632355
Ni 1.4142599498556634 3.526198132740588 5.179987571252389 -0.7990476975747464 -0.9140171465348066 0.4276125080486313
Ni 8.613432920563705 8.75232231013728 3.1190971754746304 -0.05017584952344262 -0.6044177593685656 -0.25227818484726877
Ni 2.3547036127329375 8.120480348263579 5.165267996455276 -1.821203900411341 -0.09119497224828166 -0.3801831109220743
Ni 8.070455956658533 3.9080950657477556 3.5057833014457738 0.23992917636361258 -0.3264745656550248 0.7709254854172336
Ni 7.553338586105413 1.4928723686810152 10.628169017281289 0.6728728668171702 -2.6012022946641205 -0.22648127838882287
Ni 6.180498683505751 1.6803148442241935 12.678332850011794 1.150417226699238 0.34843384353493545 2.02304835408809
Ni 8.017023350733414 0.18948367931083007 6.447892652243754 -1.7877831588590503 0.9954331850194532 0.10896258064434781
Ni 5.930469846090363 7.785469642309911 6.075040524070164 1.1248630323792175 -0.4272916343741028 3.0552457432107705
P 3.6175494509917963 4.8381464685670945 12.078569075815132 -0.47661104943452115 0.15849076928146252 -0.9691220579287504
P 3.7074387756685465 6.713837664292675 5.945440846534041 0.2525016137119845 -1.8216489583685596 -0.5500268433225108
P 1.752818551044164 6.714526756805476 9.687076303753445 0.9796748937439321 0.8864245816285187 -0.3290708656272914
P 5.350700929238147 2.6080568559195463 5.42901908693641 -0.1640690347001884 1.7346903927991284 -0.5762952901007365
P 0.16497247238923665 6.325906515767996 3.982272149926517 -2.072870676926856 -1.0057836750158422 -1.7301511101678781
P 0.20288932230312773 2.19805612286323 2.483447511864649 -0.07176617409970865 0.6341685082684368 0.17597041412346467
P 7.122367091713549 6.014632253262069 6.968117457547174 -0.5053546972261167 -0.145595144265717 0.24783429014330224
P 8.470241358815608 7.64563973457697 10.89592708760376 -0.1710449517973893 -1.6977238428771084 -1.9972686740208248
Ni 8.653586527525906 8.88936791163606 12.479891899240632 -0.053350133486366184 0.42878955907586797 1.638856636227255
Ni 9.537599100841271 4.019569747784985 7.362476721768978 -1.0756523749825218 0.11002290358806215 -0.7242923589397268
Ni 1.4239072450348937 0.47227234726727285 1.7154594935832033 1.3998797964745826 -1.523445728854402 0.40035547210489114
Ni 4.708299090208801 1.632450850767393 7.257395700803235 0.5381979690083828 -0.13251928491836532 1.7458687780134512
Ni 1.1941693885032356 6.487638390934865 7.275590536759507 1.4581062842166437 0.2674839460534296 -0.0782954905777942
Ni 1.963001079509814 7.144483236550106 11.8249988616076 -0.8672336105223645 -1.9776048770433103 -0.761856690346746
Ni 1.995630541197096 3.4219682341487654 11.327998336397812 -0.7265929820484454 1.353580913408043 -0.3522010238868515
Ni 8.079758705581364 5.931233435091036 2.114343488237043 0.8024328119968954 0.6692897774516021 -1.1388655173058968
Ni 9.22404338339431 5.298544075667808 11.44354611390936 -0.8613591540194585 0.13682202605877725 -0.6015211545470609
Ni 3.991289018577144 5.964756854632764 9.879670211432868 -1.045001482865884 -1.3533019487150435 -0.00739680668470339
Ni 0.9232936401633852 9.136267896560886 10.654745639329093 0.6589577993979748 -1.3744014496978199 -0.388686263297079
Ni 6.321185300849202 6.069787590469194 10.462343560105937 0.9542024605044404 -0.7866176993415098 1.0760138720869983
Ni 3.4287846627889165 4.342819320716096 6.767591536321737 -0.2507242100965876 -0.12798874403786345 -1.3765154107170292
Ni 7.705646655556663 4.5162378324176515 8.817264623438394 -0.08985439905998718 -0.21278963983434318 1.0151550889284129
Ni 5.249506762527047 1.6023728937896762 10.00432239096829 0.7025300275619707 -1.1774716597138688 -2.6428397676992486
Ni 7.841109206688195 2.1077384433812245 8.386624638417553 -0.35356602255517816 0.3187034063500382 -1.232371397075542
Ni 1.115687338531657 3.2909195999235603 -0.08582274764511864 -0.7337812722667685 0.4176687665723581 0.8366991893789333
Ni 0.512868277126207 1.6728465713151752 6.682041632063445 -0.8259820600717453 0.41516605475516244 1.6794908648088493
Ni 7.032272901695155 7.086729834328495 12.575186875318487 0.8473589830856244 -1.046686840988107 2.084377906235507
Ni 6.2814414245702865 3.560596886014794 7.14736811304289 0.22450564271969076 0.30422526733852123 0.7444199829275373
Ni 1.1904725002926617 4.4093167482015065 2.1658615344238923 -0.013420130060647857 -0.36085664267932044 0.44019754380249354
Ni 4.504225273748532 6.811446687525006 12.316151412519554 0.503233794228372 -0.13106095520528396 0.6521387195936124
Ni 8.997816173853549 7.536176457712244 5.573733170655361 0.27964166446188615 1.0816430453483177 0.9983740128153322
Ni 0.7060721248000704 1.7001681582416834 9.302258177215654 1.6458163553745397 0.12625993427221482 -1.1301139963655118
P 5.623469819576005 4.181702041574158 9.496445378529408 -0.39204412402571837 -0.08482686393840876 -0.16797248351965266
P 6.411549540636127 0.3009769854700269 8.538535082864795 -1.6443089175910777 0.40762578051405923 -0.7557606047513371
P 3.200099069148429 3.6756846477137426 1.368665305660618 -0.22902821318039268 -1.4906109417125684 0.8414922398922025
P 0.4727156013701023 8.723557353758281 7.366251831291816 0.9080326468165973 -0.42283591259559433 0.08156747646084661
P 8.998142095987983 3.0998640447186627 10.349057682207356 -0.1505028659799795 2.2617179470129884 0.4995141792849397
P 6.839159381012834 5.0297421233090525 12.963304265062842 1.0410784936623942 0.06234925166118295 0.18672405309554296
P 6.9612498125716105 8.90941677893421 4.567248371280883 -0.44369707231531974 0.16168947872441833 -0.4682747616546838
P 8.349715353502111 2.7758974430917975 5.4776476005999815 0.5081438299354797 0.37366382174631774 0.6510146332914982
