# total energy = -381171.6431377345 ev
CRYSTAL
PRIMVEC
9.17844466276140 0.00000000000000 0.00000000000000
0.00000000000000 9.17844466276140 0.00000000000000
0.00000000000000 0.00000000000000 13.43358153535360
PRIMCOORD
 96 1
Ni 8.42580314525487 3.552618021594245 10.96066105492697 -0.09596231172993795 -1.146488323958477 -0.7741522198846474
Ni 3.73960129899992 9.347603534668247 6.590474898723702 1.616284921574326 -0.5688987405263493 1.6425235435558807
Ni 6.999316790230435 2.9509526082574684 3.238957520477488 0.433324470831744 0.04859359263798728 3.3248043124050417
Ni 4.493977676870155 7.704285599758105 0.35596028180848066 1.140963537485506 2.0540352893879077 0.7876795649471209
Ni 7.040390330697272 2.893220190483971 6.226236577552755 0.7213301909876093 2.5892384374340245 0.3231241611255532
Ni 5.536015693124998 3.6974447020470302 10.123802582887969 1.3628219723903368 -0.22517875752731542 0.7705498472453697
Ni 0.3901867024567116 0.6259644280925087 0.3402568806051933 1.1784041988304672 -0.26635086089025095 -0.9624533876593231
Ni 3.2787974779635998 6.034111535371767 5.438397425641404 -0.4776567170902161 -0.7747898534686463 -2.069442110861281
Ni 0.5999995256061101 7.643570187425563 10.18121742647149 -0.7230646571802128 0.2868605508078285 -1.3142016402794723
Ni 0.09579267481346004 8.551024667621139 4.664032230692135 -0.611196729963612 0.7887805113207834 -1.648734043241967
Ni 3.8890447371856256 6.726698622868205 7.428797332707834 0.25067998712221345 0.9752184006344752 2.363471411503407
Ni 5.0089985713226985 4.700208153015261 3.417771982013781 0.28711329024858295 0.28652990694128716 -0.9173053303677751
Ni 5.382469490115008 8.660872294952334 9.020797664913145 -1.0816011363667888 -0.36384066500830886 0.3544306845483186
Ni 2.547936275663429 3.054549714681867 4.369487676554211 1.6940021710511473 0.2430867481559878 0.1144706549467706
Ni 8.36832772393569 7.416100790020063 12.100714765325122 1.5118379694121449 -0.07633836685142338 0.40303250471642205
Ni 1.4724152927889154 2.6851356684898584 0.6958013788643672 0.533499792201765 0.3639013430429152 0.27404951508608927
Ni 1.174831755578686 4.817095647505801 13.050549796526637 -0.23067603319646077 -0.060278999395715537 1.4123478470346065
Ni 7.852572553899381 4.772148803334606 13.146237837069409 0.2712449557577587 -1.4172051751269077 0.49253260576078395
Ni 3.8107893168459053 0.8167484994886456 4.500787165065092 -0.5457886368714472 0.24571570113840266 -1.58763691882033
Ni 3.9805721887018928 4.433702829887872 8.713007697088585 -0.15777445994072828 0.7436224267269064 -1.6872288568830556
Ni 3.520429215690961 8.745029455296564 10.633539446670847 -0.7508312857705198 -0.933726966258908 -1.0978114275780642
Ni 0.7952828706417651 3.2900502512847933 3.0610434643757864 -0.5216824878518629 -0.12560995939304176 0.325001323543608
Ni 5.0258960881940835 6.337404065245767 9.891428224582922 0.32941025124458106 -0.4210834486808619 -0.16115854592161277
Ni 5.131980553158486 1.0475817969122674 13.713134383670448 -0.13389405377870492 -0.47571296310028394 -1.5452728520318226
P 6.082876612578539 4.209418352826952 7.995492871367817 0.1222742101515894 -0.0447554498388197 -1.1490581415681824
Ni 2.3645325917286066 7.9647973984330145 4.076433701851331 -0.4155020979383425 -0.3678428441891665 1.482124501508112
P 8.505563830541307 2.636168665497552 12.877190084733234 1.7562367515113368 -1.0675803966076647 -0.3583927545198602
Ni 7.422874482280292 8.526912893139267 10.338202792746939 -0.5358927179139739 -0.5394254136575806 -0.5913115610039107
P 3.7703858028492543 6.43234589822654 3.118176529704036 -1.0175670408040152 0.1250553724411524 -0.029337315511536573
P 2.5802168660146836 9.059932717838842 0.5371749066592043 0.12504354536661047 -0.1607764799918457 0.5806134578601162
P 2.4670374632221557 4.66049302237839 6.836833535521548 0.33627303980268536 -1.2992429620871109 0.3145528745167744
Ni 1.302155141803481 2.5072665867676625 11.468128089311536 0.32087290319753126 2.6800940240650166 0.0651718087116426
Ni 2.838076094143244 4.589277469198012 11.456951497082159 0.8451779162739058 -0.48992936380998203 -1.763925892625478
Ni 7.455880169770514 5.538668263671348 10.683686797664055 -0.7443870728070728 0.4815074582948739 0.6861035065748312
Ni 8.75393254674971 7.8913147693877645 7.8230197973418125 0.17254827581579316 0.3654661164268738 -0.801156259277317
Ni 0.3777526632901365 5.229024249997784 2.181653914836176 -1.4559411582445247 -0.685802944615277 -4.437538679841525
Ni 3.7341860165696557 3.503889658166661 13.27366861109833 0.012785838910758624 -0.5546401737248061 0.48990493832994986
Ni 0.16244378739625945 0.6736033101226814 11.113655633404656 -0.1462723728383997 -1.1107677306284163 -0.8143707010850619
Ni 7.038829995081771 6.654941541444802 8.848096047611692 0.3442192912329556 -0.1595120114571253 -1.943791270927975
Ni 1.3425494773553353 5.845806561915316 3.8459005395725727 2.1671975099358995 -0.04497270805594836 1.721816622160254
Ni 5.126978300744089 5.366214464379418 0.8449483532831281 -1.9479022077725547 0.20549002084913645 0.2494965083370735
Ni 4.87666375423871 7.81453707866037 4.721313068981618 -0.15145186015681011 -0.5041779033091962 0.3872883545082878
Ni 1.4931677564750645 1.0648097377963461 2.983638885868753 1.768845955634915 -0.16875512732194806 -0.6863161368062697
Ni 1.7949550214023469 3.9400493549228797 8.960655905380419 -1.1100429366472495 -0.8423484172449107 0.3113945313934508
Ni 8.086668788448357 0.8505159978970237 6.065410032129736 1.5026141368210313 -1.0846630631215641 -0.6892873036194517
Ni 7.217332389494965 1.6676224567327547 10.271195556506012 0.2409858997629011 0.15217434014513145 -1.2063312642580386
Ni 7.107998755072404 4.939214855530664 2.282312083236557 0.6999530108634138 1.9000043556500117 -1.2800471058849503
Ni 8.291302215198774 2.6161871911743555 1.5267801391663722 0.19920315939916014 0.5497306522383306 -1.558066661362381
Ni 5.697648106001198 7.118370397693081 2.348929235573607 0.5422988785506337 0.3740268615126914 0.5177469002428825
Ni 8.617687712182175 0.5447113276820691 2.3865030350393255 -2.033398586974162 -0.43838054519841274 1.9761920558561836
Ni 6.40704092592105 8.181133342299683 6.995793185272844 -0.10526944806347678 -0.7145851589542919 -1.6655230897748474
Ni 2.579225593976601 6.488398660602176 9.979847854690906 0.6443819584663288 0.2612595624102726 -0.5798606388544917
Ni 6.433465668491781 6.449748229561763 12.83164939518367 -1.4126455807806833 1.380202115539997 -1.161817755226696
Ni 7.447472714336409 8.315689343024559 0.8680615129710807 0.04300504280661626 -1.3862609201395673 1.349675664816366
Ni 3.0411216499437708 2.4132150629322044 6.635222570642802 0.5202236439181492 1.2112053045208881 0.7853627438884861
Ni 3.7408220321579284 2.1137499445385783 1.8203710528898813 -0.511093656592423 -0.20480276497412472 1.382365184629587
P 5.063334964521285 2.235896687897832 3.7137538806069235 -0.3274389864508232 0.7761443106140117 -0.6765780835828993
Ni 5.05595549490445 1.3085066256030453 11.131562779203719 0.9674349000343144 -0.8908142260557821 0.3077870165478506
P 9.02215423905415 5.082747375267064 8.816513019065013 -1.0637949614233035 1.0109667618786782 1.1808318344353532
Ni 1.6818306892786012 0.8459148435202584 5.266743068891296 0.1226868722089758 1.1014161142101868 -0.43257396581896473
P 8.881219219195316 6.470307945907173 0.5136762522897753 0.3625170611008789 0.7918601786873717 0.8419925765673887
P 5.495428610232406 8.218875107305188 11.481883824528888 0.6601649323321985 0.3722862246725008 0.10787371845554325
P 8.93996126589649 2.065682429136383 4.459586044215577 -0.3225510622309026 -0.6075966713171794 -0.1888030471117587
Ni 0.9989543963774518 1.4325441285904934 7.2186963063918075 -1.2437834955672256 -0.3522208213811934 2.324763710520564
Ni 3.5912042035210785 8.738090551029986 2.4432726339536117 1.291563591164982 0.33645970189219476 -1.8047588674814403
Ni 2.893550614496665 4.4187327864238695 2.1016977286755605 -0.2021434729744067 0.27334888947463887 0.23032019251893884
Ni 8.38193017912493 6.9780778689700425 3.002888838141624 -1.8830582147139765 0.34651040125997745 0.727783917032753
Ni 2.037678994060558 1.1414497518517843 9.36578603381122 -1.654772279016247 0.24282860939859469 0.1089875203450123
Ni 7.568508865875218 0.5116368018558689 12.609766917126139 -1.8720744620089629 1.5060211056200514 -1.2029842021626764
Ni 1.3861470901413628 6.249961021664191 7.971030480294697 0.05104668216417015 -0.0297638615259939 -0.31787911067652996
Ni 4.8967278345650795 3.6129846530244984 5.3629138956303954 -0.6615517853773961 -0.8848605795755083 1.3818424793568977
Ni 1.6825190726383805 8.160435949282315 12.179878851699751 0.30457905113351413 -0.6549376224949881 0.6590976674099488
Ni 0.9882798650784728 7.968404527238258 2.0545315365524366 1.16886052100609 -0.3402970733604139 -1.2398407088693937
Ni 5.841703797091031 1.1597423923323218 5.684272358398445 -1.7752899114880458 -1.2807729283073814 -0.9088751973225507
Ni 5.852176402604474 3.3257085093213656 1.1294617851023463 0.16099270976770982 -1.8639796008159704 0.16822188052629736
Ni 0.6571803188473045 5.315017099301426 10.90961329849917 0.20213421700302608 1.244713977801295 -0.8415943126877055
Ni 0.5425195150645316 3.4768958520185125 6.01347563793454 0.29549277256152984 0.5983484132460339 -0.323243717422553
Ni 6.476411611697218 2.8149555916994538 12.207767556215614 -1.020771406673926 0.6479447361169228 1.1037362777029314
Ni 6.206785617338829 0.9949893082251224 2.3108845818898 -0.7205231217052818 -0.4188278198774657 -0.8632396588716231
Ni 0.24836688051944253 6.638668158819617 5.646295625206136 -0.7217749918345118 -1.8498791568588462 1.207056315349521
Ni 1.8833618016876137 8.000767723592686 6.471842581877242 -0.31172903191473406 0.314658032636071 0.6332727359270448
Ni 6.869808934143941 8.752454817137384 3.90790919477702 0.7863245935811232 -0.8437319278559986 1.3034215189448328
Ni 7.843513428884685 5.11717572170083 6.840392936413847 0.34167852708897284 0.32268218849212815 1.7437648442965712
Ni 2.6911842636111203 6.306344208052521 0.6309942158412968 -0.6556148510676708 0.35826959867843455 0.40075399309489046
Ni 5.598172121290679 5.710929315622542 6.159941588628081 0.29378556006243595 0.18411592604873453 0.3055774104910415
Ni 6.75133356870351 1.162110431089963 7.849577627362101 1.55436555836171 -0.19801659529022672 1.0793426793499152
Ni 7.933829325687739 4.964712575176892 4.533551459457152 0.254156118596272 -0.7195859546029929 -0.9772503434628396
Ni 4.864612456220173 1.834743579597595 8.605431734844661 -2.0462386761616242 0.9873648061890221 0.32634086829063796
P 5.059434125482535 4.698638638954964 12.001158928144866 0.6951013391980674 0.7294026835830986 0.4551798761439386
Ni 3.9444458299806704 6.727809214688649 11.893004723878729 -0.8417812318875308 -1.051077513856635 0.34452525250914856
P 2.8399668537714375 8.6506842212276 8.403672997004682 0.7937995618019297 -1.783195796598684 0.14564425233609757
Ni 2.8908888655055183 1.203110543998423 12.22787752876597 0.545148432184287 -0.36982670738841467 1.698539139689552
P 8.730848758085108 0.632120411017896 8.796914285889855 0.2744215537135274 0.6415408894731081 0.6489613503068953
P 3.4145833902912828 2.335446100166728 10.321370442833613 0.015599654210469908 2.2736023571554007 0.031607599602952015
P 7.218819297552089 6.859685109532784 5.287095352384293 0.11134496483359535 1.0246200909960548 -0.26034424968485487
Ni 8.598412978108351 3.1369537920698587 8.245209901116906 -0.7058706618994295 -1.5327952883901022 0.16444004488636194
