# total energy = -381170.8990688377 ev
CRYSTAL
PRIMVEC
9.22561446031396 0.00000000000000 0.00000000000000

0.00000000000000 9.22561446031396 0.00000000000000

0.00000000000000 0.00000000000000 13.50261930206644

PRIMCOORD
 96 1
Ni 3.4882694576930957 7.600891608721247 6.15799072507103 -0.45055369022583697 0.8211776967045663 -0.9215227108832323
Ni 2.0303732600800735 7.251803578058897 1.8307254248742901 -0.9128071853871055 -0.0898392295513356 0.35559745116291014
Ni 8.469529350918808 5.977810781783735 1.9656841731009957 -0.7547177653091195 -0.2763874191906466 0.2481111979537727
Ni 3.034950433335795 3.255793195512262 6.298971954505389 -0.46973746224313934 1.9766070319064153 1.1997052743010885
Ni 4.074566490823543 3.956091148193824 8.744161136430293 0.6745546253949674 -0.23055082047250616 0.23800521986802237
Ni 8.698158531813503 7.098086387676062 5.6788372121631925 1.0484017667966847 0.6486263355649797 1.0592284250985435
Ni 5.952670982012205 7.6772796975683155 11.95480048386851 -0.827101518388169 -0.8056914281435092 -0.8051034168505232
Ni 1.7897876826701857 4.065073333405229 8.923800458702317 -0.7115396872597487 -1.439519779463708 -0.11840701388669929
Ni 7.322748554294883 5.672461389916549 4.730967124138906 -0.3049783434544619 -0.9395800826055755 -0.9119036997362294
Ni 5.7140227836672794 3.5348311345543464 10.6584272691472 -0.06909942590082294 -0.9172431096712719 -0.9087918935801251
Ni 9.111235425307164 9.077681865024944 8.396253061874651 2.0234260491424827 -0.869962065197121 2.047544025236609
Ni 2.653886422486979 4.80756924724458 0.594687729604651 -0.6213016796080977 -0.02675927037171521 -1.528216153659852
Ni 3.666877356253393 4.782143453420605 11.371392913229235 0.3814352381616205 1.1991175201184188 -0.3775428450857498
Ni 7.308227436922263 4.587326150016793 0.4900480411831396 -0.38787559447032555 -0.7925268657370932 2.462239568113256
Ni 1.9092501660615746 2.0203081145568667 2.8634462580136915 -0.869872076586476 2.8316677545116717 -0.08164383822473681
Ni 2.996885547516592 5.630595550884182 7.169081182230862 0.19428592460320088 -0.8169086370155673 0.5096093587374126
Ni 6.092088469772702 7.716626943816233 5.235951435351442 1.1452755345972985 1.8484151707188103 1.3892886512222977
Ni 7.247855015012212 6.9550155565359235 10.023196653643112 0.4012026505965348 -0.7889856853530541 0.6065353199322006
Ni 8.73030057306268 3.3710026705753298 9.223842354492968 -1.5802012884778915 -0.30350998643905147 -0.15401627844987667
Ni 8.857983079058265 1.3382399763151365 4.023375400558492 0.1453676016359432 -0.08477415632360238 -0.4676330143056269
Ni 9.32829568549966 3.780998208794244 4.095506790831402 -0.4761431086591671 -0.5354566588178197 -0.5042241831660994
Ni 9.038491454225143 3.105295744623102 1.5934038699081332 0.015789401623772806 0.017831628864782192 0.4898864263871886
Ni 1.6663950874613027 0.4272603533721029 11.878875520874113 2.4709617784776023 1.2693641722498075 2.478209461178951
Ni 2.565468132207956 5.9726075351521235 9.60842316962542 -0.037604183506019115 2.1158278972146722 0.38111590714898885
P 1.3569956507868868 8.074516210802265 13.135010294977624 -1.304005673583077 -1.2869741720220869 1.346544318276236
Ni 5.699926044566032 0.09102360384066721 0.7030195089871041 0.09052340010255379 0.2593420336725856 0.1390311178949541
P 7.4914112403217095 1.4852132424289843 9.613973299365805 -0.808870082981807 1.8027624058767018 0.076679552240926
Ni 1.566352522792508 3.4139848089736993 11.618625545954862 1.435091311378709 0.24043594079670205 -0.1986701697138256
P 9.275340657724033 6.890104132245105 9.0915027582498 -0.9251955317491293 -0.98622863570205 -0.9146221271086572
P 7.29699986396008 2.90217538808374 3.1414924434868072 1.303317903487433 -0.15902710140090676 0.46943021541536567
P 4.7864794922802805 6.442302025415648 9.75453568589755 0.14112785252298277 0.35785410840757076 0.053734513408978425
Ni 6.2944523259152705 5.130871685113746 8.823314141971501 0.3274862947489909 -0.24923451292493848 0.6285791871061175
Ni 4.907242787329573 2.08187064074968 6.214715338970196 0.9913541298540733 0.19560104387019864 -0.15656064213828522
Ni 4.511141024690815 8.151992922171551 2.3759204998608405 -1.0017580987962167 -1.296880118281889 0.8282279186831285
Ni 7.987066610055724 1.0809006828006256 1.8328316326863416 0.8666342863754687 -2.8144573041706558 0.6555531445918
Ni 7.786169626633769 2.751511876131869 5.710838101509066 1.0465778262140686 -0.6036358868972185 1.546773604947065
Ni 3.3391189465348137 8.551185265699655 13.71852672786912 0.9694473024786531 0.13478339836219366 0.10739395060564731
Ni 3.974883725123955 1.1378780785396956 2.4898024089836794 0.8205482906506836 -0.30458547889141735 -0.6718631946057332
Ni 6.563950979466066 7.367225242257651 3.030379141303945 0.9226169723886756 -0.7709645661852851 -0.787931790167243
Ni 4.90101549747791 0.4577805315754694 11.735855430614246 -0.6553135177771682 0.47760220970319683 -0.4099125196657069
Ni 1.7828131180363227 9.19985667910728 4.0098995453194926 -1.5884211052845225 -1.0893201022776013 -1.6775095727127625
Ni 5.35838456664244 9.272480717199565 6.935040255814707 1.1773634162707787 -1.620286072313919 0.4025270258349132
Ni 2.6604181576202794 4.596487185309684 3.829937326536641 -0.7524076291187041 -1.4605876558776008 1.7035011116805179
Ni 5.043006931710427 4.48197885695584 0.04070433415484957 -0.7459024810103349 -0.8868562698492984 -0.3472565353973826
Ni 3.952760701325009 2.630591745634461 11.968532811193253 -0.22434983386811685 -1.087383804486837 0.015433303835934713
Ni 7.789610780877726 9.22773648641354 10.958928600544683 -0.4717452367017876 -1.5915686497745687 -0.265425263752188
Ni 5.96316973142138 3.4775400679190445 4.660726062296523 -1.8674701304677324 1.3563073112002706 -0.6039500757035277
Ni 6.5355084096695055 1.8146783908476487 12.50994722931875 0.7469100963392427 1.162447932611527 -0.4899643308129755
Ni 8.872596452576834 8.045741518880284 3.4704833953152856 -0.6730381887504409 1.3367838964553624 -0.40769211497562047
Ni 2.1837952307958663 0.02972677534819163 9.7275304668549 -0.047257390325067 0.9109775883775343 -1.8780234805035463
Ni 3.710542190131796 7.9441490509595205 8.448792014432039 0.6812821739267879 -0.471614110440562 1.1533896790640008
Ni 7.747292886730201 0.03492725429542508 5.636155828800622 0.2669085331659339 0.1049755709721418 -0.5904911219851443
Ni 6.5090124445525035 2.9052013896709186 8.131129194764831 -0.9785634058473082 1.2756903715781513 -0.21808816922912116
Ni 6.895104415355625 4.849693403485609 12.000399006566036 0.24154382914890013 0.2564287166805326 -2.9391429519772156
Ni 3.1874590682066772 0.6782238246399702 7.254795444872074 -1.3166022793011647 0.5156357674371507 -0.1269749580613684
Ni 1.612425242080221 2.0519519726179114 5.157649954037359 -0.7331791199063954 0.3970929993035355 0.5298367415278811
P 8.723159947366106 3.376907063916166 12.10130416619947 -1.3309361794253336 0.07932470317325693 0.22548754701698584
Ni 5.9720632238910145 4.9491547544349155 2.4305933370740656 2.5596224143398048 1.1915170820633414 0.8743851339654811
P 1.1489026879807884 4.63585288278679 2.1901516792518603 0.42477992369584266 0.5191728340561317 -0.04788653926863366
Ni 1.132573350147538 1.8856510439274194 8.152422835811683 1.0608952712780053 -1.4493182536113682 -0.051194006375311824
P 7.451445877895924 8.98831333644263 12.972749262918306 -0.6996743032807305 0.36493184118995864 0.9319089392135628
P 4.995301278639389 4.366695576976012 6.720199678493784 0.39550637154270596 -0.02477926382720894 0.19744323928525995
P 0.341823781730202 3.5417042174276636 7.189496544768263 -0.28347235106188595 0.472443805430709 -1.2927822940634317
Ni 1.6105339910882344 6.082383123218703 12.07498717800561 1.4216832655029192 0.2821016959666045 0.6806491683284793
Ni 0.030855068013167057 5.074604661698496 10.638201031708999 -0.497403303589524 1.2899880191477462 -0.26543194862040737
Ni 8.30469529494893 5.323945347359093 7.3975719789066305 0.004352620541740891 0.3474275137576081 0.39375827850334766
Ni 8.131668893218642 6.761840412530032 12.325380506291504 0.7154125399515937 0.40597564650514595 0.6967617576196258
Ni 8.942434355061414 1.5397550759149594 13.29282919360942 0.47383477224096454 -0.3223147778503804 -1.1548544365349853
Ni 5.805494752377266 8.730558890271341 9.315376134820742 0.683989545555622 -0.8613648104464133 0.9661670890654844
Ni 7.339539172857886 7.744128500924097 7.815005207612079 -0.04258312477784924 -0.6501530566221513 -1.6252405881057173
Ni 3.378992052814649 7.97503640862377 11.340620875747423 0.35849585575662773 -1.7052443196238698 -0.4710338124570598
Ni 0.580442458108424 7.836938183750367 10.916219540338327 0.12205000995592528 -0.10973365448241748 -0.381112307604563
Ni 0.6387824771231839 6.046347872610411 3.7754812912664 1.1974614725722343 0.7442384630443505 0.7569253144833996
Ni 3.783941179850067 5.695673036237712 2.327905788700868 1.204428390808371 3.6003553517373224 -0.289080955497915
Ni 0.21405270983450506 4.927179340469491 13.552308829709984 1.4814398167362615 0.030609497355740832 -0.4764187309180569
Ni 1.1269918533175287 5.114450091134545 5.923518039891826 -0.3020801959710604 -0.1468372442029342 0.17143421681600798
Ni 2.2030121859973693 2.3824503898712215 0.32607196737060223 -0.7206334220309009 -0.18851508355769472 0.3055157040151706
Ni 6.333190681599913 2.3703094810641274 1.3111877066380517 -1.6257146995286582 1.7543091954713204 -0.26347559622498495
Ni 1.2758748216525535 0.3826498939977063 1.5819668754946414 -0.8323910489218825 -1.095489721423423 -1.0813903059075634
Ni 5.704465046946801 6.730344164302507 0.5934404265113994 0.6208126557868212 0.12011962570243183 1.1479934477490938
Ni 1.0135352450275217 0.07687520129768828 6.111461337860861 -1.0209369857175128 -0.7569888207314833 1.1501441755435096
Ni 4.80984797404956 6.1806635954998415 4.610982470961437 -1.4465828569580765 -2.4226304383620665 -0.7503306919850175
Ni 4.794505776977981 1.4492517967374536 9.203426069394107 -0.6525896910881019 1.0194298050443669 -0.18013457280348333
Ni 5.250426424651086 6.511152787138556 7.315543349296143 0.5096427830785094 -0.030215347241115707 -0.7480349539723052
Ni 7.5669044445530576 1.0380108005482072 7.613641408091615 -1.4435445843523849 0.4738586835003645 -2.1230925491968855
Ni 4.308832522235816 3.6033128716934524 2.2076240707334382 -1.6004780364490565 -3.261717668357202 0.7051782638180952
Ni 8.63577492592173 8.023231019268346 0.8649890116252166 1.0244208305010551 -0.059818771929845374 0.8841008185913484
Ni 0.2817290508194623 1.588826119946066 10.7971270040922 -1.5689208304680657 1.3955780837754352 -2.028436872093513
P 4.282724032931806 2.05988600116966 0.5525949404532453 0.7810036955888421 -0.21026481652996046 -0.8327206643471594
Ni 3.8393963491809524 0.2044248584431039 4.783761626220577 2.074266785943434 1.3236360462194945 0.3515338226164978
P 4.0316581573419334 6.35049793458024 12.851982277623177 -0.5815233712688953 0.4050562200146701 0.08127539914172455
Ni 6.272670649856342 0.4684711737682211 3.440575797921031 -0.1697462875906238 0.46909057268775983 0.4767414043647982
P 3.0631346859236936 7.466428275998295 3.983137882502152 0.17974170824043884 -1.0592726480729175 -0.5847740169957091
P 3.6764719954322516 2.5245986595518546 4.197667556611221 0.42693450814500017 0.08880538897018254 0.4944452494024646
P 2.8601619392178517 2.143165624119237 9.877490064413166 -0.9027382311868775 0.766969328982963 0.11875565547536968
Ni 1.536572238879665 7.573242441779861 7.730682167651802 0.03935253365569352 -0.7063378313438352 -0.6218079298205549
