# total energy = -340859.1379096766 ev
CRYSTAL
PRIMVEC
9.40651200909848 0.00000000000000 0.00000000000000
0.00000000000000 9.40651200909848 0.00000000000000
0.00000000000000 0.00000000000000 13.76738115012238
PRIMCOORD
 96 1
Ni 3.08536405943883 7.4130555265359614 0.9709100375615035 -2.378035682470827 1.5378122819887192 -2.708467175891071
Ni 7.959884271600359 8.541827524867074 3.128871057386155 -1.4826294661689885 0.5494007797027377 0.6528583713684563
Ni 3.9664249784771863 3.2844999122765177 4.658028404573212 0.29800242635726093 0.027156248699817746 -1.4143360811092287
Ni 7.493594079771496 2.4516097396898284 11.412125803892373 0.4657581658804172 0.4300686828986077 0.7421530412702315
Ni 1.0932812296605137 1.9358130767469017 1.8724874992840488 0.2609931961227634 1.3275603209745652 -0.808836144420078
Ni 5.31249680375225 7.803566860053042 10.205015435413998 -0.2579495242004332 -1.1845951581325276 -1.252933794607926
Ni 6.593945893600061 7.852151493019818 8.06132503450007 -2.217219864600614 2.0135414430389194 0.09795543090056678
Ni 2.97807338690852 7.82082780903543 5.108799733387826 2.270930209639876 1.8044878732082408 -0.3513049944351434
Ni 0.3570373209564669 2.5974388906838137 7.443114034695755 -1.7811533122473584 -0.9149376014665468 1.725625711493699
Ni 5.863567885596515 4.911120949213556 0.41524481539952834 -0.15600862628955714 -0.04227819194292074 -0.4762791200163991
Ni 4.007578467195414 5.884770162984146 13.21658917311591 -0.9931557018391863 -0.3938377255910314 -4.375486904816103
Ni 4.395691140227204 0.9297584301456171 5.057199372767779 -1.5788697141506614 -0.5376971181125643 0.2617419013633299
Ni 7.960326377650589 5.031637177203942 12.798790489787926 0.17785760384384852 -1.2827719610152812 1.4045944283414327
Ni 5.384597715986585 8.689585010761 2.993344858664873 -0.23415653554589355 2.725324099547409 1.767586115085885
Ni 0.09972407451318036 4.140436038545414 5.503001241447572 -0.378417020160587 -0.23056778975337067 0.3240502724842484
Ni 0.9695103486194985 6.020957639478432 9.32778578859391 -0.01124086302114193 -0.28873668478461884 0.9117391491339073
Ni 7.172709745909804 0.05225975709071048 10.31147927556526 1.139114400091909 0.0513313032841245 -0.3689389054668227
Ni 8.435214121179671 4.832792926229172 7.839601325100308 2.7514462505557584 -0.6764209891797447 -0.5977758285720157
Ni 4.109855468985881 4.211869088448551 6.710042001739317 -0.02431646525817748 1.894572128890847 1.1568282724319046
Ni 6.235106285000529 0.509993785870864 0.6388874531875242 1.8763684613986265 0.69127579480439 1.7359723448353457
Ni 9.018653009807803 1.9984322251805573 13.263219132949967 1.1854140544893972 -0.9717677230817136 0.24851743225325584
Ni 7.7485293600552465 5.290052866819292 1.8288591573357031 -1.4329745221460224 0.8029465184085205 -0.90711399165707
Ni 8.166573553338786 3.596306962340933 3.6686486812749677 -0.28204693146926907 -0.16557055894637937 -1.2177924708201024
Ni 3.122068268119636 3.353205073784617 2.051504704882755 1.076639164375823 -0.6202009903447513 0.6048016250705455
P 9.087574521085164 6.222162924891665 6.072185502234882 -0.8341427415056666 0.6754498835157271 -0.44850992032293074
P 6.436716050417163 3.9236065371868154 4.972047866191119 -0.9304776060836749 1.0272307891460244 0.6229335587845659
P 1.7113266748587859 7.4530143882673965 3.2708266068591882 -2.406989903611332 0.10018534867235004 0.33873435685898434
P 7.544191706243576 0.9612043987821967 7.92443583223244 -0.606926127612716 0.127242095679826 0.6570479839697717
P 1.2903100238758278 5.059179443482107 11.44894006876015 0.015239442657573755 -0.7300138348045363 -0.28883952891107034
P 4.744428155253393 1.2337392624697885 2.2653532826813976 -1.2975532330895136 1.2174440863417484 -0.31432481766636833
P 1.5489796893072674 0.7579898824683436 6.8979812836921335 -0.3018824781379575 -0.7141696686834281 -1.4021187131074302
P 4.717262149443509 0.32841612778550644 9.91420748208434 -0.9416457068853524 0.49451466918781933 -1.808053479072312
Ni 2.797458955621962 0.08218281148192294 2.5416921397033096 1.8569028964748473 0.22558139228237278 0.06198955432891904
Ni 1.283885376379931 6.345059000343927 13.184139529680191 -0.4355091371878887 0.17111822823748596 -0.09562935387055144
Ni 7.010362760358285 7.183790616700677 5.732434527842412 0.40335286417031824 0.24302504168011696 -0.6554477293621873
Ni 1.5670307852730452 5.570639704528096 6.838505791470966 0.30162819603530633 -0.27625603581910485 1.4852949288162935
Ni 2.7704152344642687 1.6333278797841468 8.397689664678012 -0.9973813098847598 0.7492145761027031 1.414462579384764
Ni 2.011996415062085 3.771747812188628 8.812032395604836 -0.4440320870572353 1.1168285921105152 0.6916313783715959
Ni 1.9002188364475248 1.2700483976588992 4.5396831994848075 -0.386946654898153 0.26982390704051595 0.3139039280788658
Ni 1.023748295122196 8.048258449087843 5.990999780993904 -0.8207825181486768 0.01827540127042014 0.9094876340955691
Ni 7.372165420145531 3.106133637287938 0.5216277595501106 0.01084568446525229 -0.3090633121571129 1.1110166134144286
Ni 8.460470605113027 9.01594393443618 6.454864033453524 -0.8859854372085709 1.1863823319399374 0.18187135298893192
Ni 1.5164237522892587 2.3634989445301393 11.872920711581992 0.1345514848570457 0.5101973700303988 0.03885476808366857
Ni 5.525375570193899 7.628539896720455 1.118410725685827 1.3825562175944706 -2.655309618031485 -1.9480716434708838
Ni 8.610843101261507 7.124877633879589 8.157159516422396 2.282557509466159 0.6487101535280375 0.23821759298914455
Ni 7.1692199300664985 3.229010899716786 8.916953567836147 1.2575669225045631 -0.6670853136011158 -0.7059601362894422
Ni 6.068987288254494 2.3316955284486927 3.5603684437130787 0.11362938999239786 -0.16371705067740838 -0.6537618570193322
Ni 1.6697592996254491 8.71050509279742 13.131781944867727 1.2195757879727707 1.46370177602655 1.0454935920109543
Ni 5.184709342212336 5.9365153838844815 4.740797241734482 -0.8422162625424205 0.08393006315575223 1.7452887371402654
Ni 2.2677594683760542 8.033123371751243 9.426952056962865 -1.1801564056348837 0.6753706935383594 -1.565904669349561
Ni 5.357751531574739 0.3022942447751022 11.939375835489772 0.8733368952066249 -1.0650432320081078 1.340804330468665
Ni 2.966879637977162 6.506512367283277 10.890673005460012 -0.02562412832600748 -0.9940586732694299 1.7530156734708777
Ni 2.180024933684646 4.184148098447952 -0.15462800204473515 -0.5027146885001084 -1.0525934362805291 0.12243207588569235
Ni 5.2625764461230755 5.333078251367217 10.170212282749182 0.6757944113393394 -1.3095307171663642 1.2423333933842604
Ni 7.53621498431602 2.503420806172114 6.406526791744642 -0.9141184479993613 1.0214972290963569 0.07232384637539158
Ni 5.08896986605825 2.08365522124619 7.483341922662012 1.3403708424756722 -1.3160299517374627 -1.1276076850038903
P 6.89619592777014 5.895324269119426 8.93924323797711 0.36460891063290113 -0.07294399645789373 1.2732365107210202
P 3.4707770636107043 6.572461420861219 6.7173386328704545 0.7371599589310143 -1.0213301073908734 0.20368844886402343
P 5.507032872365203 3.8622572678336082 12.013360872019023 0.2784083062754173 -0.18497827404902983 0.7659285464232745
P 6.522145989740351 6.984570105257626 3.333482440688501 0.623717745248758 -2.2948468683564736 0.11866335287187951
P 4.251028396684889 3.345247164880475 8.847882493022643 -1.5327703486894377 2.2984842079987446 0.623219465456101
P 5.491135867580334 8.764667787206461 6.363214508589653 -0.5832079580601698 0.5760371513433434 -0.054872226557847424
P -0.08657565244910291 8.09577073972002 10.181156759120302 2.1368127269964554 1.290743409256532 -2.3994802254978485
P 1.7239125875227832 3.587794069246076 4.273821315202178 0.9837331229737056 -1.2539879469040534 -1.1012165966048713
Ni 2.5651933685521375 5.549898346214109 4.567053326598734 -0.04022413762736944 -0.38696388128933357 0.10493649020409025
Ni 5.613994316985767 2.211358024180741 10.128070169650545 -1.3349861811249912 0.09677066656384625 0.40731339147996304
Ni 0.5778438954647952 9.152836899308493 2.5088982179391137 0.5030389046087465 0.7475497868057706 0.5389430747045234
Ni 9.155188527235248 5.790046590094419 3.455034325617829 1.65181936703551 1.1430163062494767 1.6601060325243342
Ni 5.821944071292935 6.9054895613366805 12.196233806766438 -0.5284005233019867 -0.13994617351005573 0.9364055415323358
Ni 1.903492302521569 5.482764072161082 2.1194883869429257 -1.6909014206386361 -0.16906623080446367 -0.10649123628571981
Ni 4.905514668236171 2.502988106633591 0.17737200670114728 -0.25644311485823573 0.36140942985899693 1.2970102161018502
Ni 3.3502984616671467 3.885801766636288 11.119183513056392 -1.347346759572873 3.9544769896856544 -1.7712337391408013
Ni 8.623748835323541 1.460078747164188 4.643269587704892 1.6079776872602116 -0.8243748634856254 -0.016462002210765197
Ni 0.03496306336383566 7.2881370510666885 1.3920884805458225 -0.5097772517738447 -1.0402027759256602 -0.920438476680118
Ni 2.8782985172321216 9.450346051578233 11.067707318390879 0.7691308554106561 0.6890065391542392 0.6731652012466084
Ni 8.035352715025809 6.8859240169860705 11.217441112394448 -1.8567717702136215 -1.1295105584535579 -0.6933123656184447
Ni 3.9792366474221526 2.1190519247997197 11.899188395523854 -0.3079068299551665 -2.5636492761110103 1.025018611986054
Ni 3.6879075733439275 7.154987877853772 2.959601819869438 2.828729240708638 -1.7750878227795686 1.7581915612448622
Ni 4.16193932430767 -0.032699856647125804 0.2908220630972163 -2.695736358587964 1.076982663758171 -0.5604233560654864
Ni 2.2559166701369118 2.9053140188546935 6.36160411378541 0.36160714769209984 -0.15688562957787172 -0.8917609062397676
Ni 5.48805053174043 4.665789717382677 2.900346440022214 -0.09360666701356783 -0.19353644803168604 -1.461807901437947
Ni 6.323950788073366 5.050262070383848 7.07708032594269 -0.9700093456297102 -0.3198979408787716 -1.564080728766945
Ni 6.54935902810877 0.5519167272467264 4.86967397733007 1.4379177250839106 -1.60564004026597 0.9022049843912269
Ni 0.8071944045566128 0.8593309363439614 10.279607191948351 -0.3838492469197518 -2.115023913256138 -0.8784765304260355
Ni 3.8316296657155395 9.260193417420753 7.947220284889193 2.0170689965762034 -2.801334393635453 -1.1113639694515183
Ni 8.406496040938126 4.711843998700265 10.641263110152968 0.9807059061116079 -1.2829082294828293 -2.220949249736059
Ni 9.044473884443583 8.60912170961912 12.241115096074159 -0.006957148044123503 0.6326466723072718 1.0828303807881996
Ni 3.4935314154299935 5.786067635642348 8.805713101040057 -0.37633751192373893 -0.09540746766773246 -2.0195447118102057
P 7.5247390400334515 6.945740024931033 13.427945965963362 1.0096781249742417 1.1001699005079117 1.830225130073345
P 0.07861209963793682 4.2717133159286345 1.2272036181357486 0.7930068906973051 -0.4279040711471211 -0.5200518942269753
P 3.874250570260063 5.492424559684195 1.3421003960323579 1.2401680103018253 -2.6196198779393596 3.3316128506864424
P 7.4777158880100405 0.5135343968773877 12.786674902709278 0.17892332610420153 1.2404078942267733 -1.6811363708320723
P 2.5717403007002253 1.6691102503176642 13.730952283674686 -0.26769220540949384 0.3678294744527278 0.3700357380754272
P 9.276560747790972 2.6754376857584528 10.047847675208365 -0.6839406945955576 1.523939380661369 -0.5726520369211944
P 3.6273296379506963 7.892025696145891 12.419829411995899 0.44922982920809085 0.33921001094382225 0.513742921289812
P 8.466829407026976 1.4619224234587647 2.5039287578042932 -0.8937499116453382 -0.2825814638165004 -0.39879044161061644
