# total energy = -340861.0352349815 ev
CRYSTAL
PRIMVEC
9.29697076519954 0.00000000000000 0.00000000000000

0.00000000000000 9.29697076519954 0.00000000000000

0.00000000000000 0.00000000000000 13.60705646707862

PRIMCOORD
 96 1
Ni 3.6251121071571055 3.9905667388808226 5.079119319045887 -0.16519646343641226 1.854966855794399 1.2193186776566418
Ni 7.4380416217802505 2.1364904129657027 11.415109158817655 -2.0397420126936874 2.2887692947038256 -1.663646441577425
Ni 3.220349882186858 2.6119561021364865 1.034321489123044 -1.064185769103819 0.8073035098256355 0.41990434077109623
Ni 6.495170717266673 3.7272765211084127 6.757319267004392 -2.201613782632241 -0.5062841510189215 -0.23196621276279406
Ni 5.529512936914106 3.8188237942159313 1.2668647645149134 0.9413086352609078 -0.20444563874502208 -2.6846950131721377
Ni 6.37722004661418 5.973415409653486 -0.0022824063722855464 0.5744145281382559 1.2420654844348546 1.0698614793323575
Ni 4.992687239364159 1.2448086305938941 10.898681015568298 0.35657138504040525 1.5485358390538104 -0.14696605647131464
Ni 4.128106127359814 5.5794283740334585 10.002697524730271 2.1645598152027365 3.1300234504432933 -1.5969147445778304
Ni 2.874102792480012 7.660917906761111 0.8655638018355082 1.8731430124827932 1.0085463253626437 0.9148383568845213
Ni 7.457091115290691 3.5799102343177887 9.134702564987013 0.3718961883229337 -1.7850835005396997 -1.449011263893911
Ni 8.562305726821988 6.548042591153385 2.8295191682099703 1.5557899495130625 1.2343573171573194 1.326384298388593
Ni 4.124043351047436 3.969676445119007 3.0053908976811017 -1.0081501183654895 0.45762293836779255 -0.5157761496697568
Ni 2.8485454192929938 6.875658551043284 11.99849873545352 0.2626397305872509 0.4742433205332929 1.4785524678861375
Ni 4.49391404398026 8.350269709988112 10.981887976021733 -1.4483805722884475 -0.009951454785757055 0.5937322546302612
Ni 8.401663365491146 4.836274999823091 7.196159539052492 1.5077357743183128 1.5898568092897845 2.501049084781286
Ni 5.280010127085075 1.3903062262202435 8.329028920420859 -1.237785626112578 0.16910299757967007 -0.37381294572967233
Ni 7.532740568045425 1.6481391220352946 0.2904857172437326 -0.7663108694633577 1.7759794813559027 -0.1124705937976063
Ni 1.33947968594617 -0.08754213801513304 4.491022686009666 0.11579143064072317 -0.01598583390529505 -0.44509806642790445
Ni 5.299868457069604 0.10197010725810632 4.537395977190767 1.6518833875042263 -0.956966910623455 -0.2052038570672853
Ni 2.6959635317901407 6.0262593926273 4.640074513636524 -1.357194084680598 1.0770595397426936 -0.7105703813679439
Ni 8.404192141594043 2.4490545768607745 6.999388218848577 -0.6260625913318508 -1.5006881234429121 -1.5921337782494192
Ni 8.561338841841467 9.2141721431119 8.161689950902817 0.5952857151603101 0.13853129544040013 -0.8007597951698467
Ni 7.4601498187386825 7.211799833309502 8.356570267212136 -0.42289376241672333 -0.9585375975446845 1.0640489864156384
Ni 6.857138984877937 5.219496143063866 4.170453830112403 0.4235416804133673 -0.10573507484598564 1.0262342295607099
P 8.789365648737792 1.9046611449440636 1.9604643537765263 1.2453330994425327 -0.05070729654688041 0.43739915512174987
P 8.42279538049809 7.761353084112642 6.341323512015274 -0.1684252547863551 0.676035837926184 2.0629706442043245
P 2.0973315712546365 6.618662382615223 10.083482624246923 0.2989673613736915 -0.6147150275295155 -1.6906538234042043
P 4.7686581299834465 7.862876007067258 13.276418528144745 0.3886039879959179 -0.5586924894173088 -0.23707730873711425
P 1.9944326965969728 5.408224653684626 6.777049298789582 0.061899565718274034 0.9537211499926477 -0.7257316624894147
P 5.432554826704061 8.121313205995135 9.059891699013459 0.6216634338228907 -0.49414802987702 -0.989795784228018
P 5.151525988327494 2.098214783496458 2.444793775066809 1.6966686621397167 -0.27293134232124605 0.5704971953617207
P 5.561699050400267 1.93524817942398 6.022605683037449 0.45996778445088526 -1.5259420129136947 0.868136581952608
Ni 0.510115499963078 4.7608486743715535 10.472017916092172 -0.4476077202236356 -0.3010880072611202 -1.094243764831464
Ni 4.03039496250148 1.8210906729258365 4.535858258192901 -2.693994179085877 1.1852109373396555 0.10234044734213989
Ni 6.9710733640728835 7.669006271502001 4.7776278475719645 -1.3921497748201765 -1.7613409055071212 -0.8150720980274608
Ni 3.6978144201154475 2.91605072548104 9.475940446737086 0.7791468448857614 -0.5902558660458868 -0.4814341818547774
Ni 2.2908852098070307 4.6992004598924275 8.742479164759338 0.14576689395689088 -0.7962742485946674 -0.6488255960599794
Ni 4.735337786039367 7.508912431458183 2.968964435737102 -1.530237812075571 -0.28338699043693133 0.9419629810154552
Ni 1.6704704462969235 9.064119031711945 11.531748956563867 1.4398105712312494 0.38414723777614485 0.24968959818448613
Ni 0.6014600991035258 2.5651737442328577 8.49827376898704 1.1543826391048893 1.4014391705419027 1.4239311809968314
Ni 0.42646228490324856 7.022504207459782 11.395243391256354 0.03082906956571465 0.5662921561414377 -1.4924150848008426
Ni 5.845647137660329 4.066002361303327 10.760828319167736 0.006262435969944053 -0.7886133896152999 -0.007143295913000601
Ni 7.485725785867634 3.7443364628320133 2.469572062086831 2.658965212506201 -1.604153942638747 -0.7527560135970583
Ni 1.525214571915704 3.4414783366260093 6.0476703167632415 -1.3541470703241583 -0.24903602376088724 0.15213474515644768
Ni 0.11026393505735657 6.350509849027312 5.097175896057101 -1.5521204710812753 2.183441225488272 1.593088685963521
Ni 3.6277245559987037 0.7540856823699215 2.5326678149454476 -0.7909273824604571 -2.317670551119208 0.041948833627960015
Ni 4.794271284996264 5.489099004122557 12.229287672424004 -1.9673716293510761 -0.310413141316788 0.6339090839594631
Ni 6.309947164700299 8.818381495124363 2.150581831859687 0.4070902197255634 1.152085101319964 -0.3113821900982766
Ni 0.818999922749593 7.506216309877887 0.25193489743387826 -1.4076458135732468 0.24522616309649378 -0.38654350592246334
Ni 1.607232449782519 8.557787398932248 9.197485939621155 -1.0829586788359478 -0.6016705356407316 0.18826182989630802
Ni 2.863773857736186 4.326354736250311 11.024709824293616 -2.1813835716282948 -1.213446535146581 3.8843426947624136
Ni 6.135898571235705 8.905614973703408 6.892069564193421 -0.4507087277464625 -0.33863459805632645 0.6594941315174191
Ni 1.501432920183295 7.59474206742128 6.472264840199312 0.9433380069861109 0.7546084934247649 0.8887429453490501
Ni 6.4378362973160215 6.036820751645289 6.539334118449028 -1.0806068907743196 0.8852246477831464 -0.493234259813499
Ni 8.476132102933128 8.960587963028557 1.0649233987565065 -0.026982699236430954 0.19393599746294987 0.5479668754696885
Ni 1.460451872162787 1.3622014829883935 13.401549249474696 -1.2126276387897115 0.8354246935418838 -0.693393098257709
P 2.5655456230715195 1.1915276899846536 8.894715204942235 -0.7656418684207911 1.3190237442584638 0.1285980954870882
P 3.2731380833348713 9.128240240468172 5.874683437383027 -2.927075222179404 3.510592483949876 -2.2196289882627385
P 1.7362279219432601 7.324674357814263 2.947887272858859 -0.07798412998496246 0.5413514270356999 0.007196003527806962
P 8.325707112694515 8.10230090036856 12.445041547947397 -1.6935352587170576 0.09455386141818553 1.1900476966066666
P 8.48341163119993 4.202184392021204 5.31233104665025 -0.5727978184704393 -2.16337145132159 -1.4491058804902464
P 0.19928336175907282 3.2556597779177765 11.9095360202747 -0.3813370220208594 -0.4569148565571744 2.0047978925183343
P 8.254297078700521 8.609143866551415 3.397723072469086 0.1895563803380155 1.512145987570867 -0.8675544841968931
P 6.764978111686627 5.664821052361129 2.0764645199202376 -1.5522693379543138 0.9139492694113485 -0.73276440096648
Ni 0.8622410644120668 3.5673500265419933 0.7945516781988831 -0.7207673765056039 -1.2026625571571996 0.09180458080782253
Ni 1.5279292874379335 0.23816701312952931 1.6895478307202634 -0.8427587653094518 -0.35738128253621027 1.4470415417620497
Ni 8.615540182576394 5.49844245994393 0.9297017451394737 0.7199559363479019 -0.8881842446321027 -1.521895867868779
Ni 7.399682319572307 8.991816488505165 10.37255055341826 -0.4525344681012916 -0.14708072767230798 -0.44445220531378943
Ni 3.5382783983296227 8.897210511949655 7.903236947124297 1.1912836258962967 -0.48647200138900093 0.3092877694630931
Ni 3.6324102293658393 2.704656199643856 6.821584578810598 0.508144601266428 -1.2598012111517207 2.6641747817315986
Ni 8.874916375571893 0.7455473442342513 11.899833701374018 2.678501739877232 -0.9685546154610545 0.9643032963838682
Ni 5.020940734131474 1.1070461148117057 0.4034996963129917 -1.0807986950701514 -0.1285034788907529 1.3184408751718002
Ni 1.199058236467551 0.8071072374891952 7.215822632646724 1.399180970635345 -0.4794971127330646 -1.9420532051909458
Ni 4.412918832919764 3.014589320755397 12.632097533491276 0.3877820063152547 0.808528640481988 -0.7111277965333108
Ni 0.5401177549691989 6.214894933538394 8.488816890119876 -0.4809549282255136 1.2930422325930375 -0.16723226291951845
Ni 8.122094151556324 5.441061555138445 12.132133396126564 -0.846036150509143 -0.6183824490787737 -0.3041864436807858
Ni 1.13949254348493 5.44239102198666 12.899380800293816 0.5090817683687168 -2.2148925020190178 0.38813064790392515
Ni 7.8247863170173435 0.435478487346599 5.364840338669268 0.39571977310509265 -0.04021462454567268 0.20062317967513835
Ni 6.3208339177021164 0.2011734359565704 12.570797955423396 1.0825894684219872 -2.750855925269927 -1.1676724142352601
Ni 2.0155926025168176 5.377144879743484 1.8823595709895276 -1.255678704342915 0.5087572951497625 0.6784683586270767
Ni 6.561495308141969 2.6390753664458835 4.216731362492549 -0.3464826333458355 -0.7936278121107557 0.7656806920785264
Ni 4.086855467181277 6.486013200864631 7.783535656838806 0.14774664339108104 -0.9064195366932066 0.15760656690429628
Ni 1.5367428159142134 2.2976162167868055 10.561783889562502 0.7717811485493096 -0.9744897499985667 1.221316424812961
Ni 4.235383875342718 5.824691765101749 1.3974035338561 2.435443788076651 0.994328639101365 0.47190361665652275
Ni 6.1902207725931975 6.870582404895554 10.904531599397542 1.5996424279216386 -0.7571865385645863 -0.341294918497309
Ni -0.11631440376238074 2.053942607753795 4.61883372406927 0.7767842581908557 1.610692515088213 -1.204308834511371
Ni 0.7966992784921538 4.723177348015134 4.075000899501841 1.6825425071509799 -3.929423646261452 -3.4872345259502264
Ni 4.239660481987326 7.471826814272656 5.675734766578749 2.5752588353254806 -2.015799385835161 0.23670475588904397
P 4.846222758757289 5.8357272696390305 4.368926496003194 -0.02113163977229264 -0.49076111568265807 0.20734712866253324
P 3.272561671134946 1.160568776666076 12.41027552501802 0.9583306237402011 0.01884515773096109 -0.5870206469380407
P 7.599000080123955 5.428110874582055 9.944962405330962 1.0411103753415942 2.1860670931468933 0.11059960202713855
P 7.243586177044102 1.3719633025032603 8.894143441227794 1.2981368735071257 0.6196158072652426 1.0958139375320612
P 1.8992596048125039 2.4479203464028565 3.4521642750549506 0.5196603152155115 -0.25426744736315565 0.13572082257479853
P 3.122127383925364 4.804470062146558 13.65808335844572 -0.8387815258292586 -2.249496722356448 -1.8826882329690673
P 6.799962613433717 3.5862693624589017 12.86992148839214 -1.0497436255365598 1.0218047330344466 -0.0516632327022465
P 5.078730705659486 4.3112750493425835 8.4401584034752 -0.017771722161124232 0.08398405632213923 -0.22573848668552737
