# total energy = -340858.9112097329 ev
CRYSTAL
PRIMVEC
9.27210114828260 0.00000000000000 0.00000000000000
0.00000000000000 9.27210114828260 0.00000000000000
0.00000000000000 0.00000000000000 13.57065726886118
PRIMCOORD
 96 1
Ni 5.878892332977067 0.4986035345488834 2.7431724733315845 -0.21220779918894422 -1.206322008286658 -1.3477974739570464
Ni 7.966209216609406 8.727133475763145 3.754444392777977 -0.14744479587994605 0.09820251391436637 -0.8250922012676241
Ni 2.652126929770203 1.4783716356621457 3.2574736752548654 -1.892820693417379 -0.8182324980333134 1.8750129758119967
Ni 9.076014828566715 2.9670074873806755 3.242803356696229 0.30800067522055347 -1.2525165045648492 -1.1005990176255305
Ni 6.448913300003539 8.598204908225641 12.951306225454243 -0.7103500378270217 -0.3726302382754808 0.42979588885319525
Ni 7.6346759651983325 7.126898613697158 9.117188521267687 1.226842753947829 -0.6767184658155055 2.329117616613886
Ni 8.040080047071202 5.5977900401302865 6.861188936094463 0.10168353048443134 0.31918857351657287 0.05273461138955434
Ni 0.4753852658706625 2.432276137617615 0.5796973318651728 -0.052156884509213394 0.5961213236877282 0.45024952872185686
Ni 6.214560941534614 7.211979414540318 7.531538674429065 -1.9605273527357332 -0.9693480578966274 -1.0930240334917498
Ni 2.622632375772591 7.537457983851284 10.661433800084827 -0.6207573770688536 -2.6099011079896988 1.9037296270203987
Ni 0.43381936328785964 7.078526061604879 1.1310563407555256 -1.3481114056530394 0.4309533994964062 -0.6109005388794317
Ni 2.6014085360679275 7.415242417600882 1.2138534230668987 1.125883246113616 1.429046647846526 -0.6015136983478931
Ni 3.257622956084592 5.835684341267267 12.515728871774071 2.3053675653821393 -0.20418287200193866 2.723073612950336
Ni 2.643272073100062 7.312952596883605 7.214080472677966 -0.8757125945276532 -2.8268083695368413 0.007868089894167095
Ni 7.14111274487551 1.3529664665902483 4.459671139871466 -0.42458811940001073 2.563125799507373 2.0052599197564174
Ni 7.393796047466812 3.2304093389883985 10.698699302119348 0.03234576332055719 0.5292919247680046 0.863413722555642
Ni 4.085779221222829 3.3795974477031363 12.185894269307466 0.6713425462155729 1.1867327733008208 -0.4286283509076554
Ni 3.2870062448675013 4.6731019291356715 5.882703166580657 1.147803957446107 0.6124416581143065 -0.8231178511500726
Ni 1.3629061591037475 8.362739897609684 3.1578514380601006 0.345701789315753 0.639965317455872 -1.027271669686289
Ni 5.336993648966867 1.838843114997314 9.976631637570383 1.751774859085241 -2.370231613045376 1.142615471266632
Ni 0.14626461519840725 3.341183132326806 11.813013009692385 -0.3246727365595957 0.9858409133453281 0.13640447890538443
Ni 0.9899358873169032 5.454230096859293 5.722854923087216 1.3025763973357178 0.5925248645857215 0.19037656224646568
Ni 0.18633863669406273 7.609400217258222 10.751176613424057 0.8797682526542654 -0.830466321095344 -1.4865020617505174
Ni 2.786192241386511 3.563695017531049 7.697575118280258 -1.9599856212996503 2.054623300680894 0.20868461652703416
P 1.9337708873417194 2.53865495497524 5.866242405275419 2.645926634154688 1.9020334702648984 -1.94787598252031
P 5.999327655792215 4.353149532154972 11.791327419346704 -1.0287865636689186 0.09974826113493143 1.2246092366316201
P 7.094418443105007 2.1136496511121305 2.4288491690047516 1.3734259731584282 1.7365086769547902 -0.4602714317342331
P 6.045651073513708 8.812993133109227 9.067601323914896 1.0801219807181013 1.2429198620153497 -0.6624884382590526
P 5.108816509913978 5.864548392381561 2.5265715526584565 1.127105291446175 -0.25459474879558736 -1.3175862404809888
P 1.8054357342826342 7.671690193289646 12.713045676318863 -0.837916349615486 1.4241949761811796 0.6027066902147298
P 0.38500082312664363 6.875086888621033 8.392650768952311 0.2453277216713646 -0.14618624088249663 -0.8319472765162446
P 5.261231309855113 8.756451859837476 11.221236911561043 0.8626557613436949 0.17672400446003755 -0.6740126368485683
Ni 8.631426846915817 7.97215263349481 12.705310889476733 0.5903098592122737 -1.0091986142346618 2.1995982948641086
Ni 5.574489249751161 6.508885250728643 11.904140147744549 -0.4151639978726334 0.37880782784110245 0.32518721430216896
Ni 1.1328189671984512 5.6922820237171035 12.447984118591815 -4.116082650447014 -0.9901464826992173 0.21257135317595002
Ni 3.7863738005573473 9.068411705561987 2.3503024178950467 -0.8830417811992146 -0.40009270536180774 0.442481968961296
Ni 5.260025936695826 5.162297989781386 0.472544294055237 0.588400815115019 -0.15436054916317285 -0.43964578506408153
Ni 6.091297627845757 1.810915546106774 12.323175145628701 -1.5818231403520306 -0.6229430718662626 -0.39751877398704444
Ni 6.190444206247664 5.378551206658567 9.847792082204643 -1.605205780942029 -0.6286948867483754 -1.3508442312031703
Ni 0.7680915934008798 8.669266292016179 6.785125253692887 1.426439292130666 -1.2395182925329684 -0.8110994865329578
Ni 5.319079949399628 3.469314299158935 8.36612050571642 0.8909656640319816 1.5690427007579106 -0.8230618011011567
Ni 7.3227532078787245 4.262774361512178 1.926273466290959 0.40485927351251566 0.06172267382077756 -1.6830361589579466
Ni 0.6460169630891028 1.7133174086094882 7.232101728619418 -1.364933876527017 -1.1256690732202808 1.5071017402787399
Ni 3.8664198504351805 8.97112881950636 8.015088025428586 -0.10637245131966842 1.0941254940860448 1.8656806426674772
Ni 7.594249603856117 9.114410599740594 10.985270280268796 -1.3078579574496316 0.7618217233437525 -2.0314306646145144
Ni 7.565895518309214 3.359078287691594 13.15539537273398 -0.3989668192874806 1.6620137910700088 1.0487794618510775
Ni 5.739699549383181 0.2616160449117347 6.943155238136051 1.8793020901056536 1.5070991691755786 -0.4442532019291059
Ni 1.6029979482311196 8.569934271589766 9.10768925356239 -0.27236184297102123 1.0529001688876707 -1.2654630374231883
Ni 2.088735515119806 2.494028331777973 11.411294588056565 1.0124711143383467 -1.8176907450517599 0.03212336289710596
Ni 7.9677298412103505 0.9500009473396268 13.410754603738894 1.8285896513524507 0.8169356335987609 0.14595535581861316
Ni 7.937187539774283 9.044712214830174 6.031139307886025 -0.4897385879554146 0.1017658057855925 0.3434502742774149
Ni 7.877465935782261 5.804428088036852 11.336723713952258 1.2895930977021726 -0.3553773647323041 1.4892132900340935
Ni 5.154166357006817 7.740674626405721 1.1061848564288377 1.1883366274528309 -2.1915679683604647 1.3935741659715288
Ni 3.4924945522221322 5.349631522936922 10.458321932274236 0.3814108126815883 -2.1190605452193574 -2.5507760196927687
Ni 5.054027663773804 2.63322111537186 3.512968278937671 1.2002243800293524 0.312508590393236 2.0984549531538637
Ni 7.818328474167433 6.554392723542312 2.9412903874222414 1.064403798651896 -1.1619247131182053 -0.04575046676223733
P 4.329848741775845 5.4960750896889765 8.193080843809774 -0.515026415987926 0.11537722592144002 -0.05622874058574187
P 0.016549773477000332 1.0162501105942447 11.290664551115684 0.8673670507764353 1.377382643813331 0.26572659704269075
P 1.9503679485349688 3.777639481203135 13.257813148448164 0.6468237351386021 0.43466864356446433 -0.01608764959048197
P 7.703289514265396 4.3122502936502665 8.794342301494579 0.5526442263406998 -0.16153546964505727 -1.0521890017532587
P 3.4329862065582923 3.026274758412658 2.3109469842443504 0.589354694387856 2.1695264151793925 -2.3674759046771094
P 4.555837664939569 0.6965100447316042 4.7003600523177465 0.8767348651445804 -0.28793758592209123 -0.4039850984376785
P 6.75530988499288 7.189281310740835 5.4620399877213455 0.8186559587239771 -0.20334726347452076 0.0532208069973535
P 8.134293867621261 5.627414403545052 0.15246208765738367 0.5895285009615588 0.12665614126936894 0.3575412051528423
Ni 7.827628391696387 8.41980040855005 1.519520293689811 -0.2005858986792997 0.8413623991825575 -0.6671637322475349
Ni 2.646526580630135 0.4785507612289728 5.748896546588535 0.9438524847286842 -0.5339080833837774 0.10658508155110676
Ni 4.592981702448036 7.254927787415809 9.617091077198232 0.8726946336369358 0.029070949224027354 -0.9876316866971636
Ni 9.258257978149572 3.3524765516191954 5.839385764076399 -0.09209897211978978 1.4115824296234913 -0.6235025439141585
Ni 4.49903677283351 7.9119674244415235 5.957627307741646 -0.40043929006794904 -0.39974123555965996 -2.0826033308335874
Ni 0.6749626086941785 4.9416776132271005 1.8256331523816591 -0.9004913441342298 -1.3384697687982174 0.28527572281921193
Ni 3.421906045594084 2.0768857697538996 0.40745599787402415 -2.399405406395855 -0.14149114939967244 -0.8948367169516137
Ni 5.429881559041711 2.6302633150809958 1.0804482850578307 1.9818788218283159 1.0539409514473592 0.18908381157697113
Ni 1.8895151481934633 0.446727982613693 0.6876384982792573 -0.07182350970020535 -1.8859897865384745 -0.6312423357605774
Ni 3.436240714088365 6.484814875947818 3.566870712200707 -1.1790539165993243 1.0983354184023342 1.2103864081640185
Ni 0.546126762168928 1.1545805887741807 4.695216817768084 -0.6339214252546373 -0.8465755679523806 -0.4734169679772557
Ni 5.654331313402037 7.658913237801212 3.690838705582686 -0.13394753272445964 -0.43520317591169566 -0.24472351242846244
Ni 0.11489431512292113 7.433267382382824 4.832782347596934 -0.5217177119651725 -1.233560789397953 1.035929602471603
Ni 8.527987285646605 9.039028416779077 8.310901434079394 -1.2913357914248922 1.3014574532399263 1.735942777148991
Ni 0.6551648181579629 4.45315841597083 8.199242155073973 -0.7867053739593096 1.2687635625513312 0.06711479137062634
Ni 3.9016538350912398 8.17990333354841 12.792298961541933 -0.45572674978634414 0.45065781990386905 0.6284547457131112
Ni 2.435298842617056 4.2706927359585665 3.5794103018977745 -1.5103657557419925 -0.24736943469174175 1.4297583292015699
Ni 0.48623084267387123 2.404079677791542 9.463186250590196 0.5129175971750393 -0.5709743921084554 1.3085526695238108
Ni 7.4594703404454625 2.1121568428148607 8.867841320697243 -0.10050622234687852 -1.6802372560565708 -3.015089225596543
Ni 4.088811198323495 1.9457411700235547 7.11558386857195 1.2260233433703271 -1.192207680372463 -1.554621126015942
Ni 3.397807854509584 2.532414830850627 9.496461040257355 -1.0540535657658232 0.31495088128614146 2.0766311724105524
Ni 3.395118945154253 0.2762279492326517 10.951873098865464 -0.7758946564970509 3.0620378264319394 -1.008520871441347
Ni 2.9850695405675185 5.376947133146594 1.5869386689089364 0.7532249828136769 -2.9678369774777984 -1.065135791721914
Ni 6.4351349575827745 4.868919434912336 3.9004920408077126 -0.7351352151915016 -0.12944758797157707 2.710031177944081
P 5.593803036603417 3.334414498432352 5.669251051483633 -0.28365567071728565 -0.02152527566628551 -0.08957337748445864
P 2.2955311887472014 7.679552935128682 5.029923909428569 -0.32699058605949494 -0.8057459355305285 0.8047390915325688
P 8.777490257517636 4.720955243559335 4.339855193418167 -1.1585334280484694 2.7353038364679407 -1.353732608494559
P 1.2482751716556242 5.247480783738023 10.2915798815198 0.2345190610916348 -0.32993192807600596 -0.36707228457172913
P 4.999377899152011 0.5565309869538134 0.4615244017489931 -0.07151729131369618 -0.10952410957477267 0.3908804427349204
P 7.807656285657136 2.111415074716838 6.5459560386374305 -2.423149029869698 -1.9214985209680455 0.5745633950112943
P 2.2944278087013936 1.1625916842328217 8.422465210442196 0.30701517137883255 0.1572329856149615 0.3979892858655597
P 0.3680792383905096 0.7881471483511581 2.0686159826710733 -1.0925290961332024 -0.08879639010911805 1.1581094531371732
