# total energy = -381171.036789325 ev
CRYSTAL
PRIMVEC
9.23688359869651 0.00000000000000 0.00000000000000
0.00000000000000 9.23688359869651 0.00000000000000
0.00000000000000 0.00000000000000 13.51911282519238
PRIMCOORD
 96 1
Ni 4.030781951554521 4.1364426610383225 3.2136549148012774 0.7268894302429417 -1.946300924723706 0.9462250987259188
Ni 5.988022127737823 3.6486705580825443 12.356968709427676 2.147497203293495 -1.4316869136828505 2.2494800101859
Ni 1.688086630099859 5.511260389823105 13.222097981957248 0.01576934701911478 0.6971006290162832 0.45784559590155993
Ni 4.620122824637398 2.640834207721703 10.708448269473271 0.14273299222657357 -0.766207511116274 -0.33532507406711926
Ni 4.039270647420908 0.20196168499436068 4.752467966643952 -1.3235401440715786 0.5364771296625341 -0.33565546082334446
Ni 0.6123952104201118 3.7837784519211293 12.426943643492322 -0.9185556578351084 -0.06495120806040426 -1.4881377975817276
Ni 6.490739508073162 1.50225900938169 4.687455086354521 -1.4968934322871705 -0.5209450954652061 0.12328156837018123
Ni 0.689522263319736 0.05823208416808591 6.2794929078612896 -0.11534817245571748 0.4685812371515092 1.3116709034378184
Ni 6.379943091405777 7.259146603208054 11.300328361809328 -0.9378643854660494 -0.5677815962027705 -0.120749803087263
Ni 0.25156652004470276 6.223562655042391 7.187922842504522 0.9992137351078081 0.44737349272564236 0.6570994060329973
Ni 0.428004848762672 3.9268762499212224 10.038684623485192 -0.07459798712154894 -0.8182209280690876 -0.4107967220428732
Ni 2.955479404666911 4.5656529230877885 5.774972487881643 0.17732898503388816 0.8810234652176053 -0.2951125064039756
Ni 9.042308474388145 3.2059836831178874 7.529375322522018 -1.3820880197088001 0.5488989003656546 0.5618798860063549
Ni 4.1404422315607885 2.6714267656210255 7.255978352193722 -0.16676920724017083 1.9602324472031334 -0.8709128591461647
Ni 2.5256595083114806 7.317846997365722 0.891810933987296 0.07397912259062743 1.4080875290963555 -1.3362866451039697
Ni 9.031723005984574 -0.045059364717535126 12.524930350227706 -0.4968996244802281 0.3699418928100403 -0.7670462049674854
Ni 2.7132975581806966 1.6796071711168945 2.2237861500762337 1.3213858167327373 1.7562922873396205 1.0774197512955894
Ni 5.28539087946316 4.970958130836697 10.944357348426447 -0.6587953056781816 3.725099877806275 0.5133107188483998
Ni 6.35359949988136 0.4465488159241093 11.417106584181905 -0.06862737136041085 0.4931794953161636 0.22220244850781087
Ni 7.023781576688536 6.915192775159418 7.504608466998028 -0.08532411528980142 1.505725942977136 -1.1037239364077571
Ni 5.687195308394482 3.6929429403323795 5.42688238343587 -1.1449328065458992 0.6635027384561798 0.06900146687037795
Ni 2.021316436493569 3.088610605452823 0.6264814576412675 0.8631231878984167 1.2538799605712792 -0.35973898413510946
Ni 8.466739794490016 9.319368792682285 1.3699591281039123 0.4380920674237165 -1.1587455440592755 0.16872144587053522
Ni 3.9637868360823623 9.413862110106823 0.9844088429332896 -0.5703719826377661 -1.439376054796992 -0.1723706125873483
P 2.466608112583712 2.963312281810216 9.905115594424995 0.9364489931757614 -0.43654786286504815 -0.9807534715200915
Ni 2.6645729981206334 4.742012738296656 11.160608492077285 1.0462253279706564 0.018836930200844978 -0.33414853726051486
P 7.275865362204966 8.814887167613016 5.384513722859661 1.4428357312108182 -0.21932075608464163 -0.3583518739795957
Ni 9.19601945144208 2.066734192287944 0.06244040825592753 -0.7847629055209582 -0.6631091025621869 1.3897079981479035
P 4.085667512858197 3.7754744937232156 13.19774955725235 -1.98110749087993 0.2511450996840901 0.7733608343316036
P 4.107540452805538 8.401749082720803 12.435271617587137 -0.006936064998200958 0.10078518703987804 0.16164808396352162
P -0.15989968894781897 3.2902240599421098 2.5965350385099386 1.1653414521092382 0.24126152202179096 -0.24918900439898373
Ni 3.3200222458669937 5.267813090307842 1.3339020299711235 1.1322654954908757 -1.5581085703439101 -0.009484285341351407
Ni 7.643715007670735 3.7863185948626494 4.497565084306606 2.141394947050499 1.6503322409670222 1.4447897696133956
Ni 4.986513042522222 7.24937398054577 1.5382449835121164 0.014522361985891118 -0.7895315305541951 -0.4473542094519328
Ni 3.3267651707663006 0.7147121681045316 10.940490789025283 -0.450367799467276 -1.4177312228337067 0.8803421228798645
Ni 7.9601059755830255 1.0163342831106534 7.688265420111625 -0.8294949583210102 -0.26669487449323104 -0.09632560860662766
Ni 3.887462468352258 7.9266037994052345 8.036490383055384 -0.42738470830854136 -0.3773520692311823 -0.3808292291465054
Ni 8.9356963659117 5.595768636266615 3.369787802688908 -0.527921012562407 -2.3505302779617065 -0.4504243637368243
Ni 1.7157418590704423 0.5883710003233883 4.030466973829771 -0.6052680231840026 0.07043434266216256 0.7010938093360765
Ni 0.4801082607791272 4.682203918128143 5.508552135603274 0.5059393660849931 -0.6756859107859331 -0.21278269785580775
Ni 8.27563791333691 5.564058415473023 9.206637248937632 0.2193593226320609 1.5158684307277766 -0.7194471150322835
Ni 6.3878036791993535 3.0652228166239923 7.508366031174792 0.3741782994888911 -1.1662433950982174 1.122476791535228
Ni 8.860868373296238 6.8251793461953785 13.099249279798606 -0.7457872955887092 -0.3061674786665566 1.9576988821480026
Ni 7.078898060077805 2.7508824368317666 2.7526531473840916 -0.1405552678489644 -2.6094107986168416 -1.024318500595236
Ni 1.4098624644943332 6.698874202259587 9.358645868376575 0.9317870689237179 -0.18687806217490396 -0.7966558003038021
Ni 8.842108263062686 8.098927096557942 8.495585657733915 -0.3801190904533583 0.30727562412907083 -0.820988720622212
Ni 0.477985624968359 7.752747179604192 3.221888672685171 0.4445092838039699 1.2371127684152692 -0.816378218433394
Ni 8.444774485708438 0.7310217331657739 3.5139016578656093 0.30827578325881105 -0.22100251466243875 0.8533787069171432
Ni 1.6354456314681438 7.619283451015027 5.219269573162884 1.3501328069584424 -1.8008608179786145 0.4093589611550821
Ni 6.130852056118629 6.055257402178998 4.892499119347374 0.9464392716192538 -0.10522805330258006 0.8493819270529243
Ni 1.79404291985322 2.502068508047329 6.370828134843262 -0.426642173715562 -0.10588831259439829 -1.5627352704826443
Ni 7.468565224190375 7.329577839313831 2.435833588080942 -0.13636796924049416 0.1971943564992475 -0.4091851545813792
Ni 3.8028064317739694 2.5023363776666163 5.019064743395713 -0.2877982321307495 -1.113157571016831 -1.5786871658262103
Ni 1.7392220167335095 3.2330754621996247 3.808441854350774 -1.0748329644050199 -0.5740712858662242 0.09476649164962389
Ni 6.053252998476053 0.4341113523940857 1.8690168552267774 0.8460117250291108 1.0044947810010894 0.6449414305142247
Ni 2.94397024792097 7.760968005851293 3.099459325033968 0.4688586591826119 1.1285654209314693 0.8164674357130906
P 6.755930431167834 6.0538811065488645 0.7228036779837003 0.058759220317079454 0.5682220261742988 -0.3858644775775677
Ni 7.878165582731307 2.5350996031705106 11.387499601743892 0.3878380563641708 -0.15980023212150543 0.5711309722909776
P 0.7415813382957575 6.253804211371613 1.6335012675074532 0.5110620320235393 0.31487657640478034 -0.6555078931761613
Ni 2.0304978986167352 0.8762828092636995 13.065208593317214 0.6256244753531678 -0.10550830354716022 -0.4861860947174659
P 4.6804119627439436 1.863319545531034 2.9714878473285404 0.9380122238978232 -0.4577725765717794 0.9512528909578134
P 7.24150415586877 1.000345237904214 -0.08141204311988255 -0.5885301416040316 1.728732889664113 -0.7797124875812442
P 2.9230117594325757 0.7105481810571238 6.699585442283212 0.3147004558382322 -0.7988476657487984 -0.19825262256043275
Ni 7.539624568368964 4.8649741304330645 6.754500561613845 0.1418791288667105 -0.10734509964558288 -0.984951054541207
Ni 1.660126583976293 7.725710821822997 12.01335387500069 0.7927436097335896 0.3808032610045764 -0.30492949249439744
Ni 8.55987529005127 6.991572564190064 5.193962359958608 -1.4543586442487533 0.9018797398413241 0.36798991128999203
Ni 6.502941431075881 8.248601555555716 13.483043633430384 -0.17373098326998468 -1.1191448989485178 -0.44397320879484187
Ni 6.202142322382811 8.722352069474304 9.205380109103665 0.28951624326312075 1.0501123217298884 -0.6593537492848128
Ni 6.785239062271263 3.994684211134667 9.723634851046024 0.6577995174238155 -1.050777723228029 -0.7560647662553173
Ni 8.751928570197018 1.9458141513881755 5.617151097704158 -0.3384013989995978 0.3515816451352977 -0.7654174111148109
Ni 1.0864329914131778 1.6704811302942706 11.001299963668583 1.055918386888704 0.8637201980524672 1.2955056065318657
Ni 1.3291321033711203 1.5605529806687146 8.448039723998718 -0.1170075624360114 -0.5487418059625001 0.7642509016105353
Ni 6.273598852548621 5.055466377280207 2.782300772109169 0.4293364327182735 0.7975526010864586 -0.5517101445622047
Ni 1.5617075910966784 9.279650193960336 1.5972557369528209 -1.953940700657151 -1.0666820531631114 0.18035414501345712
Ni 4.1544361099477065 7.171100630413264 5.644391590609017 -1.1340984349345566 -0.7791198483025679 -0.2659983626468386
Ni 7.821174012007025 5.126276325606356 11.697411819622793 -0.15253558013929214 -0.06862145782313989 -0.2332641056386112
Ni 4.296841141691022 5.925165136039487 12.722403833566489 -0.45641169166851076 1.4441752759578483 0.6352272885502545
Ni 4.468009828415765 4.234981733402446 9.12997019283251 -1.9027495224953166 0.13957490621356608 -2.8748885128735195
Ni 5.569101753822369 8.099462835796517 3.674725035155799 0.7851938224107896 0.6973225152191024 0.8526906797111832
Ni 3.5185598181761857 7.487519308975824 10.437525860214189 1.3858762831066391 -0.07920463265562488 0.145999064572355
Ni 2.2489317178205956 5.458212968320747 3.4491714262089443 -1.8687749653220849 1.5092722655674975 0.6847716751372853
Ni 5.5572877799234455 6.516861414395409 9.18629116582023 -0.6294690459102384 -1.0372634907916782 0.1192631912394075
Ni 5.496435191928054 8.93455099236716 6.423876480033963 0.5804481359268455 0.34238763734085553 1.73668865417608
Ni 3.7696367833994318 1.180085752446159 8.742471848947826 0.39644148176246563 -1.569461533462884 0.7537998814805406
Ni 7.589078842219499 4.0779824258496715 0.8179334166761325 1.2127410244391243 0.18275709802799495 -0.64675148713977
Ni 5.4364693447413375 3.238340485751139 1.413558141552159 -2.1095433497575407 -0.36590706061903433 -1.6854134009408717
Ni 8.683021419856153 7.504856939162125 10.850899485633706 -0.23009779209548759 0.33897501211488074 -0.9450732445096626
Ni 4.719031372338469 1.6491162189352324 12.852931156915256 -0.09902141027123591 -0.206282949064077 0.6970795459703607
P 2.549065770907158 6.1226589405217995 7.342243453864421 0.7669497885989373 1.3256271085075944 -0.6478439488730003
Ni 1.7730382469477066 4.225680191794771 7.979683549999575 1.20240287573791 0.3355392469604544 0.8880670023279479
P 0.7096069426362478 5.7756292302930685 11.143574755355624 -0.7323041735006098 -0.2664035685050573 1.485169716092339
Ni 8.63970043659896 0.7581051990524297 9.987095705875436 -2.8616928401188524 -0.7678388760721099 -0.35400619541639033
P 4.4127825024254115 6.232439300012575 3.4483197855572785 0.1845185608037919 -0.27162984990100314 0.5525490955237322
P 6.576079074024806 1.8448365418001935 9.606275628706095 0.12975971989535717 -1.0314222015195527 -0.8723333936427751
P 1.2163959411847574 8.896744428513921 9.722567067322244 1.3358603561998286 -0.3271044859295399 0.9095213155469821
Ni 5.071326106118714 5.341541893795885 7.054773167951763 -0.3152974659922828 0.13080024534472956 0.2925285477268833
