# total energy = -381170.2947219616 ev
CRYSTAL
PRIMVEC
9.25985679908904 0.00000000000000 0.00000000000000
0.00000000000000 9.25985679908904 0.00000000000000
0.00000000000000 0.00000000000000 13.55273642613309
PRIMCOORD
 96 1
Ni 0.8870933357056322 0.5972709361458891 10.60296916125236 -1.732259671870449 -0.8695751141713475 0.6426912010274672
Ni 8.58338703024735 7.791169259216694 12.068156270098006 0.8304089854948474 -1.349365589775115 0.9921863959473816
Ni 6.124441371605796 7.706654548084581 11.845240038371504 -0.08348294831600461 -1.0049089857203726 1.142978511033006
Ni 1.875889528352891 6.851303074797023 11.506408921803125 -0.14999610154689008 -0.2693176568280587 -0.18176979441406113
Ni 8.692579259202084 7.946808928846205 7.548481381690991 0.4759659596513546 -0.47041366237455756 0.4274669836097025
Ni 7.551005618598475 6.869785748558358 0.5838311802855681 0.18156976258811308 0.6346662738404618 0.47873940863143355
Ni 7.38488379130472 9.049824526593003 10.486904266733665 -0.04695502859329977 0.17629154490830928 -0.1498734599260967
Ni 3.076485494885731 4.350502864351246 1.914202185009965 -0.9514927748827613 0.27647689358065936 0.3699346937211887
Ni 8.249263624771284 5.364207145250314 8.637633122145468 0.21524658601526803 0.6774491733339429 -0.99904558496106
Ni 1.1848819898930687 7.293155651885994 0.46717272895920703 -1.6253676006018845 0.2554522116998762 -1.3173550983067892
Ni 5.286878082835033 2.444324345079856 7.3486999756785725 0.055525029650497916 0.43532041821585027 1.7164556149586567
Ni 1.501541305833122 6.354965501509811 8.113141880870302 0.5803617468606262 0.5015517785402588 0.8971093150358743
Ni 8.154350094684274 1.6020663090160099 9.264609678244444 1.708318073453187 1.0171278963840678 -1.256508399333062
Ni 6.302749170177064 7.039111486233587 7.94107707761461 0.2091335311389947 1.3983438194460305 -0.805043253036549
Ni 6.869026440317661 8.43957219748819 6.128574045603633 -0.5629692624157917 0.8632494290636359 -0.9157873510613518
Ni 6.751361442579548 0.04841979012926685 3.45869903959632 2.635924014416022 0.19674107101191277 -0.2886785778531738
Ni 5.691719013118367 5.372503976758408 0.38704348590994375 -1.0550583528812538 -0.64007304667833 0.2512291747574641
Ni 6.621973466393615 0.2902409450777854 8.355546406784233 -1.0440517173581052 -1.422512189162118 -1.881190051156986
Ni 4.612362348968867 9.336713403583813 10.00490095145374 0.9475299335802713 -1.6194419791460688 0.8869768545875628
Ni 0.30899308066600084 8.077141410404712 5.199452998775471 -0.4717429227089424 0.6578856493797186 1.4987040031333478
Ni 5.4362673492636935 6.979366891490036 2.271817846664638 -1.26109164782837 1.436986728629209 0.8947292448394719
Ni 4.24119025726079 6.146646507717859 8.872379746656282 -0.5758713151894405 1.012161810628044 1.7984252119539283
Ni 6.63846527098727 4.639817823769646 5.225447268205741 0.3619269929253638 -0.7979706624604839 -1.350557810311003
Ni 2.927040669317508 1.8533788169732297 7.056164438136831 0.22837772408058732 0.341227041373851 0.17886676183465325
P 7.588304320958522 2.016833805567955 11.120006217969475 -0.9190135713081334 1.076980863985958 1.7985488820159865
Ni 0.8953429419450974 2.989600260465591 3.3791170540717537 -0.3415967660084439 0.11866540975440852 -0.3914553414017839
P 4.2599785062897215 2.3837556230994523 11.55336843254754 0.15695839179733614 -0.05326168753761795 -1.3375498280871092
Ni 7.568756763688895 7.183593028667503 4.2058879799823785 -0.5263153586381839 -1.0714871878612384 -1.3729024965547902
P 4.2868691298382755 2.4262120655822765 1.7965918204257556 -1.112550790670768 0.40242443881877793 -2.1490912872534924
P 4.210456793225786 6.962356534927125 11.230353151041465 -0.8405905540135393 -0.3174096272392791 -0.6565880136142176
P 1.0222140891088212 9.184555440033591 12.702166613265677 1.037413386105981 -1.0454563110151156 0.8112061873141513
Ni 3.1871407811822965 5.761473512839874 13.28857944156961 0.3028507555884978 -0.04898311476692209 -1.1792601190728593
Ni 6.497567293055175 1.8240991504234607 0.7350418605062392 -0.4126353179135087 0.17932853196242018 1.75825943836832
Ni 2.183418625691403 3.557257249238673 5.5434353735670125 -1.213174255321801 -0.7246289163435391 0.10595438994564332
Ni 8.279358158701314 0.7433451739139488 12.738718045198597 -0.7499946488018373 0.2155422628788159 1.1988778933037867
Ni 8.506011668549098 1.1865024647969933 6.954071741232602 -1.169853481046979 -1.3525694414243932 -0.5311996833136786
Ni 5.808319127348185 4.8511184913848195 7.6320738111063555 0.75320287132649 -0.619700653669565 -0.5381509178205313
Ni 6.365327281038335 3.3102135351712207 12.598501592711811 -0.7411940197910719 -0.871849254917505 -1.7588482209922547
Ni 3.0406128104411376 1.8038108046263248 9.420913279591735 -0.43768017669727854 0.1920855745177724 0.9760522093896804
Ni 7.41236704567528 5.390181042996078 12.2962756152446 1.263421067292495 0.5782099906249462 -1.0585987619343444
Ni 4.837849116885825 8.411866706559376 4.392157403253043 1.5850519317019736 1.4196502942332905 -0.08224316237163255
Ni 4.2137810817429795 6.920640880971808 6.698778420925684 0.06986304353972485 0.19238973602175252 0.3298807631230964
Ni 3.9877850217133592 -0.13510408566131996 7.853322342660307 0.32253846382541224 -0.44374463772380357 -1.7735173929686552
Ni 5.0970510226610095 5.014258644855354 11.402905948739651 -0.7511606440854806 0.305212570952455 0.47496888584540775
Ni 2.8253952234867636 6.658068387396462 1.751149074191413 1.3507465292830414 0.8433776298403732 2.2001004313115073
Ni -0.2044067043810482 5.243162299855444 2.049173854721993 1.6895423355075807 1.5781258940061016 1.2024668962066258
Ni 4.386514446644748 6.147081720977771 4.561769270497022 0.4926627035807451 -1.2904101942868293 -1.0596269460885428
Ni 6.77848356254295 6.622992050618939 10.031735089877072 0.6003024516486112 -0.9925970011222389 0.6156072003264816
Ni 0.7052714215569958 3.0386312011300527 8.012296486649266 1.5709694854669782 0.26560524097347804 -1.6358170780699828
Ni 0.7329713565718532 2.9523293376753257 10.206660262834605 -0.21451716404841117 -0.5774065208870443 0.6558213106515222
Ni 7.564654647217817 3.386598092213929 2.9542526098898696 -0.27418192689889553 0.04237923629715927 1.1574700197809615
Ni 6.5436535993227904 2.094903656510745 5.4726493258209485 2.143640805661882 -1.221855842256199 -0.9239220643533442
Ni 2.406220035196144 8.50567831371172 9.535745687197789 0.38999855435059927 -1.6297179071507806 -0.19790963739871723
Ni 5.612741696229379 2.0339645402665862 9.519427967908097 1.2185686868644947 -0.3288384379015111 2.1947165412917746
Ni 2.2987131001414896 5.917826191427113 5.649010702536189 -0.21195711663071884 -0.08176236608047209 -0.28321138409101543
Ni 2.0484284362661875 2.3673934564981107 0.9268542339339855 -0.6622251572953369 0.62450527414706 0.7653024828035013
P 4.676357217888997 1.1337212822120208 5.818772579456988 -0.4683004726862967 -1.804688676365137 -0.5572377592486533
Ni 5.254292647481258 1.7283337135298142 3.399554483560051 0.8798962935916975 1.6389733643107773 2.7396389735081845
P 2.8236265908773373 8.622889578476734 2.829757541928129 0.5438176291880054 -0.3803983122566739 -0.15943976345829317
Ni 3.816996226696301 3.435767930727298 13.383245733485566 1.2984492625412218 -0.1624350986411912 -0.37759709536245295
P 2.2481079838560727 4.416720098853902 9.332142738369086 -0.7455168155361419 0.28363947276736956 -0.7470671907423972
P 7.466157552628983 6.211585882010563 6.156357319327835 1.3383715526574562 1.569515269518955 1.9285166041570916
P 6.849904836451351 5.59170330204814 2.472845629374589 1.9446950136891672 -1.9792503830665333 0.3672448055938514
Ni 4.734601715864344 3.455824780109588 5.343790087446524 -2.0176063571369123 0.6868740661922687 -0.9668024086566381
Ni 2.265507254395926 4.159897976223339 11.534787604306311 0.6519651701302256 0.44379785955924217 0.7256213621637955
Ni 3.190511368982459 8.749184762560319 11.816142790996633 0.10763434875122754 0.6809178486088338 0.38458432531356346
Ni 0.008807049606415318 7.466481647609768 9.951231748621417 0.2149470524969782 0.4336090919516984 -1.3517163493954785
Ni 3.0947644518020003 1.6440875382389233 4.464813016045406 0.13480499562874848 -0.7200253561332568 -1.0753420428309546
Ni 2.11641430337827 1.7830316864297147 12.047298443120349 1.1520069397838613 0.7094504088308878 0.7255555419228665
Ni 0.3485734116907739 5.269997364264436 10.562717490624532 -0.37082558096657425 -0.21752689740901246 0.28589124491602375
Ni 5.590684717822817 0.6298702612845549 12.212248898554984 -0.07544105184813459 1.4465394053146508 0.22985045197137188
Ni 8.650446911700046 8.806994047275754 1.6692363827621735 -0.5398524738926702 0.3781511680937101 -0.3879115899145835
Ni 0.9933788956755573 0.6241735975080155 8.363339502093622 0.25755871651991774 0.24454507786906915 -1.2816615015599218
Ni 2.820265262933768 8.056343772494914 5.016395819757215 -2.0773014590046994 0.8916971428813675 0.27913464291848056
Ni 4.71547085214144 7.807123992127905 0.12628962816962958 -0.6608336762644491 -0.36843214103373323 -0.008924556183139467
Ni 3.066984882020436 0.42465331945154444 0.38129033700818166 -0.6749109802931216 -0.7636636616484977 0.6551104006274265
Ni 5.145943065476564 4.176824994076906 2.9138787091550027 1.0763195762528754 0.6262065731088827 0.3177726670056527
Ni 4.905909062850659 0.21456198910752877 1.8576596486765686 -0.9418467671525651 -1.3522400831094326 -0.25284999819033877
Ni 1.1961234557980085 1.2433024251436988 5.6681878655420626 -1.1484685876132994 -0.9731733451799887 -0.48636581482843977
Ni 3.4947069179471844 4.251589076215689 7.283646705149764 -0.886813589536821 1.098750651562882 -0.03521048646286194
Ni 1.2136060650472065 0.7972968023723845 2.6486384508949663 0.10898700612438006 -0.6059737910017757 0.6189041259101986
Ni 4.39033876741801 3.8652493394068785 9.344096287246096 -0.3294665584038132 0.3057730714416153 1.3134323662136154
Ni -0.07026656979114852 2.908243160431983 12.436030926873013 0.3734365362268601 0.7303087403371358 0.3484125033786967
Ni 6.921085354088313 4.041677387089594 10.205495372875099 0.6507294979509116 -0.3976290743126636 -0.6241846575828476
Ni 7.8833603914651125 4.035176967760709 0.6880286425935789 -2.5223002808505783 -0.7276345359390823 -0.5924711285296507
Ni 8.945049249233536 2.17673300923064 1.3962567363609928 0.04520410734046408 -1.2921958254323422 -0.19582421562459823
Ni 7.727498485277348 3.240449775593118 7.649353629496148 -1.7563246832394526 0.7980323689363547 -0.4127983258539343
Ni 0.7640418793868737 7.512299418036162 3.1400877458862824 0.8635453630375 -0.7655354247499139 -1.5896552348019397
P 1.7722346936412798 8.495751747443107 6.901988751834807 -0.05464571236933815 -0.6134906682041111 0.34189064309977896
Ni 8.722145981306262 2.9745992927835467 5.496054539347576 0.660535685408056 0.8035286161642355 -0.6284290346814982
P 6.63373348426781 8.929020437469575 0.6652262457312114 0.5022709160944705 -0.8159717270235948 -0.46937776491087546
Ni 9.211992395121184 5.2108083609165154 4.5061767954501555 -0.30581266643029914 0.5483805659683394 -1.4130986091577018
P 2.0306309918927985 4.7173043037470235 3.7853738164282866 0.40021791808576235 1.772572512556883 -0.44248274029224444
P 0.2505430138742704 4.904084871101669 13.295504888316154 0.9517655689281739 1.8635137169231457 -0.9784585048383279
P 8.669346279008103 1.2964447421358316 4.01513400816331 -0.2271680200432023 -0.3691168258055837 -0.14934047024076216
Ni 0.4657105976030373 4.97021876689498 6.621622517828708 -1.592761384531089 -0.4455521232461875 1.5766606223144848
