# total energy = -340862.35743244994 ev
CRYSTAL
PRIMVEC
9.24653336392127 0.00000000000000 0.00000000000000
0.00000000000000 9.24653336392127 0.00000000000000
0.00000000000000 0.00000000000000 13.53323623201794
PRIMCOORD
 96 1
Ni 9.49729948778058 5.951327863074654 12.443810948501376 -0.2058576886012003 0.32925547083427165 -0.3303715867165859
Ni 7.947561980234235 7.433057116733793 10.662647501921649 0.37894641030149573 -0.44729173164511354 -0.14532466421314974
Ni 0.8779602050633456 5.708430674582065 5.054839454185451 -1.5956063101790519 -0.07147024012584464 -0.5017371550781875
Ni 6.401134731680633 2.809207835483287 9.01447509735537 -0.07606403014411416 -0.695062515540332 1.1060397290251274
Ni 5.292151736444475 6.576495239494481 0.24468361876464995 -0.9142369758550964 -0.117652652219178 0.07983635270235284
Ni 1.342661389829966 5.389046160983431 7.359901317647538 -0.9481192304248381 0.033882768790373906 1.4890474538801903
Ni 6.061620514654067 9.069194233297411 11.584517645266375 -2.430105406582873 -0.8434272521313863 -4.343240900298204
Ni 6.663024299980744 2.543185066708998 5.907041590879852 -1.506508329669115 0.9517056622245158 -1.348342033606607
Ni 6.074362237816075 5.022911174012436 9.47170878166797 0.8297872927504484 -1.4577596995105024 -0.18439771895521145
Ni 1.511651036062809 5.627948847004331 2.073779245697944 -0.30194906970983476 4.049546100177361 1.0289824817298086
Ni 1.2617912078452622 3.9001508438623502 11.353775949711942 0.2636802560366233 0.12786378842422494 -0.6325070614056139
Ni 1.607907449790315 1.2257297271980698 11.005809476413683 -0.42228158275402117 0.6706280366470515 0.47315394412385614
Ni 4.200034418311003 1.9032232366903228 9.674599918322576 0.34576349579162385 -1.018301604977195 -0.9610678201657059
Ni 5.270699778726145 7.096326106290509 9.191557309706782 0.016526279789797343 -1.1066413671648685 -0.881680896295946
Ni 7.210308124736135 7.721280812439852 7.721414887175592 -0.9046022809788099 0.82153276605114 0.07032918454286596
Ni 2.170614492422505 2.6014752138884596 12.908135799354577 0.3191847168618309 0.2705083347020502 1.262817629380541
Ni 3.7126218979634507 5.167286548070196 12.551440598432997 -0.3034901889447095 -2.0490265233194065 -0.015593483562882822
Ni 5.367409272595116 8.477351363608989 4.075804466788124 -0.6176566266563427 -0.04027581680091129 1.168382295818091
Ni 6.821306460421421 3.841083987868949 3.496988113493489 0.9645982019164678 -0.1906753244338071 0.15157270200539058
Ni 3.4744404415554944 4.86630263613513 1.5683803683875923 2.244119260094619 0.08927281552490432 -0.5407094225763268
Ni 4.564810164857603 2.2425710161139025 1.2005005605452839 1.118367397352545 0.03305975866844629 -0.25996681174077807
Ni 5.8735645163457075 1.1563252467524732 7.55524081039328 -1.6325034403157175 -0.8264528290605767 -0.36551239628377696
Ni 2.165769308868882 0.20571595263863382 8.703184074528656 -3.797550222457202 1.5097278650476773 2.498295176185233
Ni 8.993788752610781 3.8490175136113316 0.32080847975752314 0.2558525324620884 0.07573210072599215 -1.908406720781094
P 4.4794091814582515 3.135434783871388 7.927688405784233 0.6148849774484765 -0.6747798540318959 -0.21251684578893076
P 7.254312377659209 4.772394841916441 5.394131754408035 -0.0240909795109327 -1.019088105434232 -1.4080456201148266
P 7.449543685963009 4.764794191380033 11.290955001117833 0.9669767294509735 -0.7181458797223568 -0.973448453218246
P 5.472671809950921 4.290289831797476 1.053202357248402 1.5318866605329036 -0.0711514233338452 0.016952825804254675
P 0.26947172576952005 1.141068466478661 9.317944477495043 -0.8025654809200178 -2.2043782327512553 0.2624044746479932
P 5.130411372475067 9.053179237276657 9.055548199159173 0.0891997961951238 2.5151937517127845 0.6676149608523406
P 6.748536241782086 8.91982573115004 5.759677737195125 -0.6920062452125114 0.662121284727621 -0.009999020194240845
P 3.3516372301515553 3.1083239476514986 11.116146511353893 -0.3399088367830598 1.2463468854190276 0.9630059177286834
Ni 2.6615776816337804 4.942642016705187 4.117243731318498 1.9023407170926723 -0.7487024123529751 -0.3586372664304985
Ni 2.740284174779653 3.828582674577922 6.34711463367114 0.5604377542431896 -1.347200978023628 -1.3622450168409443
Ni 1.5870287771489406 8.094896245011764 1.9583945281204775 2.0649221115037406 0.15616957734745363 -1.1822994201198154
Ni 8.45896000847892 5.930893024041246 6.539679241713748 0.22797688909774286 1.0301405065936518 1.3926249146843823
Ni 5.28784285183381 5.680552376081735 3.57056832846736 0.053418524830456386 1.1835119523706779 0.27546156494226753
Ni 4.2206079553469005 8.709633531644403 13.443118960595873 0.07130928906794816 0.13565834476797925 -0.49485996834238
Ni 6.561145993885676 0.9700353363424771 13.254329712181022 0.34498599419565107 1.7328245432349834 3.066816735877821
Ni 8.582197806957325 2.9686180730108758 9.95069123742423 0.06822679348788249 0.7491135317484646 0.9052681966975827
Ni 8.711399619542766 4.925073603056554 2.1938186682389484 -2.389019178065524 0.15181464281286758 1.6901177483950762
Ni -0.3347448550476381 1.5838942022926845 0.40567408886726586 1.2057265407945041 -0.32886749136723364 0.6784251640939671
Ni 6.827464651731941 7.31582956502992 1.9995489994190734 1.2463949650481438 0.09315775240160731 -0.2803137508282463
Ni 3.621414091526552 5.647153897082337 10.242522005848361 -1.2740613206151608 -0.5234773749687566 -0.4252998007550546
Ni 2.0437612993458814 1.4177247487771216 5.001220655729825 -2.294542449742177 -0.7868177311674578 -0.4338219792934529
Ni 1.5718829552771199 7.743047152297159 4.3461176271060795 0.40299419527931885 1.194685195378678 -1.0055890425065326
Ni 1.2321838075805671 8.452783324101402 6.654075504860141 -0.4671838425833502 0.8964997064763336 -1.1736952233905722
Ni 7.190270886643195 5.460466385731871 13.212173841304454 0.7501864530976693 -0.6482087884115869 1.5638729836315133
Ni 8.551739725610696 0.5612109535120063 11.884482589209822 -0.24919131839182887 -0.5486111939219067 -1.4039881622160013
Ni 3.850663396574203 5.16544648790384 7.891175694302276 0.659536040498948 2.1252880141863075 0.045081465719670755
Ni 4.562489284949283 7.975662195538548 2.0373340339105317 -0.7542351692457462 0.4667745229600735 -1.6151214973938441
Ni 8.67152856709387 1.6596602977857857 4.919696743826723 0.1521979942942153 -1.568715656435795 -0.3146045536903162
Ni 1.5950085355588193 3.5168173045826947 1.956513783206724 -0.6557986849437027 -3.9904878605626246 0.41626237314313475
Ni 4.199516612435043 1.5541203644250026 4.767935238809738 2.4738344720397074 -0.17334043269978533 0.6506860463074858
Ni 5.530314699785432 3.7289327830561807 12.338982073566688 0.8128699481698195 -1.0505388677443457 -0.44253930456179275
Ni 5.713775170944649 6.343223692374643 11.277272905498949 0.6645304083897459 0.03163562462741003 1.7831114644149935
P 3.465868905001662 8.855784240134025 5.714097874963774 -0.08635667031937386 -1.0023144855203188 -0.9858848792093861
P 3.4404594309456398 6.793687064859072 3.1873475968963962 -2.390410401986096 -0.8621896203405539 0.9771647257275687
P 8.869265685975975 8.707257172535089 4.8809241795575415 1.288256124058304 -0.0018046573089065695 0.16272023398177782
P 7.902078281951277 6.0534465790407035 8.81591596164518 -0.2008581785040799 -0.2753600063673967 -0.6367331836718195
P 1.1117754483529416 9.546768442001728 13.064891357114522 1.6567854527915338 -0.21527306837782925 -0.546396188548459
P 9.092190362110118 7.165712093669107 2.2253650665784424 -2.3292631410528144 -1.422056589681938 0.9567925898291199
P 6.941650093914552 2.0376031080353605 11.289452439424199 -0.7010794111583732 0.07367830352075698 -0.4135388035643846
P 8.893500850277588 2.6402274357839426 3.0370609139725473 -0.17844355825430558 0.8428839780334065 -0.8310070240901624
Ni 6.4952829357703035 1.3380936022813217 3.9754287223866895 -0.23173944146396863 -0.33381326540828316 -1.0946751959419274
Ni 7.945130141923925 3.4402097745411595 7.423155928662763 1.950362239277273 1.2279776388832206 0.4116415865416717
Ni 3.4663034920761278 8.023623964799313 7.960966679848142 1.1329411814016617 -1.7858265493533114 -0.8549514507209018
Ni 1.5082298186680756 7.90166218794381 10.931390600851428 -0.7907602607549736 -0.8913287037983553 0.2835481986051439
Ni 7.196364352219221 2.342470564040125 1.6330154868542601 -1.5366627417653083 1.0984742579730435 0.7330549356237053
Ni 5.179667656425732 7.519012892143101 6.48056615305285 -0.4368139720422412 0.4695870527082042 -1.0038975137367228
Ni 3.4194050741677793 9.140725416447841 10.555058536737427 2.604148521776638 -1.949805852553171 1.1067784069633648
Ni 3.101990072204492 1.2006068956805256 7.029717777575095 1.1684781979660068 2.0892735437649117 0.49598919685081677
Ni 8.806343025513375 8.266114305817934 0.3653268399431571 -0.3193605803180629 -0.7223707164369817 -0.792544606348906
Ni 0.40610405267498245 5.3390871404868205 9.886192043000003 -0.2685748651247632 1.117721793348746 -0.624327353808299
Ni 8.118872506375398 0.6140336254333439 7.223893131753277 1.8126200153970717 0.9066913022973546 -0.4998756763894165
Ni 9.374690453580126 7.876132508952297 8.564495318572954 0.2252540908499411 0.2152257600796616 1.4739514787790162
Ni 0.7617858335250405 3.3342075145054126 5.44917082040915 -0.8287308264614759 1.2861529616723721 0.47515786192776227
Ni 1.0833700974431533 0.8587246414247933 2.756788312422518 1.4277983772617218 2.5932431877180435 1.5452710522596096
Ni 7.3267312280255705 7.17273945912856 4.4244755259390285 0.7350202868801922 -1.2193495308945774 0.29501634714574354
Ni 2.696631290129551 6.714989818246699 6.098942297817212 1.9343422096999332 -0.5417206374496606 -0.48048055969225645
Ni 2.600726244675018 1.1063199935883665 0.9404556756782799 -0.0868202402193537 -1.7625554946405129 0.7848176700182935
Ni 2.6155484378743643 6.851672076433057 0.1717774760828761 -0.5341281698143834 0.5818578717901786 -0.3164354362514679
Ni 6.1512749034630865 5.541558484520556 7.059112507569307 -0.33881920326330683 -1.0770461700062548 0.3179166487826847
Ni 2.3428219323130977 3.4211619155326423 8.525356591577202 -0.6316817372908411 -0.477334557864107 2.462022309896128
Ni 8.313428817733751 0.19374446571711587 2.449583332749136 -2.3410048549697744 -0.9854398212521674 0.45966002340247936
Ni 7.415294525881675 0.37710322500784027 9.609071584719876 0.1238659801187415 0.6342592682100303 -0.4393380240156756
Ni 4.466750677097737 3.456400454698399 3.3441031546563416 0.6348071702937004 0.15260114326990493 0.4506254240040368
Ni 4.301884984805573 1.3650842335657203 12.272209156554988 -0.4139936317136161 2.0351996447386433 -0.4534379537521675
P 0.6938681956661282 2.4005942736165995 7.58850521465694 -0.268660225749718 0.7697101249528937 -1.8586569030514766
P 4.580029958997417 4.490098174183419 5.664769468051815 0.8298055475828935 0.8259368086561065 -1.5189334428063455
P 1.770590960176649 4.756638748833668 -0.06187040495038302 -0.7532239543724124 -0.05268910286359958 0.3688244913761454
P 6.036913777143991 0.30064641346234294 1.9137346959723045 0.45300369442822624 0.7388764274014888 0.38599431828721265
P 3.847815464256425 7.1850743348165995 11.851989345840003 -1.1633344489815383 1.9263548206190821 0.17683636166818578
P 2.9894782525852515 1.9898077763775817 3.0647367133892423 -0.658366188560563 -0.24289262986731072 -1.1236666980782712
P 7.039358213401445 7.708067516069382 12.672143922079249 0.9368210318031995 -1.5556439108535014 1.8220747330520681
P 1.9818372645012023 6.7407784001761915 8.996340795856582 0.5722486308351887 -0.27599224063475697 0.13864159576601928
