# total energy = -340892.03771782696 ev
CRYSTAL
PRIMVEC
9.04500264980213 0.00000000000000 0.00000000000000
0.00000000000000 9.04500264980213 0.00000000000000
0.00000000000000 0.00000000000000 13.23827566086691
PRIMCOORD
 96 1
Ni 6.489219608970995 2.157830116419664 11.611291580886524 -0.7924908702928352 -2.1286371331641987 -0.12956097362098978
Ni 4.533038782959268 0.48179654133145405 6.203985448523596 0.4556961536587249 -1.4822630839685051 -0.31949376346181746
Ni 2.8543948200890665 1.3553393860180751 4.81780531676658 -1.7126660660092377 0.554088157876078 0.2202154999847691
Ni 3.368006253951286 4.030995907562635 4.17776193052923 -1.0116766434615094 2.577835080693089 1.387124039470811
Ni 5.125929665571177 4.578399471547938 2.5699729008849905 -0.17579712177039403 -0.43748065909196265 0.1755595518382912
Ni 7.366376836740374 6.091673649878429 2.54700492550449 -0.07530195516710902 -0.5710052453463907 0.0021818381426672103
Ni 4.99230784054218 4.679830131933451 11.48199326715272 0.05887363440775667 -0.5260865304568294 -0.24686755535465874
Ni 5.761666726018485 7.826279044512958 12.381957469254369 -0.9546865992297107 0.40187679384542396 0.3441277599604138
Ni 1.9909045914139007 6.6295437810078095 0.20358853898887672 -0.027663013132907196 -0.6731646870259762 0.882314673225203
Ni 2.892094391382701 1.5305139534949983 0.3894371141634048 -0.23270077693597344 0.8313687783049553 0.5949087914368657
Ni 0.44891705198176834 9.205099257565168 4.843050823829359 0.06457145612348233 -0.6406338042778063 0.36272532045694306
Ni 8.711902394818527 2.3543056652777072 1.4869758329523137 0.21205918942622187 0.8065985133388108 0.05555356889558819
Ni 6.682574631894224 0.6870366978151047 4.685449792116928 0.3333183280497356 -0.7449162058376655 1.4498178189556064
Ni 0.5790845904759672 7.275456469503424 2.2020683201720717 0.6925418060010072 0.7489592655587876 1.174378365500526
Ni 7.498497191319577 3.8028809392263923 3.8067585318879997 0.7809386466788616 0.3233285638268754 0.2780102995060503
Ni 7.621500183167497 3.837613749631276 12.61524256113942 1.5944984218268539 0.9019553302742659 1.2719301332047708
Ni 7.717684741981438 8.958984733836813 6.967437042730259 -0.21169460699795156 -0.389164231374762 -0.3086437081211911
Ni 6.934595542391953 0.7343547249901331 0.5513372356637114 -0.28875468250674785 0.33274368649318825 -0.7424548887813665
Ni 1.7459749630405028 6.4156113769202285 9.243109976952013 0.2879926075297427 1.2656635834697687 -0.25128959568175435
Ni 0.3928534116868227 4.959022230570833 1.1489179521805502 -1.1389467641657933 -0.37050187907856835 -0.08225730343901962
Ni 6.279221781062092 1.9210590804903296 6.873246907013785 0.12348494263023896 0.494428023011284 1.0325432024978733
Ni 3.435056859037589 4.520800894293172 0.6135370057968532 -0.4475074472003454 -0.2878964482715106 -0.011738114372534624
Ni 5.991491199866843 5.782461187247867 4.706392591390748 0.37015478015179476 -0.43441333302054863 -0.10921557719541837
Ni 5.129113506524957 2.859867046728378 9.642402526067803 0.47273793963236005 0.29703363468608845 -0.9619363388135884
P 0.2671360145257497 5.620383783694453 12.203757348371083 1.1348818500678004 -0.8673287413393321 0.7058179542846231
P 4.057705800564098 6.282885007159483 12.650985698346966 -0.45241182648049827 0.005665425815893468 -1.4161350819911804
P 2.601297554268895 8.347859125762339 1.529100219571487 -0.5348107977037048 0.7627516913571896 -0.02902518358775646
P 6.394518430601429 7.718951042360783 5.566125525940344 -0.7613964628808757 0.4913275297090893 1.1255232916710358
P 4.770623869132467 1.1864872754351659 12.477710581439062 -0.43621156257155197 -1.4404196655701582 0.19358144233700855
P 4.084280018524918 6.004714993828285 8.148542541553208 -0.7003546171772068 0.21862373001761704 0.21337302314163897
P 4.675696565695161 0.860098352659064 3.9674050160127554 0.7286025562793064 -0.11494888013476977 -1.87385186562436
P 0.1617590194580367 5.484274582920314 3.6435043734820654 0.553182358232357 -0.1292138746942162 -0.37163393580048254
Ni 1.495147992900442 0.9313006139890758 2.7114765412751374 -0.028035565980977523 -0.2764067024643562 -0.788893382749564
Ni 1.6584464718196534 6.4924305849329045 5.055644567515919 0.12180061294928056 0.1184502084198089 -0.5032942151526623
Ni 6.016138832250516 5.268777393363971 9.180479664689894 -0.4440508561103127 0.9421213609701904 -0.08301217932717317
Ni 8.601652856791151 2.269599214902255 10.409415137841238 -0.3849499361830983 0.6467049501725507 -0.19637725991459082
Ni 2.3308700632571204 5.3256523704019685 6.954609419887497 0.10880111536581906 -0.19289238668978392 0.17450411399058333
Ni 0.19272458623436997 0.03984052343499784 9.644282077630859 0.6379590856591206 0.44490189125669827 -1.2257207245282438
Ni 1.4126847031969718 1.0645244588988503 11.390424373221489 0.9216890612577674 0.869818083420089 0.5130934606312711
Ni 4.330394542253274 6.781337016480403 1.5699935813218828 -0.9753826941264814 0.5708928881382426 -0.12962653675160254
Ni 5.551605583090614 7.501283052154135 8.032111648674087 0.988384248592472 1.2982839406079512 0.10170384219940548
Ni 4.996966016937626 2.835472674420573 5.036501723781311 1.6342031966156434 -0.6343302306572817 -0.33388217097300565
Ni 0.7192233399572346 7.894677355002992 7.498120014706586 0.5245217570728709 -0.185932410432183 -0.5355443334356197
Ni 5.0263622757438435 4.706521934929495 6.673414757650208 -0.2041373634759839 0.5763166302569751 0.4167699089071725
Ni 8.267268151619758 7.068371132467013 9.195425627167246 -0.9328494487499611 -0.6249881273207495 -0.3183439661280904
Ni 4.741996435556567 0.0677796323046972 10.27094247785908 -0.7167615977803204 2.012728974439953 0.6377076317699469
Ni 8.366247616270966 7.01302476088694 4.924876440841802 -0.46816754665285826 0.5915874403731166 -0.2977100919278228
Ni 7.301976417447985 6.141204084716227 6.957442314736145 -0.5355587316133227 -0.6136896715887947 0.05909757749310468
Ni 2.2393617708440448 5.612849296437351 2.617895134241021 0.08867966202559566 -0.712511821365031 0.2710914608990299
Ni 2.430202283014004 5.282959957612632 11.300020475639258 -0.4949833812941217 -0.3742736874161747 0.7011321187731796
Ni 1.195080028009291 3.092233166338134 3.80114610770669 -1.0784044838063622 0.4719408976523614 0.49622676678291955
Ni 3.6403512855374975 2.3757332766967614 2.7414878602656074 0.3935484764853867 -0.361827491233022 -1.8527832178795185
Ni 0.9801617186263629 3.5060329952998606 7.859882134079412 -0.3757613277052948 0.07432030798013006 1.2359048641500974
Ni 3.9401750353554887 2.7886738304010756 7.299135382096899 -1.3863683922517092 0.6479905017531937 -0.5964596808637534
Ni 3.933536003366639 6.924627949405968 6.037541117661984 0.6609750869383196 0.7818498456392212 -0.4485096632126147
Ni 0.9651198791202895 7.625100094245921 11.550356302132187 -1.034567946237386 -0.7413503428632781 -0.03951579870643517
P 0.2034085434349556 5.7500891225501904 7.713638912269433 0.9723811882959963 -0.5155617196661056 0.745701163632806
P 8.680633820451423 1.584946779801402 8.111686869012381 -0.08355596764578513 0.06488615915042373 -0.22239373858301054
P 1.5426433021285788 3.1451012071757765 10.24322135355468 1.8104397199163016 -0.5878634545543101 0.7791231907366776
P 4.063829267398501 6.179735796259145 3.7951357034061575 -0.42534813749448686 -0.8635016542837581 0.20281967310582488
P 7.028808290615201 3.8913591557317497 10.508741930596495 -0.5173956875510509 1.0167921103112039 -1.082883088403006
P 6.465639286907054 7.796267725522489 10.231823745640307 -0.5331066705284045 -0.09106641709021736 -1.0325496302557766
P 2.182640558852111 8.479816670292768 6.032496719650838 1.2791248511809972 0.15922404790306127 -0.6883506507377952
P 6.941487834456672 4.093433561267038 1.5307418875632803 0.6079604824145014 -1.087253706666876 0.07431516577380749
Ni 5.131266217169844 2.939553520599999 0.4458878805743216 0.9114311309751851 -0.06079990489619207 0.5873160666912723
Ni 1.5661331741654234 1.405439656026578 6.908566738094522 -0.306280350095337 -0.9967544749340382 -0.07136096824149002
Ni 6.801661137568886 0.9118176781525862 9.19260539532239 0.0848291779312539 -0.3203504550351579 0.09796211576878613
Ni 2.674308816140828 1.6625076780362662 9.026677534115498 -0.6973220009984701 0.07474813954616805 1.6574991910291068
Ni 6.44743169645262 1.9249393866527504 2.689422111168307 -1.1410758946936543 0.6708458090848124 -0.9679964289647393
Ni 4.0870025643405095 6.92846303055484 10.207677206406746 0.042680569587661976 -1.2359529437792134 0.28744959054207914
Ni 8.321574347888227 7.185820492651237 0.2605982865672471 -0.26117368756468573 -0.1723305033780322 -0.5902669217894801
Ni 7.526880409822318 3.6468003724694453 8.217129892599875 0.5975608843477321 -0.4939634246700396 0.1477096195055585
Ni 3.163381157651888 8.463038190266452 12.476677642129625 1.2481235177034764 0.07831734495466512 -0.8535895373763688
Ni 0.18301568032587978 4.727813871307906 9.990648697891666 -1.173560754695237 0.5522829863465392 0.09269932470795005
Ni 8.401776386914296 2.2273228722375604 5.824165885741315 0.44740640284610694 0.3390922544190354 -0.05751300661480417
Ni 3.5340725036996363 2.639259430641108 11.29350716918807 -0.6516604944056131 0.37572713203324964 0.6292643860986002
Ni 1.4153710690017247 3.302963639466515 12.704402770849082 -0.8277998300067745 0.052932329222657226 -0.38294216172445017
Ni 3.2525467943631763 8.606808508335625 8.063129676466136 -0.7700579952106157 -1.74456651426226 0.4213061062146292
Ni 5.549832762559532 7.9014701520379065 3.25094944688466 -0.11296013183951514 0.05761070853493304 2.440685496091564
Ni 2.8664608537036798 8.000142086596988 3.727157081041849 0.6922885523396206 0.9779075174308643 -0.19750494576113084
Ni 3.0464111826112745 4.363662062219203 9.07568516779668 0.836772980039662 -1.1077813943065826 0.7204727280833205
Ni 7.465908046556869 6.109474215210932 11.262197892308773 -0.9505430093749823 -0.7145237095887372 0.4305973017085681
Ni 0.8403359262388478 0.12647627288840893 0.3911855131871715 -0.24083060513195942 -0.7883799334482551 0.2519917639551015
Ni 4.704667709374027 0.29058699305094293 1.5209986106444937 -0.4935831585124854 0.1642227866692333 -0.23830372494504765
Ni 6.019177953160944 5.667444932792528 0.2905679985452528 0.9200191297545123 -0.16017381341084028 0.16658923001888085
Ni 7.823909253803042 8.792746629036978 11.585662565708859 0.5405572132691787 0.5113646508656225 -0.03453068678701795
Ni 9.169642846943516 4.643487311046258 5.80258812727728 -0.4744639211845313 -0.21289274107111078 -0.4199151394043735
Ni 7.783107246580013 8.748570835803267 2.6774148700713063 1.7853187564789574 0.5206807860602258 1.0362368492993765
P 8.446259710240135 1.604945280792339 3.635746474658037 0.21991776623869225 0.7822727921092527 -0.2473434665498127
P 1.8132155131837076 3.301842059130524 1.6939562479572925 0.7114553550760586 -0.40043517630289105 -0.40734501604884693
P 4.7151056425009115 1.1315660189824435 8.295659510624937 1.3777839930168079 -0.6137534349471946 0.5954662066022326
P 8.613076695213381 1.533399309359362 12.640885143821153 -0.3287008838823823 1.2736136915547809 -0.7393235422412364
P 6.552525582935521 7.778096315078891 1.344783867855966 -1.5541842955888394 -0.8799243186161555 -1.642767284135571
P 2.153389020089248 3.340862200819761 5.9907431781427585 -0.09706942875118765 -0.30400800912139253 -1.0603746228878448
P 6.902467692767436 3.945077426824095 6.081385863796525 0.35854779204048576 -0.004601246217437236 -1.169285781468967
P 2.3039973602068833 8.435080086891062 10.187422731839126 1.267027553696831 0.5780400407059851 -1.131805782245638
