# total energy = -340890.1112975662 ev
CRYSTAL
PRIMVEC
9.08260473007596 0.00000000000000 0.00000000000000

0.00000000000000 9.08260473007596 0.00000000000000

0.00000000000000 0.00000000000000 13.29331010622401

PRIMCOORD
 96 1
Ni 6.514797770936502 1.8458122902655862 11.34528194967331 0.5987330502789624 0.6384481094803972 -0.47140893640829135
Ni 4.653163583711178 0.6244399553721608 5.773217649393775 -0.41428879435653165 -0.31679513358373185 0.541269665955171
Ni 2.9620007994923485 2.204266357666849 4.50019708426984 0.5824813643067904 -1.9513523711046845 0.12605810267405387
Ni 3.718372850649673 4.649267146400198 4.6609001461855195 -0.612896486263538 0.8519761701426618 0.16908320008532818
Ni 4.0747015886085824 3.17150923644428 2.5669383865767816 0.19684854312405456 -0.0659837630899767 -0.753744859872889
Ni 5.441279337436977 5.159536947258414 2.963756466933403 -0.3501158592230486 0.38934215171352304 0.2527643804550679
Ni 5.243632781902622 4.610202864641397 11.295192294367196 0.7952841167672562 0.7084247957798508 0.4686874237120702
Ni 5.831313620526533 7.925180921048945 12.123166149481117 -0.41054166860927366 0.248275748556095 0.6730340749853828
Ni 2.133422042921756 6.565042738778791 0.26978241663287866 0.030071365464083698 -0.13323739403131246 -0.8720338601244851
Ni 2.9449618335357077 1.7542505547597806 0.32567313140408455 -0.23869761794935665 -0.9111166850585598 0.01804580175811731
Ni 7.975925432136232 9.096410013269972 6.820053207526873 -0.6350840781041708 -2.0284623260148096 -0.35085736537476353
Ni -0.3046741499052825 2.003477220991237 1.1620856343166825 0.7781364013433759 0.3633485558632388 0.1827234165765821
Ni 6.998446458138581 0.8440682302072953 4.8832441197525505 -1.4783784042021184 -0.3306608358222305 -1.3618958610316416
Ni 0.7053823097497661 7.240797592797981 1.9795999621408042 -0.3290657234209688 0.540174118898147 1.1187317226704991
Ni 7.577862126708899 3.976010008605995 3.6744966050508783 0.2096490373228325 0.18308825611516855 -0.3881075079754735
Ni 7.713501741632389 3.81371294960855 12.698247599205747 0.14799938283183545 0.1085468332631679 -0.4076016121443432
Ni 8.296405130313234 7.351741606209688 9.01695811428335 -0.09504391368072664 -0.6987250519935837 0.021549701146317723
Ni 7.002951429948012 0.8621208148210577 0.1379856516540872 0.035239539928584473 -1.7343962585974775 0.560200441421403
Ni 2.235056386767601 6.688339094248617 9.10292587370563 -0.5368849066239141 0.6810296915963497 0.095974395914796
Ni 0.005660279096043859 4.358487564789408 1.3760436391908732 0.6260559064636314 0.9560014613863923 0.006034122009221866
Ni 6.296415629432525 2.393239025947158 7.006491829164376 1.0873362390783532 -1.9938298235426049 0.10613051051219141
Ni 3.6029511132418977 4.250313745736324 0.23535026314587243 -0.1683499214637294 0.658000577691028 0.2711212856957008
Ni 5.936699080012087 5.916526615518644 5.203214283819655 -0.26166194005501386 -1.9721955331022807 -1.0991080349023006
Ni 5.615828829843541 2.941465030820726 9.431111253501829 -0.7292247632443377 0.9877044489166279 -0.339265546772106
P 0.2747033717263263 5.686209931761455 12.401620636847152 0.9151666867582173 -1.9967130586276707 1.4105550168002416
P 4.176081619529702 6.2032008599160005 12.66482815611542 -0.6393773061628859 0.3774397438489822 -1.4957369500852242
P 2.6494774628174875 8.766057524050929 1.080692782758134 -0.4018284571059918 -0.6272378425868746 1.1710462158034993
P 6.178623332262126 7.899931280665437 5.649244639892088 1.2155661525927453 1.7339540288537363 1.276143142844854
P 4.866177905982546 0.9265164804034566 12.502344903726655 0.12496101295513319 -0.702482462153487 -0.1783412283484864
P 4.115246334893467 6.239622103778541 8.073240089303518 0.755010356848874 0.5285373059901671 -1.0154510229022768
P 4.954742382018368 1.4018273367163052 3.6826854812270544 -0.5026388409568504 -1.0951901879051333 0.13701408746492533
P 0.11626187831981614 5.480334536591323 3.399644278611498 1.5143419667809208 0.9783834286260182 0.423149072960639
Ni 0.3450599506122129 9.119752306718034 4.665991854242712 0.8356208687130898 0.6781675395572063 0.16397596076574986
Ni 1.7276748541259161 6.567740272301777 4.643432481298628 0.6927546933427617 0.7594629933035888 -1.7008988981709803
Ni 6.107297639480944 5.6270185985314845 9.111659706149076 0.9637934466269854 -0.3218206118227812 0.45755968923002494
Ni 8.953558810409609 2.369052050284827 10.310211089090128 -0.10076179000111034 0.7939617984114068 -0.7748217351478461
Ni 2.5067624990239428 5.4491902859168455 6.751472277811841 0.47336734568624284 0.8696864429382313 1.1033531833319
Ni 0.5932012456113566 9.099952229007227 8.668660215183108 1.3437086485996537 0.2853677683123859 0.2954449500427299
Ni 1.9149127449554157 1.230520334099997 11.404583182417182 -0.5944686185756537 0.6278909027898413 -0.11558728504971705
Ni 4.229169442566249 7.127137880654379 1.4444111277012244 0.4923654840553004 0.6364117957766589 0.28241048545627495
Ni 5.850659568014616 7.811021665660346 7.896013045103767 -1.1754248044871691 0.8873920877481104 0.32264387905502495
Ni 5.300017590356152 2.9776773747808143 4.954376353058851 0.9308064501780035 1.3344773598093724 0.21882170496103606
Ni 0.8138240656342586 7.442703889821497 6.687850450128964 0.0696306158139446 1.7571168401234447 -0.3778125538073687
Ni 5.335430665124244 4.410385566642416 7.2544115086148295 -0.42446444933795285 1.7483285524078536 -0.6364629607295684
Ni 1.0549717552034379 7.332531897788423 11.38938889342525 -0.20377946591593293 1.3729541757283321 -0.9140631692813934
Ni 4.461765860041518 0.5663639659692025 10.309746059742055 0.014146209593394993 -0.39841763165222993 -0.9049360101691446
Ni 8.21199140451312 7.184403701739996 4.7081714693294066 -0.6192656230146754 -0.5742036976790305 -0.40346367871656963
Ni 7.411368904453475 6.314853316475158 7.024955855759927 1.251854445500818 -1.0130773804637778 -0.6473554392723561
Ni 2.263929986328454 5.277111261921905 2.445836388343163 0.16392582425410476 -0.07162296365362504 0.03271111707977592
Ni 2.5754179060955016 5.354386060620783 11.299871652182151 0.3978967261517535 -0.24589644969064106 0.8010323321049431
Ni 1.1032457978791008 3.272907432574308 3.6173352339164877 -1.5404967707994177 0.880611060270535 0.2804700739004524
Ni 1.4378943590051214 0.9624654288343643 2.611909086012343 0.09228229177518946 0.34036906424893 -0.7972736363934592
Ni 1.1469876209319687 3.67326863692863 7.975440421058361 -0.16926934795420523 -0.4788383961031431 -0.16013858929753066
Ni 3.473124365169287 3.0442074524100198 7.033676064296692 1.160328572275679 -0.8973764526543319 0.4220666385297377
Ni 3.9306151515424084 7.266056315785943 5.61302048854621 0.6286532348771624 -0.23031685008482913 0.2816124150350118
Ni 0.6311792478773992 8.927864122407831 13.456020187969957 1.2001426189488233 -0.7294718462581372 0.5592676451944883
P 0.5296166566067444 5.8895876107066 7.971998113970106 -0.9267423074109588 -1.6314911970011192 -0.17146969803963372
P 8.626258076287279 1.6373665180348311 7.819151504907568 0.11444982901116418 2.84458909055903 1.4694672177554176
P 1.9591904416710992 3.4420618579349003 10.204821996562792 -0.020848818424551187 -1.069966637451654 0.9531691341439198
P 3.8158382790509027 6.545633213059527 3.5253720472937933 -0.4276623874499602 -0.54986949180904 0.1680737849842073
P 7.381641540073899 4.126036468985411 10.40010071711586 -0.8066015986626044 -0.7986327215245148 -0.09881289380485563
P 6.506287370562637 7.648624698013902 10.120675299333639 -0.44908070522473625 1.4677471497405175 -0.6314125427898545
P 2.369106545911554 8.77756518389478 5.483144694409545 -0.3274639261514876 0.3967944942265102 0.291282334024608
P 6.51210932001797 4.169478566091281 1.4676344390309333 1.5467553501146198 -1.056881779243238 -0.21201008135584135
Ni 5.460770606596332 2.7556349436816734 0.1453371116995588 0.4372302336440535 1.349267887854986 0.7280024608014624
Ni 1.460709861394823 1.4437889692960912 6.442176898760109 0.8865083995915765 -0.18617795078408583 1.1322878640883791
Ni 6.781708268040868 0.9295591528957139 9.066874291844385 0.6281940358525568 -1.079247805643264 -0.3692818906285382
Ni 2.501903305640786 1.6959856471841688 8.83218160926102 0.4129541347055082 -0.27473111453414617 0.9143634741306316
Ni 6.589211549232213 2.0959290517335836 2.412535927371187 0.7192267714913613 0.7378323024076906 0.07178520026310217
Ni 4.4363708979867384 6.811426549815989 10.211999978863183 -0.5492236306949251 1.093076741106556 0.9549565650616456
Ni 8.050602605961124 7.254330673435185 -0.11903388919932929 0.19923298419583108 1.1882052440812891 1.4106781726416675
Ni 7.768206268261837 3.955192679196283 8.19689429938885 0.5752118272285707 -0.3397301451133504 -0.03326030471502659
Ni 3.3208908319074273 8.389719808478757 12.125452241022314 -0.07332991904240273 -0.3873456901087845 0.6491639532360045
Ni 0.5246684536999333 5.161916589625492 9.997033804894544 -1.1653262826005866 -0.9069653818943477 0.6026678665569943
Ni 8.568456381538846 2.4915218887492934 5.7576909370788085 0.17900611562599492 0.9607973401131388 -0.3357307941459702
Ni 3.9701426461283886 2.744563248851639 11.57885838016922 -1.2963237315577867 -0.1709390223471443 -1.257414970307731
Ni 1.3733533717514506 3.3995461864833896 12.549575355150498 -0.8208586228022509 0.5271306554506276 0.059352888037020365
Ni 3.2332073685036926 8.488720197032798 7.68379890028484 0.07800675569278179 0.6363778572149299 0.3905621401635531
Ni 6.020586014753841 7.7940826083527055 3.404044800469703 -1.5119431275314414 -0.3722515147798234 1.6303743097878567
Ni 3.3541331642108942 8.732197574644557 3.4573506060131587 0.2627549160088765 0.07267094530216515 0.030319219808831656
Ni 3.556993134702132 4.459958421755072 9.220253141527959 0.8625814564623339 -0.5589675974555665 -0.3937225401694058
Ni 7.561894908077889 6.142238418817402 11.225189937055033 -0.36199332738692497 -1.009328969164939 -0.36232679946694374
Ni 8.123127202530299 8.992886487697591 2.6041725235380007 -0.19289187246915168 -0.4239756826269924 -0.7001481575933556
Ni 4.8629899118190165 0.8563106727515146 1.6154565513092431 -1.1186178228004542 -2.1878059302148705 -0.7201950489419016
Ni 6.111085085538471 5.838298143352043 0.20705431722832585 -0.17749199297431367 -0.010656708382897775 -0.04489017564447108
Ni 8.30606902145282 9.057200409839899 10.834778725880614 -0.5854314480740498 -0.8640541843531184 0.005101582892623472
Ni 0.2928703971562155 5.057929851225931 5.759233163315183 -1.4061075225518493 -0.955449188427348 0.041619475312999296
Ni 7.577544235552991 6.2109029084934155 2.2334623896858368 -0.5527529840044222 0.05229623830055509 -0.10555098385963758
P 8.430437124248277 1.886166301856926 3.559469960936874 1.0344710156482058 -0.9867706242484491 -0.31716691510085376
P 2.0623779108786637 3.1747971392568086 1.6714208351765303 -0.5141964638874629 0.27291231615785255 -0.9096010197449819
P 4.729021496115155 1.299430054096282 8.131530428171603 -0.6113206571359859 -0.386490798307657 -0.4232498602045614
P 8.904004120505862 1.3545342153217281 12.312503030200052 -0.6456155737631138 2.258570916743575 0.02606095875310996
P 6.415116187048374 7.997750930640394 1.4283258352123065 1.0723508214131146 0.5678039648002737 -2.924221554780693
P 2.013713316211457 3.655929945024991 5.7104868252078855 -1.5505456703949878 -0.5455459247330218 -0.38286245752645026
P 7.181179377158649 4.173910877065077 5.802423672277663 -1.105749194367902 0.8087209589984524 1.4369538185087447
P 2.3307597899046586 8.764840455054028 10.018981010298395 0.4970364071684085 -0.8669703295586487 -0.6572328462870681
