# total energy = -340898.2913462285 ev
CRYSTAL
PRIMVEC
9.01665695974371 0.00000000000000 0.00000000000000
0.00000000000000 9.01665695974371 0.00000000000000
0.00000000000000 0.00000000000000 13.19678887824214
PRIMCOORD
 96 1
Ni 6.371115597244457 1.9401320776715967 11.399029748829383 0.5028352732383727 -0.31490742964271573 0.23698063525824997
Ni 4.533412740857921 0.22560216321170948 5.924328530988955 -0.31185681574185004 -0.008282551723766381 -0.29611909329161906
Ni 2.797336623300958 1.7351203519358174 4.813053531622944 -0.33005559813806384 -0.8620258410691799 0.2287533622524512
Ni 3.4868403690464413 4.262047437706934 4.89040021701269 -0.08340350122832088 0.4917301644641467 -0.4824687937668787
Ni 5.043367799680039 4.726116730057248 2.35738237957097 0.4225371504082529 -0.20738955186469443 0.16064406817903945
Ni 7.235605601570854 6.1274765137635 2.5672504766609863 0.48088627977110737 -0.4495432466834516 0.11629819507381262
Ni 5.063087228108773 4.489555722166853 11.490892350006702 0.07131957348059331 0.31326989403929273 -0.9676863539234882
Ni 5.766359408792837 7.82286045916734 12.185729448251314 -0.406373653274513 0.2604128981392612 0.4279020142645921
Ni 1.7872276116018713 6.680729558554884 0.3932290265098018 0.16012881910551777 -0.39460005767835266 0.1986711981550901
Ni 2.726628000649774 1.56637361986276 0.5205820905304418 0.23097016739811188 -0.37923925895156624 -0.5688270067481493
Ni 0.4758279144874485 -0.0017474280884722706 4.794419708673321 0.24221360152241508 0.006905725980897784 0.20661307870998608
Ni 8.489552063200568 2.276029593563534 1.4371432878956805 0.4567104538558522 -0.054712046830899315 0.00019334695772869927
Ni 6.763809034340144 0.7335284742530921 4.8234127686242125 0.5411053724631649 -0.2761215671237696 -0.821880636308862
Ni 0.709956228372323 7.3958496262784355 2.7865418817760923 0.05534633798078855 -0.2184992886246108 -0.4359804203973524
Ni 7.571151467847464 3.8647825556119915 3.8619738670177752 0.16109118301878705 -0.9424257795844865 -0.6390847146231317
Ni 7.788083213877156 3.7330672330299333 12.579878173755048 -0.22247987053891363 0.1629716878709516 -0.7848783480528999
Ni 7.837900242715182 8.738249491148155 6.850836002473873 -0.6091609304805057 -0.16677614921870632 0.10264332329453935
Ni 6.79798216362451 0.6551602016475362 0.5029680514652686 -0.6982483694674814 0.2777796715524829 -1.3823245611996386
Ni 1.902117852589042 6.4605157494488035 9.319624586843233 0.03532052967816498 -0.16213427957132076 -0.23072616970810586
Ni 0.036723941494007796 4.838942156636471 1.3432348072897018 0.9556852156975542 0.15697973195357479 -0.23412799630080325
Ni 6.318800954471927 1.9081409793336213 6.900469091513112 0.5222208768538361 0.9833610843462678 -0.09641791121011782
Ni 3.355251279659628 4.237927880758207 0.32482325800617057 0.5995573459524707 0.6438188868740073 -0.13421132790880758
Ni 5.875154389781002 5.5970987272819945 4.550595783727898 0.20028713649195828 -0.11539496653325287 0.9093125419702857
Ni 5.252932937101465 2.6721673935580683 9.307022005629314 -0.3602624607387473 0.9214211523083615 -0.013285661365312602
P 0.30869516398217495 5.672892744370219 12.354094775741594 -0.04627702868966869 -1.071379972859413 0.11178668035670425
P 3.9556704561888774 6.206119794401556 12.517298968877686 0.24954484507650576 -0.4614371699075601 0.7001543282409426
P 2.274487745250176 8.639129382909891 1.560111551712894 0.37858337053512214 -0.8713106088052156 -0.7969087968548727
P 6.1822076205593035 7.652499745526498 5.689465359574615 0.8195566161613757 -0.1748766668386537 0.17953524865658757
P 4.792524407413276 1.015059156284078 12.641164390046823 -0.38556648672117466 0.2898080634719267 0.1774660248323847
P 3.895754771731198 6.154039584705911 8.261783197359035 0.7309939393296184 -0.22942313462596617 0.014511563352613718
P 4.5768640099928435 1.1094455197006299 3.779837533534136 0.7422515145213088 -0.8137279252947405 0.20686787503326953
P 0.08702245980532727 5.40166269107128 3.6356620929156493 0.9721181644425966 1.811190996260029 -0.09159940677555192
Ni 1.4437200373679804 1.2454708042346478 2.780194155386596 0.7267073961391226 0.42102791285257807 -0.7381909712986899
Ni 1.8747432825343369 6.4307066820572185 4.858186407251674 -0.22183349520416637 0.007574469913148246 -0.3701946322507947
Ni 5.891510605222121 5.570553689653189 9.136836215130455 0.17240095160465146 -0.05246901643299351 0.5432496724996774
Ni 8.578871065493686 2.225085482625101 10.106812989063902 0.15775646221859926 0.04933407034843762 0.09018735691937371
Ni 2.4301242583312903 5.205027439505732 7.003430295549566 -0.9922879545222524 -0.08349940337623685 0.37282641344668693
Ni 0.7111861003602881 9.115749861530345 9.201751635785543 -0.3436153391003695 -0.4922042758870878 -0.6663304377129621
Ni 1.3962743892692129 1.016700187822272 11.4468946714695 0.32515996060865937 0.7769842900168038 0.24660221750841405
Ni 4.100495997762879 6.852848520272361 1.5342319433561702 -0.1910861867189806 0.4859978899660597 -0.12436657390424387
Ni 5.586873838467095 7.757769213704588 7.85773778934804 -0.6309214620860488 0.3367445801224652 0.4174602501059778
Ni 5.438486717455804 2.9040307232539635 4.769464307638931 -0.5414707262223836 0.4933659002953567 0.5436448510555669
Ni 0.7270364813547431 7.428111224320508 6.916186025986879 0.5404116888302499 -0.544288912397469 0.505653202303142
Ni 4.991134306818738 4.693305115950174 6.923959285816972 1.1281856689945473 -0.10481436280392918 0.15507248762853296
Ni 8.339433744083053 7.0399170989696485 9.252031219117574 -0.04205270619567596 0.7159059346482445 -0.5778600634846951
Ni 4.6416216391538745 0.37806210810103397 10.387759391734036 -0.10592945024497886 -0.21458606961313367 0.1878705079951603
Ni 8.187602260172914 7.014895876340595 4.9584958125222895 -0.15825062824619843 -0.09007962769691583 -0.9994358784209433
Ni 7.352425407113923 6.139171117637332 7.0475334689713645 -0.21420811744842463 -0.9606842115740423 0.17840910547194433
Ni 2.2226239353178103 5.29011762975812 2.4237747286104327 0.339377389759622 -0.10046405625503342 0.7139480395909252
Ni 2.3575131210946174 5.139124694930686 11.41737323542994 -0.5172175101019737 0.3993823095583445 0.23462319076966692
Ni 1.1923897456338415 3.5552317108991867 3.930320125586505 -0.1051491204355286 -0.8156997043091305 -0.8966524300041138
Ni 3.7785652832591956 2.7869223846931903 2.6162767446973656 -0.998961509887686 0.12205026706624142 -0.027608505745887933
Ni 1.0530192814258132 3.308490897477909 8.17413047324316 -0.45132399273295826 0.7797083738161863 0.3041131672406891
Ni 3.6835748038368252 2.795163609011372 7.062736454007345 -0.006922438151446143 -0.713395766631881 0.29101339663393755
Ni 4.130846064562661 6.7357131317411785 5.933632819144242 -0.3274958078306876 0.7794155251661158 0.1462723728383997
Ni 0.8092936380395461 7.499892829131281 11.236260158551207 0.9682573959356099 -0.5448203594209069 0.7891620630299183
P 0.30820105118935615 5.547597281432083 8.09649345150435 0.08968959134734876 -0.8030689029189976 -0.8891558645167525
P 8.454855967821615 1.5010479413231232 7.837625234682682 -0.4058959423071461 0.8618785168580382 1.3748850742024579
P 1.7629547714874887 3.19335720675705 10.344078197850632 -0.2196740256590023 -0.49206955008143644 0.48364404502190256
P 3.847164008218417 6.150937854765589 3.7522952536628904 0.10661182102398413 -0.32391323268575184 -0.6088166597672096
P 6.901790933400471 3.87428611188263 10.430992457774318 -0.18371072019051587 0.6906101361959331 0.2682089971449123
P 6.420914592768875 7.624070226625812 10.021865261989005 -1.3103953791595047 0.6155321241141721 -0.24943917273657681
P 2.3568909717751922 8.515195435149048 5.815033125548209 -0.05586467237810379 -0.0863633551875932 -0.08874959603158264
P 7.0951080552624175 4.02568479626621 1.4961861599748039 -1.98657391331114 -0.3872713852274233 0.6509688676552272
Ni 5.454238816891103 3.075049652841443 0.2897385447189959 -0.021577469060459615 -0.81441466694912 0.5854342762875273
Ni 1.4258941068679303 1.2435773063059625 7.000606278638784 0.8531187683875373 -1.2113611133724622 -0.427929782178734
Ni 6.641930884330445 0.7266424534524406 9.01576866256737 1.2489447280531911 -0.8308540434520659 0.41349046682495244
Ni 2.72885511488018 1.5747861606602038 9.139211202532435 0.5859706084069715 -0.26564817839627153 0.16534147365470878
Ni 6.1448876780506 2.0405325511759247 2.6561574177381955 1.8158392936653178 0.43402715332572345 -0.9712555593319854
Ni 4.141828352549035 6.900916317690554 10.413651623410283 0.11844455199285406 0.10315034483794493 -0.22164529045276024
Ni 7.983915982987215 7.116702948306232 0.2257545447116846 0.09714399074286495 0.04103840599854868 0.4461288216852639
Ni 7.513309614454535 3.8038479889355434 8.395295539641983 0.43470849566346426 -0.22740301887214384 -1.6104012091000395
Ni 3.2432734188199115 8.321220097340461 12.581910528198502 0.20826089872605422 0.6636161241055926 -0.33073539781390776
Ni 0.08827307010393978 4.77498700993093 10.25207042849878 0.18352354388037423 -0.6905903387015913 0.054113751125268096
Ni 8.70197548082863 2.430908707473174 5.791951385797538 -1.0022952022466094 -0.5623755946958507 -0.3032099387001294
Ni 3.61338914728023 2.605020350344173 11.471057508370885 -0.2654430043640009 -0.40784278162087184 0.0324321523867764
Ni 1.120986840408806 3.270945538549124 12.613661783465513 0.01152342725856725 -0.045977238061062756 -0.36668147689121366
Ni 2.924967400351139 8.135918783376614 7.95944477642316 0.9407627900597669 1.2259624082254048 -0.13980244884333987
Ni 5.588550936632501 7.894894530368604 3.5537106008964767 -0.5979174963562025 0.21874611452809425 -0.1015212938749542
Ni 3.0356648959247923 8.296983323853292 3.610324385632801 0.27931513436040284 0.41736023419300383 0.3633428994362839
Ni 3.4303870808012147 4.261668738121196 9.37842941918275 0.29297360568410186 0.1927535471190745 -0.6629360673194324
Ni 7.382072174683049 6.133211107490375 11.320904925957514 -0.5784413899094619 -1.0765530324199202 -0.08071129910813842
Ni 0.4417738050728867 8.820147784892187 0.3473712116740891 0.7170745010350489 1.181692896884068 0.2576700452868014
Ni 4.597043287918545 0.3955021256899042 1.672125479179824 -0.48410221560524375 -0.9347541219718417 -0.3897833530159997
Ni 6.067632962560247 5.553394991756581 0.2009154585500571 -0.44806434814507995 0.6897953536041217 0.6372492040762896
Ni 7.970598380888797 8.788733752589621 11.063844548824903 -0.806598770449127 0.6336715140273602 0.2746395832616044
Ni 0.1669713523484951 4.778764989131497 5.835289946722418 -0.502961771513908 0.7187238637130138 0.7580946522011525
Ni 7.827819620409135 8.796307744304363 2.3522744434919214 0.5537726835181882 0.22197824831214674 1.4392287305858504
P 8.55353425987652 1.5489263889484468 3.6063651716304888 -1.6852213395347233 0.8065152095963852 0.4712171321124594
P 1.8730301177417172 3.2797638289027145 1.5394453743198164 -1.0247453037200094 -0.19353927624516343 0.8732643900974767
P 4.669600325214398 0.9960430270859975 7.990312399323448 -0.5433553448396062 -0.3069066708254263 0.7407597604671307
P 8.438625985575742 1.4253080241757181 12.385502496384397 0.03133814799164925 1.1644248538322397 0.40910596460401155
P 6.215172517832031 7.632401617512026 1.3912845713942876 -0.49853767430428336 0.36637911515944643 -0.42646322493553646
P 1.823699988371068 3.270052889525601 6.040565860502533 -0.018496516142290725 -0.05779814195539078 -0.06244489669878279
P 6.931311467774352 4.0179575213858145 6.020678722257258 -0.025776080522839476 0.3228714216847988 0.3641918777001405
P 2.5840385899629807 8.602638972827087 10.323109060788964 -0.49047778011428433 -0.6479511638748261 -0.45300369442822624
