# total energy = -340864.18254064687 ev
CRYSTAL
PRIMVEC
9.31119442282072 0.00000000000000 0.00000000000000

0.00000000000000 9.31119442282072 0.00000000000000

0.00000000000000 0.00000000000000 13.62787422775507

PRIMCOORD
 96 1
Ni 2.4322235907446963 5.408044009586042 12.843848232146728 1.3134493354944798 -0.5321517628143029 -0.05993292891020646
Ni 4.434176897898051 2.3106752617682544 9.46568925004984 0.45836932961551385 0.08153533767133056 1.153713895172639
Ni 4.221285753902542 4.602402243356713 11.026285434687978 -1.4044913271046648 0.15456392342323058 0.28671245526573846
Ni 6.075954591334021 5.815026996504327 12.283007072407335 -0.19649501643937772 -0.4769452928454882 0.5117683140619445
Ni 0.947283652271127 8.234531495983372 2.705009922496744 1.0010117075484954 -1.4720043823549747 -0.37069599736724546
Ni 1.9544103496113203 7.966099078635291 12.512663952664141 0.3256312438181231 -0.9598730285266565 -0.6193175592985334
Ni 8.579176037789257 6.269403961857582 2.237383127808919 -0.1416371880592335 0.5097412563295867 -0.4096322694211268
Ni 0.26896129317816037 6.286825206189964 12.20459191940381 -1.085234876464634 -1.5067330440854116 0.6430030758409313
Ni 5.335370138921025 5.945569939069802 3.3986007778250076 0.8814556676590175 1.5065106436619602 -0.4100716709513906
Ni 7.904570707417555 8.61906519370584 2.1512964819109803 -1.8785179036414614 0.17867290065629227 0.858363047505612
Ni 6.7177007174037575 -0.1332534311946344 7.125974235836991 0.8446354135068743 1.7742776681734476 1.3115570035677735
Ni 1.6609028863054065 5.9369198396658565 6.6605281228288264 -1.7804940813968047 1.1413769708738408 1.7982658035579286
Ni 6.154578315087436 7.920334559183842 -0.03186197540405136 1.4507665560221208 -0.33778973355752795 1.8411104095272808
Ni 6.119233021936328 2.256679646651479 0.44923066832358727 -2.7015593930276443 -0.07141187608408348 -1.4050119754948251
Ni 5.98054278445325 8.136009750242623 5.426374026471519 -1.2547448796747358 -0.6946300559886036 -2.570404592556973
Ni 9.38140059575029 1.0339615590002291 2.5309827719373295 -0.11863867028153116 -0.033066700646981764 -0.5507292687061741
Ni 6.799797516590618 5.782689219077088 6.136712926792118 -0.9986961720414411 0.4273813658744317 -0.8620006442581992
Ni 3.1817561007757686 5.47355757191776 8.439482984691749 0.3792983943242758 -2.014052835457699 -0.40192358792295946
Ni 6.823559684167444 4.641695482845037 2.0038565152461065 -0.1517886746709386 -1.113832742706985 -0.4995260063594816
Ni 6.6190579261385185 4.8461693072913885 8.399294939441617 0.8029686298957074 -0.4699403222825648 -0.02754937037317836
Ni 4.73470500162439 4.1174193826958465 6.934120803997862 -0.7186567579205042 0.3768612456376929 -0.6538289628118417
Ni 8.090794591248477 4.935277435704483 4.194673429783685 0.871683161653286 0.4259158370724987 0.180405824186999
Ni 1.317524666909572 2.0028192482131684 10.891015198831456 0.26445775763259616 1.6693319219979768 -0.7326381598012608
Ni 7.448815685323951 6.740634188697535 10.084503767064634 0.8469674040741606 -0.48721633575419315 -0.02300211732212813
P 5.090606777207854 6.2459490636890775 7.650129290461692 -0.4432245035542754 0.44356826004693933 -1.365767685282222
P 6.714572156155398 8.78716018244582 9.211257144288167 1.6537232689264423 -1.1984202369410781 0.6525963759563211
P 7.624331695834594 0.19137669869652219 0.12956247381710556 0.6444482929278901 0.8937923348474994 -0.4998617924323456
P 0.7832204106160859 5.664446364038644 3.5781895046750325 0.5472886184557413 -1.0869552015898505 0.8900966311634669
P 2.985792707820491 3.159986528755934 8.126709729484107 -0.695882440338466 0.45934532037553794 -1.3367741262633495
P 2.0289185255320716 6.98120751302451 0.9006839187006966 -0.020276747971165077 -0.16860394645606447 0.299631991540884
P 8.744105220504112 2.0730722083883832 5.8930883241285725 -0.26253894334332856 1.4248760614086042 -0.5227464103400029
P 5.059181496811387 8.011630818231952 2.138581115123005 0.8137574929810952 -1.7254143668138415 0.6824566538508633
Ni 3.6549696119785215 1.8612239181423278 4.267854760532141 -0.18198191042486722 0.5010272734953565 0.3724397195312295
Ni 2.615709983483302 7.7049852599217665 8.434127185792772 -0.6132754668695116 -1.0126207525423334 2.40024847112244
Ni 2.8708646379142384 5.680740953873851 3.2388281344534313 -0.44664098543499203 0.7988954882675983 -0.29969189824454195
Ni 2.574843152176607 4.424251164889863 5.517108820509878 1.4716847942320266 -1.2014623662015114 -0.6223782005017282
Ni 0.0852588807343104 3.5682544604726534 8.209989981452715 -0.1274477839327289 -1.1217152307788552 -1.4046602485823616
Ni 0.30841561632599834 0.751655462306745 12.490450236681369 2.818356382114746 -0.01319901518877727 2.6750292079475995
Ni 6.383084331742168 2.521164117662344 6.7481548402460465 1.3262521436861028 -0.10879751582139327 -2.5902121142012033
Ni 1.9936942779054532 0.7756662387684846 8.498723595496623 1.76007849385493 1.7168752189945786 -0.786930088375606
Ni 5.930150601488602 8.064844293036638 11.418714093965457 0.08145614769396294 1.1324449584915335 -1.2621298592848973
Ni 8.093383103233727 2.517867954918537 1.15004794146391 3.2230295077583846 0.21181262063305456 -0.39851559068267495
Ni 1.7919020773862675 2.639490773448511 1.2803944178319437 0.08057683041280317 -0.7950149222662695 -0.3316607378416546
Ni 6.402060545504538 1.0029366599539977 10.694528516762611 -0.8561575552138609 -1.0958167657455387 -0.07056881135749782
Ni 3.296470013215616 2.5471516606509494 12.183114718881592 -0.3427573619754484 1.0570882388270892 0.08185955377996869
Ni 3.322336510679731 8.706366950445775 6.656330636487278 1.6007073788510433 1.8393682300251935 -1.8442008755271464
Ni 3.940776717688027 1.4662151269543704 1.1590611774413266 0.6894089167989804 0.3108641128112775 1.4995023306649273
Ni 1.5643178689564994 7.298281608829227 4.8075865119198795 -0.44817541980164743 -0.5150778380511516 -0.2709942731995333
Ni 8.469424991853503 2.7862817498782344 3.450222969542358 -0.8326569009887597 0.8910371406998654 0.8106462010456233
Ni 7.819214990263653 1.9268678371927273 12.147314108334516 -0.4224384200468595 0.15140969406496504 1.1153057277080856
Ni 1.3408492083593946 8.940124480624538 10.283239102530736 0.37758578250854324 1.1990015633658446 1.0288169026862217
Ni 2.5042363666221132 6.337776060806105 10.565363630937485 -1.635979828900092 0.11759737350121038 -0.550547234602355
Ni 7.694761568699448 0.8020560253461645 4.667955843823455 -1.1800281075871355 -0.23089046320011206 -0.8922609858046375
Ni 5.780501088442075 3.057237500852224 11.70180512432929 -0.13150704160376708 -1.051891525117498 1.4954376736772506
Ni 4.725617276093441 0.7183437339670699 12.452319965347568 0.5855723445272882 -0.4107553272819765 0.2267165343280805
Ni 0.03613581353797099 0.8125655702301624 7.336797363602557 -0.5276788146446137 -1.108458108658633 0.9875854068402604
P 5.429590112945279 1.089707678625015 5.261149678900792 0.4628831583254674 -0.3864442613404377 1.9204893629772408
P 6.349005361001109 4.575390469007038 10.470759104593121 0.9449570306467725 1.0968508634370076 -0.5646391939190469
P 4.034801156634258 7.256334678996312 11.553943360567537 -0.30185933820950595 0.4272103875142062 2.1985708820408587
P 1.320271469196078 8.17959545025325 6.859113548068444 -2.001518964656747 0.6250585755473688 -0.7602618350558004
P 4.357964773440246 4.441113737570753 4.524890276189769 -0.1283875221381789 0.12094006472119817 0.03910159398715202
P 2.077010843531407 0.9052072968389496 2.9885795482420208 1.3969677650341101 0.6877271582211834 -0.9713512043695853
P 8.458689184950652 5.791497608782291 7.40161165525049 1.297843767746739 -0.9265119365677075 0.4854201630857188
P 7.354111529201737 6.877713589585476 3.908719207205953 -1.2524355148152688 1.768997650721431 0.952699650706669
Ni 5.445707790090846 0.5095057528031414 3.1837170382725084 0.5369399282315656 0.025626699429168766 -0.02763087434339112
Ni 2.473388380265521 0.6091075970701092 13.369816176280521 -0.905775989571937 1.4684038094879097 -0.1896391698598089
Ni 0.7767845131908893 5.634278094858035 8.939817211216218 -0.6196350905389522 0.15732708799066455 0.67256870531319
Ni 1.695512595115383 3.2372135733806173 3.529237763451818 -0.3266118625638375 0.3214837973086528 0.34081335087520015
Ni 8.857031383659182 7.848061069869063 8.223972601770159 -0.06886776950599108 -0.23379632399299738 0.223160441545706
Ni 6.299851566863937 3.5931898385176138 4.392263488364225 -0.9769050443082787 -0.9162133828551768 0.57468655085272
Ni 1.9187857206344654 2.229295424534142 6.219325566137191 0.45921727943810586 0.30394373154236043 1.510744993458282
Ni 0.39737755899028654 3.8510447392640974 5.5999114082164585 -1.37262558874432 1.7754153813223166 -0.29543055186502665
Ni 6.931681271119677 2.076573217404404 8.771458715680616 1.0038442919012842 0.03385705775876104 0.5562743668941195
Ni 3.4364265731087444 8.479462459191991 3.638315610047522 -0.2499945310194146 0.4124018617464639 -0.6664625924154522
Ni 3.883447695050678 6.954419207335432 5.2546216006531 0.5118631877685959 -2.152633496078796 0.9762270444046478
Ni 0.8424694014957316 4.900304590321037 0.8621430237030492 -0.7714687595152133 0.1370670521900478 0.4496666596351933
Ni 4.24753401032851 6.0049101796525255 0.807378303946052 0.3439727224397882 -1.2355899040128395 0.7170729583731521
Ni 3.9396128184140835 8.260919420322214 0.4355320394289848 -1.5321877367130903 0.5865899871585253 -1.1114508727383698
Ni 8.288536422294339 4.188975910057878 12.347098815386003 -0.5198348931201628 1.5306540736773833 2.7979778184583943
Ni 1.545248543252213 0.3151392296517137 5.009987664539191 -0.8552653824168949 0.25665420242777737 -0.02403004436601023
Ni 8.280621907231524 3.5115865326229043 10.29591350006427 0.10826941123206515 -0.11257626613753516 -1.6963354471700143
Ni 3.8947794183817894 3.8125057065052883 2.331728802954759 1.219232545700739 -0.9557075842950573 -0.7754377714652904
Ni 9.204301682227083 7.682871173716844 0.434858840088936 0.20288729311896672 0.5845349044017094 -0.8572279054599042
Ni 8.33750399254768 8.668824215465461 11.6172715856225 -1.7683335347748705 -1.9454321489655078 -1.1465803694516512
Ni 8.348137376314424 8.107349894521045 5.587646703227354 1.2227590707967586 -1.2731215824097106 0.21408701848952805
Ni 4.268838022638768 1.5827912782325266 7.258818905606617 -0.16712247681453155 -0.6313978875018352 -1.139746120138637
Ni 4.995716397201809 6.484231834244932 9.808689434961497 0.6523222963593281 0.004886381558023843 -1.214259775076496
Ni 4.725496230568952 8.879769319874937 8.708797172129769 -1.1429581993180316 0.48795269969958543 0.56470141461555
P 2.0486768796065324 4.20633197603092 10.956593008403093 -0.3839832013944548 -0.3032238226572004 -0.2629094393088698
P 0.5561306265978889 2.9222158738806145 13.21092902747656 -0.4385823767965737 -0.1437310944737847 -0.23045671809680313
P 7.706624030099478 5.861527100296908 13.881897405397044 0.09007345704932875 -0.01442157474196871 -0.7326823827756349
P 3.4455887881932257 0.7254053436419383 10.665446863944156 -0.8209193008368572 0.08355571053546901 -0.33375490136652197
P 0.3494118732319563 7.211910971508446 10.393965961617765 -0.9036921104597145 -0.7620811476527263 -0.9867611111667522
P 4.4032078660169685 3.9919231073821893 13.474328744364112 0.4957693675305268 -0.02985950656359374 0.2104476219647279
P 6.231181509701285 2.3653878388377794 2.5706531147904115 0.8258367927431326 0.9603844209454363 -0.23154429473402705
P 8.796806579628262 1.3778612052707901 9.840551410365547 0.21830774143909498 -0.21521290456385517 -0.3432217032063767
