# total energy = -381178.79236407287 ev
CRYSTAL
PRIMVEC
9.14306546321462 0.00000000000000 0.00000000000000

0.00000000000000 9.14306546321462 0.00000000000000

0.00000000000000 0.00000000000000 13.38180050063927

PRIMCOORD
 96 1
Ni 3.026583289061408 7.546805203153973 8.251218063126705 0.1604414652499301 0.3786399348046705 -0.18564470398843513
Ni 0.02647831796728899 4.030683895927998 7.8550764600297684 -1.361040969230514 -0.12209037627555748 -1.0481078897053497
Ni 6.890195947345665 6.047470448256234 3.915019544600239 1.2228606293716295 -0.18323815142947153 1.0294082564133176
Ni 4.314868660796533 5.894570962286975 9.507568535346586 -2.600308322094941 0.5285108236276059 -0.03653383325997579
Ni 2.307499466032629 7.576977319622224 5.8235183709239235 -1.4543169923775403 -0.5356417782454324 0.2764956626337367
Ni 6.333236963472953 2.1819560323279172 11.565916720956556 1.2363686911603933 -0.15153747789208094 0.008756920257023628
Ni 7.079813984750226 7.2230035350560655 13.028200116831284 -0.2109811258706947 0.21583331175667345 0.3575152370109133
Ni 2.9274450287992138 1.5139910890488315 4.975594124736357 -0.150627821593618 -0.262632017277767 0.8359692531914441
Ni 5.805736936951968 4.544716186825426 5.726353184217442 -0.4227590366110719 0.3089324430062034 -0.5813127979199859
Ni 8.159335739721845 6.826176202039396 1.993272416227313 -0.7332616523178727 -0.4974426414678917 -0.6260397085137154
Ni 4.4032455328517175 2.6700494461282474 12.660762253867809 -0.3770329953288668 2.0351479655651015 0.10916955444883134
Ni 7.136930715531183 0.29972249054312405 10.218557088096277 0.9809671301927946 0.4492424276135811 0.02091489577579624
Ni 6.43922337986688 5.277286031608954 8.84761840336934 2.2614808913015185 -0.615485844257269 0.24320399046014243
Ni 3.9782301286012243 9.079009278870913 6.633064599270436 1.1874107732044517 -0.438206995735026 -0.43831806739159357
Ni 5.361036512472341 6.786312436038919 7.492697455260804 -0.533403632943533 0.3091558718709192 -1.5156851110723768
Ni 4.614578351047822 6.952771088287697 5.112182381681568 -0.7466457869342625 -0.35395528757379685 -0.437027373604628
Ni 0.760597912369413 4.292084141330205 10.700676422835892 0.38469771096297617 0.2767417172062718 -1.6900462717271925
Ni 0.9959084200921798 3.363523542421399 4.383918006487404 -0.3895311277958775 -2.1190271208782603 0.2703286145910764
Ni 3.652170123300996 6.885569556153867 2.4118419592323166 0.22080094017459392 -0.16867850844774177 0.6631016463630193
Ni 5.477217447006298 8.867923323445911 11.794438502473968 -0.18738765482147082 -0.9762879795495703 -0.47603563654702535
Ni 0.933196133166201 0.751782168521326 0.5291457783283435 -0.4458208035265419 1.0156975916954443 -1.0606541018014766
Ni 2.1042308316925844 2.8736380877641667 7.061602826695237 0.2088406824889242 0.8405987815436556 -1.1266085543154145
Ni 4.105849038196327 0.3995629382431249 2.091414996646055 0.6513763875062911 2.4314187260776574 2.034838147634167
Ni 1.8734232837760638 5.208292458618222 8.3545657907895 1.8308144269179116 -0.9541700646046084 0.29664385544683747
P 3.2195842607366507 8.588602669474684 4.196572935190118 0.7692370419712171 -0.11294033434517324 -0.7428966043044753
Ni 5.326494010648992 4.3893755023419185 10.941576086557765 1.9293943787763546 -0.7620263831553908 -0.04163952991765732
P 3.281153664463075 5.842089765763412 6.836119285875523 0.394930701544894 -0.09779782227677995 -1.0758313237625472
Ni 7.4515527457702655 7.4962897657336445 8.724706343943282 0.1817091163794548 -0.16934468127683092 -0.7958623578682293
P 9.078332692016776 2.346165490439972 6.316250061901329 0.6807710386183243 -0.9991499717494082 0.17202479921215535
P 0.05291366352627472 7.741634787948503 0.31763741327278777 0.8475068215173985 0.0845890368959898 -0.9489191006183142
P 6.408603253184404 0.6280499761112689 7.358010041653093 -1.3392426424085002 0.1302443728412596 0.34751184594129825
Ni 7.4373809940957845 5.215579481898583 11.626884510966736 0.27169567014193213 -0.5583603028888706 -0.07295273820864209
Ni 8.007048839147547 0.43709247959683034 12.621888681871427 0.7716420518682839 0.030084478090206253 -1.1002717161930986
Ni 4.625202593270885 4.344885345149644 7.741693303568321 -1.4873782937078837 -0.9800415330547316 0.4489434083159236
Ni 1.957246909164222 1.9057988790530562 11.877498681884823 -0.9552149609293551 0.4139391243265968 -1.291335534314576
Ni 6.029422036768862 0.7647836077994631 0.3185206334094038 -0.6073092219837476 0.5709327402372425 1.3469711214010092
Ni 2.344464880239034 5.080874696466239 3.5917957182480267 -0.21495528002709433 1.7203863174716305 -0.48927887471017667
Ni 8.155760801073638 4.178124971736183 5.53940949349984 -0.27248217059896945 0.9479127708409868 -0.576096286716053
Ni 3.503686738014818 4.776300895317644 1.0722557607421292 -0.5208957302845094 -0.1859396095210346 -0.025882781304032845
Ni 3.3242540756846912 3.8428761855115323 5.243003192848544 0.1692698621748375 1.4262359178706083 1.4052145784239347
Ni 1.3301606121668177 6.004854619511229 1.5313062266753688 0.12608792747072478 0.45095066855393945 -1.0386997090175725
Ni 8.643406204659742 0.49860885354279505 8.281675443241564 0.21121021116236527 1.3640494170395348 2.543783904645651
Ni 2.3097578032349495 8.413055810023044 1.3608355972428725 -0.9287667940401554 -2.225114951077974 -1.2885749408503033
Ni 1.103613732818238 2.3861846885555877 9.057351185086066 0.5928879043520952 -0.6980982170428622 1.1839402981573481
Ni 5.736981083666743 2.21068354443193 9.093991106157238 -0.09578670538402213 -0.7132661830325523 0.5309659700363177
Ni 1.149457063718786 8.651689822090116 11.741593411939666 -0.9646874191961642 0.361243593705094 0.18199630860257043
Ni 6.996127505346014 3.5361171916853884 3.2722519757983815 0.0696108183196027 1.1683139044740007 -0.8212504589240308
Ni 8.303485311915312 4.656938173956126 0.5366824072994887 0.04196863112230192 1.4224209149998923 0.6267498472068624
Ni 3.508358844534598 1.2649339822018177 8.55030145338464 -0.47124592846786584 0.8446536683393195 -0.11925239260613012
Ni 8.158567722211744 9.005389314688381 6.330033233287961 -0.7623637118901516 -0.15383244457384473 -1.5166294772635172
Ni 4.895453326170445 2.5824497346487596 4.359951288639457 1.6835259541101715 -0.6787380673486956 -1.7372221580820468
Ni 0.6502081955842401 7.247790385888013 7.753482372348371 -0.39542743867565444 0.8049049276864718 0.36190256744533156
Ni 8.360675187221041 7.256576871926192 10.913580934008026 0.23925863265914926 0.7424404906036634 -0.40044108984016197
Ni 5.818098361638355 6.012031926004434 1.4644503024210835 0.011473290746922176 -0.6574369918780741 -0.06545977226570662
Ni 0.9733159050033777 3.684280569675692 2.08888602470208 -1.167158707823635 -0.3925436893699562 -1.1512281526363077
Ni 1.9877481759939442 0.8279877916545305 2.962154848722977 -1.4820622808116088 1.1556244819317905 -0.5164065841649041
P 0.03068138522197226 1.4882625024604508 10.687040454805365 -0.9304459815147912 -1.0163984744172108 0.18503998052490067
Ni 7.783217450281111 3.4800427703824246 9.686456270967163 0.022036410974749145 -0.809991855291076 1.2734897643824066
P 3.582344531340987 8.093011941885273 10.515779864505335 -0.09558204557238377 0.2596353965432884 -0.6001705540564374
Ni 2.917140793872026 7.380053972806108 12.419849789854105 0.6709273130550252 -1.0983503308006697 0.6298670526796055
P 3.9525929726688074 3.3036821780927017 9.811108255776224 -1.2661546641735741 -0.44739200466840373 -0.8100764445850823
P 9.1083128041075 5.55849015709305 3.4598512243192476 0.2597881200710687 -1.257246563050667 0.6420599952013717
P 8.976049217189406 5.724775091095497 9.26318993516527 -1.1986524075565421 0.6315308135352736 0.5689092820493105
Ni 5.831611812589892 7.947106901097291 2.901294946886837 0.23129258373453712 0.08023975878835858 -0.23645021667607663
Ni 6.311193032319936 1.237422497822131 2.6704855703571972 0.806500811418682 -0.21869983467119108 1.5229801020718934
Ni 4.759093645865145 2.1926168468133658 6.676059865237693 0.3017827193352996 -0.2486788975317846 -0.16816763024959425
Ni 8.861312887019686 6.926823068125003 5.6544530306736 -0.07589922243147575 -0.8330574788612878 -1.1944160008776914
Ni 6.021449283568767 8.798957179651968 5.073910423401432 0.14868663870684715 1.1839706371746512 0.655685042183974
Ni 1.1206381209588085 7.393000553690666 3.4824528824736465 1.0500071636105917 0.8244345130789673 0.39133347111193895
Ni 4.764451482304659 5.809247874141001 12.674652399121921 0.744575534668795 0.5528172615834543 0.4923333452657843
Ni 1.1924751873500343 5.056618143438885 5.9432989303832 1.6813597996967882 1.0525700392417614 0.539180130415994
Ni 3.569388807390832 0.5467114359522233 13.049797866383194 -0.2747534831316494 -1.4133834873879723 0.012926478253680963
Ni 5.2671189426657135 2.945566584811357 1.4265934393190254 -0.1018020583401666 0.7805452678951849 0.6993146059484666
Ni 7.75491966226013 2.4687557139570333 0.9642139832021221 -0.019056245300502664 -1.0600473214554131 0.5474187162757024
Ni 6.8233784239668855 3.2245123730931318 7.4181074118184895 1.364815862891914 -0.49159620998944364 -0.7515439955668283
Ni 3.1776815911081684 3.0623235324778904 2.767570298086431 0.6019798393510343 -0.6037901530868957 1.1344421914272205
Ni 5.910489039490377 6.8690480366211 10.701988452748983 1.0835772862565534 0.47486809860148543 0.3785964831612447
Ni 8.05437334667472 8.267370202809376 3.8794237616201808 -1.2058139583019878 0.5376498098143966 0.4460434610603092
Ni 4.8869411321001595 5.056544998914113 3.644988245274993 -1.3674607567139287 -1.1176570015490817 -1.5844412947011681
Ni 2.5488763977786335 2.3438888671064584 0.6811510724822707 0.23105552802306661 1.2961704938093743 1.3106275497749686
Ni 3.0620583835755935 4.768328142117549 11.313027755318076 -1.3278148601875326 -0.5058264946562128 0.35525523733214304
Ni 8.660576881849856 3.0854372023056893 12.181520241871393 -0.16079730592745212 -1.5013303850126016 -0.06539832290015189
Ni 0.6483466674288051 5.926068823266709 12.362321621121307 0.7655971312257848 0.9671063130503021 1.1636440098021574
Ni 4.076115788876706 1.3169671685111555 10.835645442863974 -0.1665367795143906 -0.5783753125582168 -1.0301466772412389
Ni 0.6234391281309845 0.35107726138520584 4.775014465988225 0.5240435318848717 0.9915086531540667 0.49206235099258483
Ni 1.5909939875020456 6.759523253841351 10.058832303659276 0.41032621016435783 0.38166560900487173 1.8393741435624644
Ni 1.6332349505575965 0.6212959935551791 7.180540395506522 -0.5546725696246383 -0.9272115337378933 -1.1611271569175743
Ni 5.203656924360827 8.576049240410772 9.024579695068748 -0.00971697017744778 1.0581364775859454 -0.13476694330196146
P 4.820589905066798 8.142741075664308 0.8381338515468995 0.7477968698195702 -2.624058373326687 -1.8856041210642815
Ni 1.660554430559758 9.126132638954962 9.432268990013988 -0.2425642999936145 0.2296740742945077 1.175772160524259
P 6.302141397379462 4.0766918020092815 13.156946366414429 -0.5350468249739108 -0.32091506928937635 0.04190023977821171
Ni 7.166983972146681 1.9639579193120085 4.893577169110055 0.9528359191742171 -0.967243867069431 1.2525640699733331
P 8.661162038048028 1.8795034223976963 2.996145109384301 0.21241528721406 0.402406698206965 0.3573949093829651
P 1.4863698878819875 3.9143292431477077 12.859401754096378 0.3418543905452048 0.4015754605549213 1.03375547763842
P 7.2724766629984 5.9246699342304545 6.691127637340625 -0.5552089017440824 -0.08467054086620256 0.30443635490806276
Ni 8.325346381756399 0.07197604098829156 1.7901372706449765 -1.1254201904342682 0.35359636157248137 -0.08230178352370987
