# total energy = -340856.00794147234 ev
CRYSTAL
PRIMVEC
9.41353369463230 0.00000000000000 0.00000000000000

0.00000000000000 9.41353369463230 0.00000000000000

0.00000000000000 0.00000000000000 13.77765809666258

PRIMCOORD
 96 1
Ni 6.0301403654133 1.2883362479908338 1.522279509483005 0.2054835930912332 -0.35577897104609696 -1.367792429021735
Ni 6.703763436946079 0.46249727483313197 11.264764633030786 0.6848930312064979 -1.011991860709083 0.32308816568129517
Ni 4.468934010594245 4.960687607399691 3.425181141449843 -2.654714150539331 -2.549772261018602 -0.7158182600304446
Ni 4.674487936585242 6.9808413934224935 13.266672166317358 -0.9402534545235162 -0.13454428576819408 0.12999086206955676
Ni 4.50962871759457 2.507916044459491 2.7171751373890323 -0.7936843763803041 0.6774926249773687 0.7424829138058244
Ni 3.1715890106720424 2.9682378516109726 11.720929423617072 0.30697660483141326 -0.4878441991461792 1.6044974420210947
Ni 2.440543382418936 3.2477350862967524 3.930338669159235 -0.19032154063881418 0.3719854056026303 0.052173339569445636
Ni 7.3096373050827586 8.0487315048106 3.895508593771495 1.2951263688155759 1.3756564051508438 1.018934353465187
Ni 4.195310821054939 9.01011689378333 0.8125178813519743 -0.5160093487264854 0.05235228834947113 0.5367926040204238
Ni -0.08305560949892682 7.378647922019927 10.737590732262788 -0.4481689920437442 -1.0645886609691924 -0.299340171332078
Ni 1.5864816933098873 4.1175079634658385 -0.5313685714687489 -0.1781370827574803 -0.7811934430021449 0.18146974667513907
Ni 1.0352063217269616 6.953382115069511 4.480811066301465 -2.4174329533215273 2.3283288021640027 3.8238610924375886
Ni 5.151970616015602 4.033774579526934 10.830148362868846 -0.730037231843304 -0.47493263329083363 -0.6513658459833297
Ni 7.139468852978928 4.632277650628857 9.384321810215319 -1.2553879125753735 -1.1969991882238353 3.927574251757539
Ni 5.127467187303633 2.4062781190645106 9.320902832407967 -0.2920323248167551 -0.7742645770927956 -0.605596610168015
Ni 5.429010918356464 4.082593166273101 7.428072740348519 -1.9842120979471825 -0.492934469184893 -0.0472843869082605
Ni 5.579260332752063 2.401175983696901 12.607425443739217 0.7074526616745687 -0.04044268139607873 0.8120176274718531
Ni 0.769288109675456 6.051518500874261 0.6654069391548274 2.4564658988542725 0.2260462477339333 1.0550239000988926
Ni 5.987591192236926 8.680784410691416 7.544949294402329 0.2607800516706928 -2.789493949357099 -2.1668822926883258
Ni 2.164105546246944 5.693474739422183 3.2953543888255146 1.441491558478098 -2.5900637615487976 -3.855347335971328
Ni 3.487460140303289 1.8732932438270928 0.4902907336391596 -0.14244425734156113 1.436752758241532 -0.9916855450515633
Ni 1.632127919135604 9.307932865416284 10.582550770471292 -0.677339387228956 -0.45348654760191576 -0.9304876333860039
Ni 5.9147963346765495 3.337653162000453 4.830020226199112 -0.46325545406322155 0.4443159368462412 0.057896872316784156
Ni 6.081434711572164 6.139535042732469 3.730562770269047 3.2113374161324373 -0.41666629344977274 -0.1397109175707981
P 1.137249029079151 2.014825725841868 5.617385145000805 -0.21746390538156096 1.5456037530086801 -0.381532168750801
P 5.8099954618950065 7.959491203546876 11.69256173924384 4.186636035185544 -0.8699443245853082 0.038300952462727585
P 0.04323447844346267 4.708508448058565 2.7016333929389895 0.3610877848535201 -0.06780667523132838 0.28336179362595065
P 6.771493813274399 3.1664680482366556 0.7574957757732339 -0.7941248063518324 0.4198930279171865 -0.8627709467653205
P 2.843470873451755 0.7875211834642434 2.1790335282874516 -0.36162540252454495 1.0323454846647706 0.6048517615821906
P 0.30400631151808255 6.851273512980101 8.706887198811055 0.8382181971266208 -0.10306061333761606 2.2830377915366875
P 2.5829983907547924 7.615756013605438 0.01715710686532291 0.5420962756215245 -1.5754195508185318 0.48180802025442826
P 7.3346208240230455 2.4159740589697463 7.18633036602966 -3.913061917073977 0.2462641174427049 4.463088246175856
Ni 4.499396206257685 7.106446176097794 2.055502547127804 -0.21884484488948763 -1.8592510849920494 -0.025195525429021128
Ni 2.7116249178083263 4.678036838861236 6.416269405221952 1.5426534121311044 -0.37144161728401837 -1.204444331647971
Ni 8.159980648305819 0.2866477550275441 2.162513717666385 -0.7277453504853337 -2.0759014933333795 -0.5175242427091151
Ni 0.8201955595914989 4.59398339477012 4.976683084183162 -0.33848264585949445 -1.2726713822461695 0.11727778537826254
Ni 0.955341900216263 3.5107774637452978 7.3909005777293 -0.9014871323885958 -0.858463063418586 -0.3449389430077995
Ni 8.768273794651863 4.060367812762168 0.5950850169469805 0.43756833370976256 -0.8834084205100141 -0.016806272924061377
Ni 4.693700959251831 -0.058162460483970224 3.100813356130766 2.9379134504454885 5.205962224772512 -1.6985990463932101
Ni 8.265308678985122 2.954541159803091 5.666916336262338 3.518006517025761 2.0850430506233315 -5.037131249907305
Ni 9.00707632233732 8.745568350912613 7.970347832180574 0.2311871685049244 -0.170916396639325 -0.42890448738717746
Ni 4.905900840168164 1.323806443682997 7.223943082034864 1.5530748645747445 -0.4397535142865394 -0.6792679717102366
Ni -0.09824152236798142 3.636551690030593 9.843998790295432 0.2656335231082522 0.39735885137041244 -0.9895911244163794
Ni 5.02378652505483 9.354143903275315 9.482472962657969 0.028065133667332313 1.4187210975508018 0.8264862534016733
Ni 3.407962846614245 2.0169155303651327 5.499917421018791 0.46726766054640817 -0.7528354606847422 0.29985053530959327
Ni 4.325142280446211 4.495442522024482 13.016965942328763 -0.37867618735924463 0.7927826905016411 1.3600760342140834
Ni 8.296175656605769 5.806051191195692 4.903096548422757 -1.5516311901496826 -0.2657826470916068 -1.8520491679269715
Ni 9.233904834916503 5.965121086844889 6.9686160369613965 1.6979477859624563 0.038839084354384726 -0.9139852648556066
Ni 8.310286543904748 3.4349702753405764 11.867330585359019 -0.11444854345958354 -0.9078639824492171 1.9464467062729507
Ni 1.7357709272488515 7.763708525732224 7.402418977795365 -0.07624323603445579 1.7818135715391765 -1.8373941370179583
Ni 0.8916791118811964 0.7766975021991561 1.0999789657074917 -0.14664286880394098 -0.018685492224645238 -0.16037307390583994
Ni 2.186961606528412 9.413816294595012 12.828639724707253 -0.46347888292793726 1.1309318642811168 -0.01807125567941404
Ni 2.2673625994707596 3.5754766821614967 9.319869226387 1.1436074028662562 -0.13034078920980777 0.8663815469347144
Ni 4.0801456474620705 7.777329909268997 10.793017619798738 -3.172407828946775 -1.6179332558110266 -1.7929333356014219
Ni 4.715088508246681 6.587402744549361 6.732576381472239 -0.19970349607434637 -0.4923104624476489 0.230350531536242
Ni 1.1088013296678674 0.8937105524943516 3.7611492245798157 0.9275933425573445 -0.5497314235692792 0.22064641687460065
P 9.426618700683479 8.086187956153253 0.4563342341962798 -0.38745547621377147 0.4806330261097206 1.018614251121607
P 3.4938519298136335 4.277330941826121 1.4144004111198971 0.17785400429942272 -0.5119346644364796 0.2775786112852703
P 6.92418133294714 2.4018161040013246 10.54460669807321 -0.4831637629513743 1.3058730658091187 -0.5309430872181824
P 3.5054399900304736 2.856273279540222 7.545582825233031 -0.67483204742607 1.0681964329251088 0.5770244549572772
P 2.557082931959536 4.824756178048619 11.38920496156407 -0.5458778541511438 1.4693024100427792 -0.9323470551922459
P 6.381500517804487 8.027070963332982 1.8825382754590654 0.06189159529847405 0.6868743233025849 -0.11395257765977149
P 5.397786226448049 0.6561007195525788 5.085292672776024 -0.364624594362185 0.2505768858854459 0.5834025905694791
P 3.784796021707925 7.956130571948655 8.345169335082264 -0.4296632199300729 1.9073098881724895 -1.0372339231053234
Ni 0.5337294857680045 8.191468919163112 2.7530519977451826 -0.8186914399476029 0.4625538000105066 -1.6008973833746623
Ni 8.847705193603687 1.3121524887289369 10.58573348627902 0.9347682630392288 -0.09412191608708952 0.3522473037437546
Ni 7.3027560118102075 4.341841889564549 2.5058808384327804 -0.37435750537923274 -0.4107118756385507 1.3867131771856376
Ni 7.538197907897441 4.603481650463696 7.338999999988013 1.5455132501774027 -0.21656556193700766 -2.6612691780490296
Ni 7.0372002208134115 1.520473993683176 3.7835515525278547 -2.895565067386265 -1.307067600337852 1.6085399875215844
Ni 4.657449440246916 0.001292478202901808 12.450718345096053 -2.1672815850092735 3.1178353930175335 -0.5266004939787704
Ni 8.155895174598175 6.749164910890692 1.753606749907541 -0.7997123277419388 -0.13092957183374226 2.9430379161562477
Ni 6.672510504435999 8.792363027872735 13.57498893500302 0.9792568323699071 -0.4651411011217086 0.6823972613678377
Ni 8.189397941707625 6.206465268680262 13.45622590875794 -1.4484795597601572 0.10317425609734489 -3.931721698267009
Ni 8.076652046324122 1.408885962967968 13.890497643579558 0.026985013229276104 1.1358285302517857 -1.120639481216173
Ni 7.524971892783989 6.695338324115801 8.65294859098289 -0.12638617543743394 1.416058206006658 -0.7164425238780049
Ni 7.312753184799878 0.709370025121266 8.584941456758244 -0.44087451526486005 2.1310742818507817 1.8106022136360949
Ni 3.5413432082815115 8.860695870369925 6.214687990531934 0.4152395883055752 0.002118846115215706 -0.1642811507109945
Ni 5.898209687964874 5.553617866439574 0.8626025884061556 0.780919620515468 -1.0708937772516138 0.35495030449721454
Ni 2.7985871438710137 0.7470222779688017 8.554300403950922 0.2775305316561543 0.2916751985876525 -0.12376802108829653
Ni 2.1345941175062504 6.84094686630433 11.742174828250203 -0.5984304314368791 0.6321357941091242 0.7792388903789353
Ni 2.8527714449336705 8.295996799461888 3.111959921608231 -3.2060085477203564 -1.5760535848581052 1.0909221566573988
Ni 1.4585988354335504 3.073885942442488 1.8847834032914914 0.37398829496527203 0.5958824682040447 -0.9391900462560083
Ni 2.4968457286065227 5.90035597369147 8.277575454995329 -0.5561000460997843 -1.0314437987861074 1.7400408584777647
Ni 5.968905327468097 5.854304965908544 11.582670968688744 1.9077055809490113 1.068533247439237 0.43192707626358523
Ni 8.825555148363863 2.2035011855706443 3.0074979360466774 2.2313835576955054 3.2271137051300878 -0.7049905732873213
Ni 4.8515847496310665 7.821771202756975 4.380138028130063 -0.5380395890536476 -2.537996608539913 4.2306435511147455
Ni 7.979287865314556 0.6629462413963529 6.27442815929563 -0.6069767783449933 -1.4329362127089194 -1.6811404845971305
Ni 9.058304773758962 8.935203991098023 12.345305592611751 -0.05710265855026294 1.1695241227320181 0.38629025226107666
P 3.016068017298839 6.506606383183692 5.071432185478481 1.9251201768810327 0.33712536050065167 0.8482565551992295
P -0.11113053296822292 8.53694561287394 5.551776579210969 0.6576653058387963 -0.4697354053606103 -0.33989803814978237
P 3.3433106958674883 1.2284191047900324 10.906973154286922 0.9717145012462749 -3.9658410085482214 -2.169171345832819
P 0.648954905977759 1.0648401264082064 8.802036375296638 -0.1160940494828065 0.6875890899814222 0.27410916467943114
P 0.6285717810488203 1.985653184321164 12.949042588555725 0.17251870812943837 0.5156419380847378 -0.08144072107499523
P 4.438415333727474 6.068227523526487 9.206837159573285 1.185837515180061 -1.9975029015188177 0.6242617906776862
P 8.255744528554326 5.458550587698822 11.325538407815447 -0.3619082238722864 1.0781759127353236 -0.9309851418477129
P 6.880662565780243 6.803396279622791 6.1608868202985425 -0.6173321534373885 -0.03190019114270635 0.5511704700086508
