# total energy = -340891.4160611092 ev
CRYSTAL
PRIMVEC
9.11024259811475 0.00000000000000 0.00000000000000

0.00000000000000 9.11024259811475 0.00000000000000

0.00000000000000 0.00000000000000 13.33376091977638

PRIMCOORD
 96 1
Ni 6.5029274102251735 1.8738401919464795 11.629545915251265 -0.018680350018322665 -0.46064758412672924 -0.23393079268833258
Ni 4.748978007232754 0.37175528125349744 5.866467661143981 -1.4041897367038463 0.12733208429047102 0.4630209694549123
Ni 2.533239531193805 1.4669585493730606 4.906770137317935 0.7146954592799111 0.9128773765034085 -0.8903252022345055
Ni 3.2497145385868134 4.313717959827123 4.679616266291977 -0.10520774158760589 -0.03501353996070744 0.01984685952259808
Ni 5.11981953118138 4.561070149104606 2.6063638022134596 0.4006357223494713 0.5154925569910671 0.016798045393945263
Ni 7.155102327311361 6.191311571610158 2.5739759797354522 1.1173314998888628 -0.7294821306707824 0.08170425914902703
Ni 5.086822233492049 4.311385737792759 11.368004523557678 0.17617224572162563 1.006407681753086 1.0479721354584337
Ni 6.313079070482496 8.15952476376751 12.398303692304491 -0.5351715234772332 -0.11998541411741273 -0.2691515635638397
Ni 1.7882130243644732 6.671448672692665 0.4873624342678759 0.30417950170225033 0.0738053160169245 -1.3441691331758396
Ni 2.6526383670624907 1.2688016686329586 0.49914653271104276 -1.1262084906635186 0.541477668200919 -0.5441377315315855
Ni 0.36460100795823736 9.456249325116593 4.625241784994689 -0.28465505851607753 -0.7945374684092188 1.2290112223540575
Ni 8.663567140702256 2.4089393849560254 1.3102596483664872 -0.16816840158054264 0.668769643282074 -0.05514604904452438
Ni 6.867710623029845 0.8060487319487909 4.957158887599462 0.5603320819032608 0.4013746573980249 -0.9402393134561292
Ni 0.621512574503918 7.74261274439786 2.6830055377935365 0.7611254686076762 0.3483477115790323 -0.1766836381404054
Ni 7.396359764475601 4.1165358750154475 3.8173227202972453 1.5941690635118932 -0.23368936610148786 -0.42746518383748966
Ni 7.504106600414785 3.9522782059545287 12.604470298093863 1.1802260825305544 -0.498808925687799 -0.3189756861748184
Ni 7.973411623376746 8.995088858790266 7.007277713350392 0.33243258301067263 0.18824048974006935 0.39199450173470557
Ni 6.80794743339925 0.8544441612103222 0.7634947900639573 0.19610369453822998 -0.3796138686821656 -2.329856808772755
Ni 1.6448269204626542 6.43714235041991 9.356633380449562 1.5010848446606988 0.25874399507727047 -0.35971147333128367
Ni 0.12920510070380314 4.905583072743412 1.3332866968589097 -0.5830369796999443 -0.49650727413781587 1.3686015551865913
Ni 6.276291911987321 2.0364580173894855 7.136348893492066 0.6418895310617784 0.0054710504169002555 0.34623349344950693
Ni 3.4468875131561676 4.415670681649682 0.6312878645151417 -0.3225153238969607 -0.45617103641261436 -0.6377125168659533
Ni 6.032574709396212 5.621101504692638 4.9162775862049 -0.7784598461210658 0.893983367812383 0.00973368234799614
Ni 5.202376547100961 2.5498657234309756 9.71797838780201 0.517649712543386 -0.012784810469494111 -1.1305618825362078
P 0.35383087948547987 5.28549839804449 12.606510992373932 -0.2393059409573169 0.3018606237610865 -0.7815487694590346
P 4.1669610662662615 5.99269917875397 12.722367766027926 0.4065099217420612 0.08997189847445795 -0.6768223383832214
P 2.4418820211914265 8.392938282292736 1.554222827500283 -0.10549339114882476 1.4793407681153876 -0.4061692505731908
P 6.298848871975943 7.914668780886187 5.9040556099392365 0.6211399572192529 -0.45441934382883037 -0.6564208919087341
P 4.689178376632872 1.0640489724519189 12.803343243880454 0.7044611831464125 -1.872542402784317 -0.8663954308917853
P 3.9736326139566804 6.104755159311335 8.025043921735191 1.1517850535810423 0.3742559468043619 0.7415249207679293
P 4.845337040269766 1.1332503731278334 3.7591875309695446 -0.4445699618385763 0.3867304251222888 0.25047044221456866
P 0.07197273639018682 5.905022206649573 3.5177661094435138 -0.32278580394952794 -1.7743473450691185 0.45946513378285386
Ni 1.2217381567988652 1.1782640804395361 2.5737892197678565 1.0431554307960809 0.35355676658379753 0.2692407808435363
Ni 1.8014137654886702 6.486264777018716 4.690417369588627 -0.05977274918325835 0.4630135132557446 0.2522905261424429
Ni 6.064059706860136 5.688954589504936 9.153479531795986 0.24728767361121284 -1.5551849689392119 0.6915578448211831
Ni 8.867472584347373 2.396676998790967 10.329677409276952 -0.2678570131221322 -0.7136276801370292 0.7974137615157493
Ni 2.4070626750377473 5.509701461582438 6.792603963280981 -0.9620720930605042 -0.9636327526794048 0.6397886826686917
Ni 0.933480979496784 9.052893346321687 9.173453738086394 0.0711046292563098 -0.39539504277582227 0.6081646280055074
Ni 1.3054612837356283 0.8219470158244542 11.721921950345216 1.2330483685379086 0.011600817463721956 -0.8363387207157209
Ni 4.255293975817824 7.002378225029762 1.4502467208580663 0.4263038165395368 0.1769150374249211 0.37879394388403154
Ni 5.722261635433207 7.8938792079079825 8.041297505061403 -1.845631951546718 1.1199524824514777 -0.2669892658051983
Ni 5.2194035900002875 3.0412995249924353 4.98521296780502 0.5646394510293631 -0.8278515091803161 -0.28518136333319277
Ni 0.7740781585691191 7.424100452345291 7.002611447233199 0.06079553402081788 0.5279606075510908 -0.3158602804742883
Ni 5.337217243704991 4.471662230959079 7.111694755720981 -0.9869380030642487 -0.08672536651270225 0.18766481974225743
Ni 8.269786026587495 7.235855515251239 9.080410833254495 0.26497634914022755 0.6425284501973579 0.3384235104867849
Ni 4.635473498146232 0.20796861172061276 10.737650458880516 0.5259122096624943 -0.5788034012345709 -0.488989368494216
Ni 8.206078102031588 7.257465010038398 5.024067240282996 0.08133093497000833 0.3612968155405326 -0.6848503508940206
Ni 7.09440989296395 6.22153024539136 7.1456021666182545 1.400695864617975 -0.5298082022827908 -1.2654787211524723
Ni 2.385908692366674 5.5924042413791675 2.4211972159999227 -0.6743399382809999 -0.9735746943834652 1.411695043941956
Ni 2.4055412645700174 5.174854505046994 11.575117683524281 -0.041043033984238995 -0.6827181350423661 -0.0846376307457381
Ni 0.9492599191980325 3.562423606280437 3.8340163283275963 0.38511757210921416 0.5747616270650295 -0.3780462670847296
Ni 3.5866659610985785 2.82670776710392 2.488012644211774 0.2921721928287291 -1.2459342233616415 1.2622823257023614
Ni 1.1898887496420725 3.476240713916804 8.414856614294603 0.09666448000328512 -0.42064790380534 -1.8422038997017756
Ni 3.605505942219931 2.5830725566937063 7.025038130756619 1.5260551414527912 0.20023648575968095 0.3766110773000998
Ni 4.16967591847814 7.0600369486840355 5.869494994667495 -0.17818027729058988 -0.1447780476810603 -0.004133048331767076
Ni 0.7215157044696252 7.023176908250288 11.507715555706909 0.5859109588136296 1.9125395120025452 -0.3021691561404409
P 0.15421180485273908 5.5819365729514905 8.05524437503175 -0.19855241318903868 0.01649234122806837 -0.29412957366541603
P 8.563946640914061 1.5114165319031372 8.42821678465943 0.36814314903840467 -0.2520061621328047 -1.9337351722435536
P 1.936974171236117 3.1860977164541238 10.377745780839133 -0.20332566620796594 0.16673192624433222 1.4272466185233097
P 4.059141348388504 6.122802549350696 3.7389463945791093 0.4839217241633214 0.516328165518485 0.3453228087097795
P 6.947580117464514 3.901033092894758 10.309503688679698 0.21801335012712775 0.14626774485270938 0.13450109123508447
P 6.358557400152607 7.5930498962019035 10.11183056180688 0.22785476169758176 0.8448876387269965 2.1772842047479406
P 2.3009192417471893 8.53273495071979 5.607006137772446 -0.5008305841035181 0.13311578085178363 1.3756283801263856
P 6.98595245812367 4.116781851558134 1.4266858121655899 -0.041893812020308493 -0.47328224217160425 0.6222121072375092
Ni 5.281098151003091 2.846249236884046 0.3370334146926611 0.2607201449670349 1.5597731025305266 0.6439091325949684
Ni 1.4240766387646444 1.1749935034460326 7.123628262138224 -0.35058251444682204 -0.15566949778258352 0.03773479554661244
Ni 6.864230510462942 0.5604621076332615 9.414702065008312 -0.866430912115411 0.4208021699950172 -0.788611589843087
Ni 3.0735042315997756 1.5073260331006773 9.471943539564252 -1.8889907781483273 -0.4519665114129635 -0.1925658565883006
Ni 6.424306018988583 2.244809259287611 2.6076437912596635 -0.29009551280535845 0.14461529685095093 0.5041069408619447
Ni 4.2041399651812705 6.6689069150849 10.163005526000774 -0.969495124997453 0.9505550935598402 0.9457450737657066
Ni 8.42846822734751 7.207568212842245 0.5084799759696623 -0.8129491381471871 -0.99112787277588 -0.6833909927396747
Ni 7.7228890697713 3.861521971945385 8.143661098812672 0.4836628140749799 -0.3458200600611722 0.4362293031833649
Ni 3.531029711239731 8.100016660921925 12.519014403067507 -0.2208032541674391 0.03442732843993426 1.2350126913531312
Ni 0.07583639015883549 4.690235164742194 10.112443681115133 -0.22887420410103163 0.9402125739832518 1.2134089970404265
Ni 8.755671690575017 2.5203303178239036 5.819106244385967 0.7233446503144768 -0.5607614561311955 0.9775300794867873
Ni 3.4705559227080403 2.468010196170168 11.782697287897756 -0.3217092830558975 0.9632676560305024 -0.3492470834648501
Ni 1.1301711112230863 3.1614454007315036 12.783956648219798 -0.12074671776346946 0.13347393552215078 -0.5296130555528492
Ni 3.0040568543811745 8.264893826460723 7.972015023228824 0.715893079132438 0.11103334713044749 -0.18872051470028142
Ni 5.920764705381534 7.876551527012038 3.578914966931245 -1.111841166198253 0.8392157851531997 0.4322618338951846
Ni 3.2749590200603467 8.240478377038468 3.606435186936748 0.41496396604668534 0.6338381215122116 -0.06703303029009745
Ni 3.5601642661846458 4.317817568871905 9.389620656872339 0.05845377326151868 0.2827442146466098 -0.7501620276176371
Ni 7.672145020039225 6.105556860635647 11.344163019401693 -1.483594401185419 0.04248310886487522 0.24700176693967782
Ni 0.39716739118575073 0.05940060198618974 0.5664083627966593 0.123309079174007 0.6916432054461379 -0.5532147541321892
Ni 4.53502396630676 0.6689177204250765 1.589330968335561 0.5885653657173412 -1.653656677354565 1.5857594992919593
Ni 6.219252684810926 5.806048534066222 0.32100121025486833 -0.9059893911343235 0.3616243740832804 -0.9973160038644631
Ni 8.334969810399523 8.91727827912031 11.093128470177765 -0.31249624909806184 -0.23320111361115967 0.7042727212846903
Ni -0.08904624152535418 5.042983747439851 5.947283709755879 1.0732329669077516 0.08485797428666031 -0.5726216979038913
Ni 7.949497237282186 9.291718348786024 2.6120704580037954 -0.20488761137844713 -0.4229513551275361 0.9779954491589801
P 8.407405347099655 2.109503940325173 3.7068783416065956 -0.07850092172038092 -1.4573118133398064 -0.4989657629806374
P 1.727793897286713 3.2328788107762434 1.657639565263945 -0.5432244756886966 0.12591849177239606 -0.508142544383899
P 4.583053163826957 0.9788499862590343 8.08669930869601 1.110517562290823 -0.9635103681689277 0.5349318966626013
P 8.473071973754735 1.6472684654048797 12.455239062718418 0.3357541911847379 -0.8102775048522949 1.201047904371912
P 6.460719657548566 7.848054689029645 1.3264868119899653 -0.07767636893655654 0.6501232318254803 -0.022147225521000565
P 1.9173871502443824 3.3943123047174235 6.237013102217153 -2.245364959576262 -0.30001225769843815 -1.7850511046398678
P 7.184136669590737 3.957325280200771 5.995032311812566 -2.540090257844148 0.06387263028424484 0.3051050988403133
P 2.5215693107796597 8.161911647255806 10.631034204013458 -0.9002157218753399 0.7316364580096238 -1.1895828411551062
