# total energy = -381162.06555130915 ev
CRYSTAL
PRIMVEC
9.37746261555238 0.00000000000000 0.00000000000000
0.00000000000000 9.37746261555238 0.00000000000000
0.00000000000000 0.00000000000000 13.72486442631697
PRIMCOORD
 96 1
Ni 3.4071228363695503 8.107679078697998 13.647950517962107 -1.8444142770895333 0.6138537079704848 0.14142147250400158
Ni 9.260197355306179 4.37352661426051 13.439648005166447 -0.49593648923601047 0.9001313896916497 -0.02408223776018433
Ni 9.295465991859585 8.096276084268606 5.569330320134011 -0.12565495369836427 -1.3825844997292447 2.1007044113096724
Ni 8.488910440155642 2.483386512963568 7.191471919952672 1.5011830608014596 -0.29815335011282845 -0.468538813949348
Ni 0.898208994922684 1.4454702058632805 8.88048139179244 -0.30155029160951935 0.3115413413839602 -1.786043036239492
Ni 1.357725289024613 0.4502973106944166 4.562240545589431 0.3100675850519111 1.811538866517751 0.04005007394335038
Ni 4.214794306113869 5.879950326530902 4.846126344076163 1.5248449231947738 0.6712736406508503 -1.4462031050211546
Ni 0.7978166943776673 5.62903756177166 4.952946895181498 -0.2150182720545458 -0.4342012170097425 -0.8486537906376482
Ni 5.190772473242006 7.5316309333007005 11.067304714682848 0.4992424136807918 -3.100224879024622 -0.24209378811509918
Ni 1.0015973947441734 7.905500986676872 3.5512263029784847 0.2588681793599606 -2.538424697216267 -0.812065449990653
Ni 1.9167814723281118 9.021447159440786 6.712597729962097 0.2949279011969953 1.139023640150316 0.9417333815031523
Ni 4.374905101251564 0.71903381847335 6.682705192673797 -0.724566695647036 -0.24350249553716777 -0.09279908351060792
Ni 1.1879744624120707 2.6833609012915134 5.475699170068922 -0.6199567355444291 0.6978567904560175 0.04899288495893498
Ni 3.552726696982352 8.774313512078786 4.609921191539831 -0.2585303364045677 0.6840584511203445 -0.3026766919044787
Ni 6.701819274536815 0.6065211476158423 7.022573504683577 0.8998159153337599 1.639422536033054 0.22116012328622556
Ni 5.1778878397337955 3.42018564166572 4.000605560091785 0.6653220510531058 1.3773255653231506 1.6809620500377371
Ni 7.778051893510865 7.288285780798466 3.694788689999775 -0.1053506949233734 -3.10259132237427 -0.9989080309419313
Ni 3.3220692512753196 5.331818887068063 11.186711695988127 2.4759427766319617 0.64331263666155 1.420435252028431
Ni 0.4941153798311101 5.728710610941072 2.537356623028929 2.460867627466394 0.05470176241825418 0.4728040169836051
Ni 2.600801721228712 7.672546062651417 10.80654655201948 0.5335013348636619 0.4491807211377103 0.4930830789476154
Ni 4.619760025220191 1.4524095281311669 8.958919177075867 0.6987952431098868 0.9898436067468179 0.027614933503791152
Ni 5.877371524336755 5.166784924105178 6.149480167639379 0.7103909183672862 1.1122882810380006 1.9366374334920131
Ni 5.169541898087284 1.1068687890405164 3.876807113086438 2.012295229336644 -1.7400043488128742 0.6450082791964182
Ni 7.536047718149585 7.786088378894079 7.289508601911617 -0.2512991087634511 -1.2059589685202845 0.43770820172173647
P 6.497737557623283 7.554239995446477 0.8385917769252673 -0.1296771874838799 0.29208348976966475 0.8144856293963715
Ni 2.916559639342596 4.568230868649872 2.6121850229868038 0.2926082519248832 0.5670377760582106 0.8404784539157074
P 7.393707214495195 2.742110704005444 3.1257004972879185 -1.3382257711082115 -0.6364930426365555 -0.6710471264623411
Ni 3.5118128279893948 6.164068686088233 9.179381445526621 0.8853958832536881 1.2112312726628174 -1.9340545032561856
P 1.4825111828337558 7.996218559135701 8.528987839491444 0.269875843324374 -0.4255291431570413 1.031736647436178
P 0.1276319536852285 4.186549388991066 11.329600781200181 0.030085763641786896 -0.5091385897485813 -0.2945226953387766
P 2.4691609023144006 0.41077505714004575 12.36162804183529 0.5163006547146591 -0.8373897876880546 -0.9498608957062931
Ni 0.756427388034734 9.040849129403295 10.595265757126143 -0.41944694151870343 0.12928612269304832 -0.17126015313198892
Ni 9.102374661024381 8.950075292169322 1.7314743731342224 0.4735619781955521 -0.7985327056115408 -0.9052689680285313
Ni 6.949431172487548 0.6744467974096745 1.884382339307101 0.8532578650685627 -0.5790247732167576 0.08003021388071378
Ni 2.5239065285305107 1.5497100792819645 10.298754143096867 2.390425571494748 -0.21877876753824257 0.5304970008196993
Ni 4.980154664949128 7.834926203719961 6.167610553683612 -0.137565331982705 -1.4477892185613517 2.3509293131723386
Ni 5.252213607700375 7.643044565550376 3.422473742521618 2.101198063116639 -0.8540279104653679 0.0013506004906234804
Ni 0.8729704922851305 1.7975282814082298 11.81713599557808 -2.8727760945162073 0.05962851029591021 0.7576609070978435
Ni 7.874799174372736 8.100796021205257 11.49414805385806 0.11046410489053878 3.454176567053993 -2.611973674248011
Ni 6.876427626736877 6.456232908491303 9.854479976581725 -0.04916103510568308 0.31041211287552345 -0.3295192660186196
Ni 8.537148107379979 -0.10120626429211482 3.852089059618976 -0.9477821588003935 3.806498947010057 -0.4975894514584011
Ni 1.4266121287271727 3.3812879271154594 1.1425603491537633 -0.13622038791903637 -2.0670396720673754 0.9441671877556256
Ni 1.0118563387456165 3.8750300839381073 7.666105621389817 0.650490642467228 -4.083418327444774 -0.012339752512275523
Ni 6.494164744401574 1.8515987303225994 13.064190347384935 -0.6400486211982978 -0.37805243773231667 0.1099218592338236
Ni 6.627699810745768 4.84434087521156 0.2125542543041205 0.6677144625446823 -0.46376967469547875 -0.32920122055756856
Ni 8.459324545891883 6.601152214339839 0.9614834233045275 -0.19866091374244496 1.8928237787411724 -1.8114972146465382
Ni 4.771768692737001 9.258106181163289 1.9269710231068757 -0.05729163463261746 -0.3605964470393983 -0.9386483148199255
Ni 9.085335811617963 7.010075222631362 9.424644289115049 0.9114537566830045 0.5082294476707505 -0.12730457348664528
Ni 6.599595555560827 8.6867561444906 5.049391284003839 0.6765343748291573 1.2515646821745412 -0.37320385139076373
Ni 4.595706833845692 0.10212806885824083 11.148336306100463 -1.9727619471287121 3.509512877732453 -0.5662476760567474
Ni 7.022425340775696 2.508396205515532 5.281176838452529 0.2375092540682103 -0.8413135482224929 -0.46759419064789154
Ni 3.7629318969241683 8.662599801028337 8.76119819299248 -2.2363550427681678 -0.7876988482208306 -0.2013744560188661
Ni 5.94224481007897 8.835604607136766 8.876994851225952 0.810257707357953 -1.3611039612579656 0.7855154674162665
Ni 5.585844969385328 8.956330059672943 13.14990223034836 1.3162898902670686 0.1275213174831417 1.0010782991203726
Ni 6.045509427395139 2.4999189793936814 10.845868127875834 -0.9794270393991843 0.12898556073349396 -1.512582560887653
Ni 3.892012668569381 1.4989498746386272 0.41145867415805776 -0.6889147507713812 -1.5188282846870487 0.06765163771070284
P 1.785740811015347 1.8291490850397345 2.8656418933288523 -0.507042626451501 0.5568397524792861 -0.19987318888299124
Ni 8.45823676023908 0.11291683949229948 13.236094239393026 -1.0409355403266267 1.9847168054977433 0.10053270470943974
P 1.6142270214482606 7.028792637829607 1.2466839420371478 0.10136805612654155 1.183836425589632 -0.5300234036173904
Ni 5.553070737863352 5.10109579912336 2.495619412826349 -0.568050533593441 1.2015459270542532 -0.5224373637400164
P 5.393231889138858 6.576067502087683 8.177246722179811 0.453389102792103 0.3510730809299954 -0.6233493061657458
P 2.7688646045869034 4.488456794956749 4.848074980788685 -1.7511246270957517 -1.9029007033612004 0.10016683672958877
P 2.9910917114847067 2.396007317163343 7.671293233658188 -0.04133151175893527 0.10353986696687975 0.18585681999924122
Ni 8.176987904214144 2.5449683093597986 0.8297357013174403 1.5095118923821293 0.009758364938344484 0.5137457495032894
Ni 3.148745611441069 4.730264043605021 7.078859847992408 0.7522204528085625 -0.21676430821137507 -0.34837393683127743
Ni 6.066027315398026 4.456263966111271 9.097224558606106 -0.5594712765648623 -0.6035057890772574 -0.6529810129892497
Ni 3.8020921804251055 3.7620316605218473 9.361291090048002 -0.6909531213576487 -0.46054551133122623 0.08759928447722332
Ni 1.5344998350677594 5.0472785416971435 9.528171475381896 -1.0538512199470302 -0.3383453489506818 0.7839100706023596
Ni 1.239925604795978 5.926781374376612 11.774080314144602 -0.8965596131799914 0.5827662425370609 0.5880058936694453
Ni 2.477159877847518 9.148558663955923 2.2459500995978123 0.4617685851050499 0.14198917208201353 0.8606454157818856
Ni 7.590680814815405 6.273438031507638 12.25176075315585 -0.06056696294977957 -3.3184855692758655 1.4191802965754077
Ni 7.1518624559968265 4.804505414408882 4.324169278010789 1.1620352705541406 0.6891147825973294 0.6574603889168419
Ni -0.07101646144179892 3.534440645060219 3.3198383529408195 2.1582960936812117 -0.9981780947544422 0.7928076302023056
Ni 5.100861362560257 6.584525973284485 13.250615240111705 0.14345804331805617 -1.2104555708390572 0.014962277736787136
Ni 4.336148048639165 4.265826457170407 0.4831934492292082 0.9429348580104211 0.14191281031812333 0.9345803153981388
Ni 5.772634645404289 4.739022593602597 11.520761292501659 -0.6204730130592153 0.6852784395703746 0.5583996407672384
Ni 2.1999058208578806 3.684414403209285 12.053765947166756 0.31413918401812346 -0.9777391101738 0.808754383339549
Ni 2.4259214226154486 5.191016287267636 0.31578980148646596 -1.7166865000225404 2.5333434260386176 -1.1233532806029105
Ni 3.1953891100362948 6.984343465465037 2.9076266685420706 -0.9844268066066207 -0.6636282082904505 -0.5451556312731385
Ni 5.9600619888748945 2.758502508497695 1.3960247214658321 -0.8580033501733482 0.8039891007404217 1.3549842215134729
Ni 3.853086821631547 2.4171910050054453 2.597759672385871 -1.829705510124449 -0.7853912831335763 -1.459596238498609
Ni 8.689063000271547 3.296318739183947 9.509450309198643 0.7772647973717001 -1.2689011165704598 2.147124650445425
Ni 1.4677416793581863 0.6751716752627929 0.5513057105272714 -1.06824682654707 1.3157275900056953 -1.719185355184994
Ni 0.5962284447493122 7.865787432887008 12.860073933860061 1.1500081641862776 -0.25797446390109763 1.0048570494365145
Ni 3.4535787857142926 2.0304550730461117 5.023904278609394 -1.132622107499346 0.9941558609689266 0.05126239771940204
Ni 7.930867022804754 4.883426139012304 2.1855751826284426 -2.0157533630885736 -1.581801800195792 -0.848339601831339
Ni 8.159658353469476 0.25213746136489845 9.256254132314764 -0.3346277908897785 0.5761849897751173 0.5131574810999872
Ni 8.216757722779153 4.812382482929186 8.01680302712251 -0.5314120564348009 2.168931976128503 -1.265436555060627
P 8.28608530322035 6.0044173866142225 6.113877693420113 -0.3459398734684881 0.004686092621759672 -0.4591596867272931
Ni 0.9959615397671467 5.91162739493755 7.245053803069533 -0.7431465155317524 3.442793264917716 0.8055093940396902
P 6.9296447265615475 2.498137261514089 8.513546909699144 -2.940885645699935 -0.5738077477921925 0.3270862310970947
Ni 2.6735989628038515 7.036529044412048 5.987801460767645 -0.7357224551535393 -0.4546471435689203 -0.08920133885702058
P 7.776438969956708 1.4339077945709777 11.365038212079023 1.7719659893211355 -1.5966031268746823 0.054278044617274264
P 8.800983015497527 0.8739269934625958 5.826767923317571 -0.022998774888018457 0.0003823230400832125 -0.22265264867135204
P 4.4153969844309335 2.8668778428895383 12.739734832779881 1.331030796021669 0.7829867874571418 -3.1413530165234995
Ni 5.178759943748544 3.121719764446408 6.824592764888271 -0.27175197730116424 -1.1760521536585231 0.8889404060718367
