# total energy = -340861.90399745974 ev
CRYSTAL
PRIMVEC
9.31636605741338 0.00000000000000 0.00000000000000

0.00000000000000 9.31636605741338 0.00000000000000

0.00000000000000 0.00000000000000 13.63544343774019

PRIMCOORD
 96 1
Ni 5.259796560711516 8.680169849893812 6.0384966147523675 1.3816673872316139 -0.4063924223275905 0.6751560064243921
Ni 4.842264992842163 6.61364152827308 5.105382455089753 -0.47523550924323316 -0.7974698115646653 -0.2940681242998613
Ni 2.110436353826553 8.93517741567733 12.116918515313783 0.7489078434955618 0.02836029631024793 0.4670262339595634
Ni 1.0910209708379461 2.9416984123023746 11.714345304437781 0.9208436825383367 -0.730225179484394 -0.16294700528060324
Ni 7.296260969765267 5.15612404163951 5.269198637117651 -4.011828788132245 2.6912073603693587 0.595199068983775
Ni 3.4896684183032147 6.780152934938607 11.572578165444366 -0.2592222202652697 -0.8479518794746171 0.6128988002563832
Ni 6.897362133576721 5.0274557130177 9.428431473460897 -0.5920684937745933 -0.011539368098167224 -0.5238800097238138
Ni 0.3868248260593842 4.487181025201033 13.581146580262196 0.32755879985813907 -1.3896959139630454 -1.7628586277032285
Ni 8.546582480108269 1.3794836063543527 12.180718851862034 0.5029815690082499 -0.7372851716549689 -0.022796429069225254
Ni 2.7951053958036294 3.9764019516350833 7.983224632648835 -2.0185021294783043 -0.6836666149985645 -0.13505130731159967
Ni 8.516043432883427 6.833256220228906 13.397559206647793 1.673145639317112 2.3843708806602355 -0.9004175534735008
Ni 9.050784199390895 9.027269692009716 3.9151859749709614 -1.7185376942986659 -1.3037076827266838 1.4052215204024703
Ni 8.969070354604716 3.982448273065505 5.714600113398571 3.142299696707485 -1.4849113202246296 0.8022507778930764
Ni 3.128761722011832 1.7137082308788198 3.130397675853407 0.8872177669537753 -1.0734093445846158 0.7397308049819841
Ni 9.375524763489832 1.9925563768479302 7.906102824585393 -0.7617037097086494 0.8750978437617897 -0.7341851925734065
Ni 8.240623709543584 2.3868622446771584 1.7231932229409344 1.9324866445484332 0.19501791767321897 -1.1640049926860019
Ni 4.919031847367086 3.3204459491781293 8.575479983672032 2.3196621276279403 0.9523180989975342 -1.3944930782413725
Ni 6.8780865726529266 3.446440480803743 3.75454667369464 -1.0689137707071075 -2.2824778052681594 0.6101775446704782
Ni 4.550718640232583 8.780255568117264 3.871647802489005 -1.6263837005712247 0.819531419350395 -0.5113106576992356
Ni 9.353724467423287 7.911951639059999 7.218044488715577 -1.814335969646914 0.05661492028056701 -1.6158177521299204
Ni 6.227068244091386 3.113836903935506 1.2515186633534934 1.4602603544451689 1.6096648451546471 1.008296671245683
Ni 1.564124660945305 4.683821558994424 10.009615255319357 -1.2274371929987182 -0.1084200778773165 0.3322227809927117
Ni 2.1164454097936125 8.027828597382934 7.477772657070428 2.566257146047503 -0.971018760730831 1.669870825220582
Ni 0.9932736604404351 8.141106289636397 0.5624904937996921 0.9974070209163726 -1.045773070924586 -0.4589694250933579
P 8.463089209446574 8.00141670022539 1.8838865591391303 0.5819095509637203 -0.7967864123443955 0.050917869895789725
P 1.8178745173403688 7.133094138436444 10.161159920262278 -1.663773711183909 0.8681694920730725 0.22109661703814182
P 7.660083688564696 7.729798054148434 5.657577432999214 0.5590285326004889 -0.5711857367883131 0.9325761404839166
P 3.000149291585065 8.475703568794481 2.110357164716909 0.48017228442321824 -0.033304270579084576 -0.053570991247920634
P 1.007043249152551 1.2557622679937972 -0.3267053856546778 1.5118935052404285 -0.36273920441401397 1.1812300983150366
P 2.58003709037792 7.343457679112751 5.420920313011538 1.0558003732536012 -0.03571030891741591 -0.6456428274566235
P 3.495295503270818 3.7054540838986347 10.103413358237121 -1.2007617405900612 0.12343043524321969 1.1441339647936877
P 0.3463787553998574 4.377946635722305 8.043698094955477 2.6256424299843557 -2.2874006964910736 0.7323283418703259
Ni 9.608340745841508 5.5607710755515845 1.8984489705842647 0.05737699525757216 1.0595644682817233 0.9557055274125282
Ni 6.0984185482012565 7.472126007734559 13.356966869044573 -0.03141528108648783 -0.05362164198019797 -0.8148419842945258
Ni 2.3119679796861563 0.8739934336759998 8.14683678626483 -0.612308474970552 1.742632787574657 1.0240999568265265
Ni 1.1739645759150565 6.006335588234711 6.485357965560478 -1.8582254719410127 -1.4304797807486267 -0.11403588140219714
Ni 2.9676817566312597 0.2710261252095077 5.904378212113922 1.1794660644360784 -0.060760824128140524 -0.6511989813881623
Ni 3.9972333456542253 1.6641451646078746 9.910431361309257 -0.06244001160277633 -0.018684978004012982 -0.2412152421648878
Ni 4.99327396674926 7.455226120100068 8.333833018140236 -0.18113858858796544 -0.5392544352973552 -2.85081861640851
Ni 7.6279794918786665 7.8700279927781835 8.616877255283864 -1.464597548367942 -0.24948930924822196 1.375934855623211
Ni 7.113986272097777 5.774665518881403 11.687824405799905 -0.3436559625303179 0.6398509033651949 0.7897513598744851
Ni 7.591198479540754 0.2180672435897353 6.882912450158255 0.21274156020522714 1.1598632026034863 0.746626760770869
Ni 7.506736306831658 5.134277163743763 0.4680896220120538 -2.4646921434188065 -2.591892330117104 1.3514641241753562
Ni 4.108480070154481 4.2211708313599985 3.206728524456999 1.0925609778124021 -0.7063357744613061 1.3154758790062053
Ni 9.036716486971885 6.317576738230904 10.163504849544308 -0.21881913385787474 0.052154313406052116 -0.6487055255423473
Ni 3.295906641554507 0.7433444456765206 0.47952732435431694 -0.426314358062498 -1.3586824963006665 1.0870832425272827
Ni 0.7642690033540663 0.6153375790293796 1.9319515537829388 -0.29353667727642346 0.5300460293252097 0.2614405680728271
Ni 9.541262911790605 8.538542456388 10.993739312867934 -1.0675073772778843 0.6105637243653034 -0.8931415886373779
Ni 3.4089793737594816 8.758753395757612 9.99055303917331 -0.5492889367152217 -1.4600436104486727 -1.3514188727597178
Ni 6.7490176402999795 0.7753675899797388 4.727490160598148 -1.9180779253222708 0.7576220834401082 1.460446502314046
Ni 8.642876437434676 4.171980419722669 11.056817631063552 -0.4006673469183551 -0.23258482018339943 -0.38246599341898
Ni 3.204969594586331 1.9079171931878665 12.11915444311548 -0.6960356780868786 0.48123672113199056 -0.23699040545026281
Ni 3.3173342829874346 5.993805076179369 9.30494956570244 1.7369393367343053 -0.1500845474956383 0.011423154235277101
Ni 5.337923604649138 2.911671765198755 12.706310015477639 0.6694394156555891 0.3231385593032564 -0.6459058513100231
Ni 1.7366451235778926 2.690995007537123 1.6809369823986173 -1.0143883859657175 1.529058447055489 -1.465483036296689
Ni 2.0358681616399648 4.2745442912596685 4.768873457661218 -0.8647398975662334 0.7246955079154165 -1.269751123275581
P 7.609225647441934 3.146201958865067 12.64808738715804 -1.0707227988913883 1.8228962005120992 1.3233460257829015
P 5.010527876285686 5.673536367683826 13.214230828003753 -0.10986580918490756 -0.9416336227004944 -2.3749462449122256
P 6.802344518370447 2.0731708904649397 8.451793115865087 0.4512738562213131 0.10975088087359808 -0.8159578430665239
P 6.473066884107235 5.179918039995899 2.968490417186207 -1.6730641353468994 3.4249742344584244 -1.6922569062252661
P 2.624876759167781 4.69111627344746 1.795310279274912 -0.9638099016872175 0.4576905583809343 -0.3191916588403664
P 3.0991729441027114 3.1252121866266385 6.0472642466447715 0.6764418151153512 -1.587244311367602 0.7537944821639018
P 7.438093323319567 7.8663573446370645 10.804261201132643 2.1021367728808245 0.7790321736847681 0.9155775490433908
P 9.367792179842295 4.09460800141812 3.5132127380550817 0.04761323100258897 -0.6912891645408288 -0.07368267439613116
Ni 4.933379050761307 1.7800407556624913 6.397654629175506 -0.4146880866774793 0.29491170324707916 -0.05340284110117255
Ni 7.487246469493535 9.319999223081027 0.3967495505891658 0.623073683906856 0.16518566480313487 0.18195954182736404
Ni 5.0093912796531574 4.152089978653408 5.654181617650387 0.25221159327539144 0.007769616643089844 0.4697572597374813
Ni 5.430872986638842 8.398237986831527 1.7613036806842721 -0.9438090330852583 0.47278113416546963 -1.0115218630512
Ni 8.115094996209992 1.1173397043370854 9.888000347275318 0.7529766142482968 -1.184316193439528 -0.37782103844780096
Ni 1.8289144108612465 8.866990934091417 3.891936984016235 2.8077757783854227 -0.257553317203279 -0.06489053002579791
Ni 5.800751343234532 0.28981909838276915 9.366240073293284 0.7660491311615387 -0.3306358961215661 0.05107804962273784
Ni 3.252492376738228 5.969275084921588 7.043524733973639 3.483308708533259 -0.16108166993709033 -1.0980659667910313
Ni 6.696473336960105 7.805605322991795 3.8256277501471647 0.016110789518933542 -2.5272784507914605 -0.042407004211301155
Ni 1.9591292562125633 6.431329565142228 3.547465288703908 1.286077114129114 -0.0672376901017358 -0.8217001448669398
Ni 8.467439952294043 1.971575920975342 3.9219356820223332 2.7082846275666195 0.24220074600660874 0.9018288319987307
Ni 6.5165836289477586 2.7350800506939112 10.563228184109729 -0.05105002459827983 0.25178247615777277 0.15180024463516437
Ni 5.078639826944875 4.7604207189342205 10.951538038884074 -0.4636120660716919 0.7097738536085777 1.013635566960093
Ni 7.166511942705971 2.726695321437548 6.359870244236582 -0.4133464850479204 -0.24945074270080267 0.3185977340101094
Ni -0.1770985248065619 6.201662514444606 4.570982667572045 0.2972156687899075 1.1004779186666336 -0.8827646162784282
Ni 4.118560377993797 2.813952403898765 1.0983045056519734 -2.7903982063389234 0.8780165600704813 0.8153754882004925
Ni 6.529430897441674 0.2541243743018481 11.996940492747902 -1.5514185599182442 -0.033499417309026176 -1.5650688037118272
Ni 3.154102237097729 4.119659709162964 12.904119753184002 -0.2620391208887745 1.9522093197883412 0.34153274553972796
Ni 3.542659907203428 7.610837378732324 0.09157335475507586 0.033075185287414 -0.043158537665345026 1.0740932580255178
Ni 5.601343848786541 7.23971994547986 10.319576336649078 -1.1171515226675728 -0.9915911855655439 2.3509789354633512
Ni 1.4332669863510008 1.7311391513662144 4.899896031930898 -0.4131235704038369 1.9755459376317523 -0.8933735021425259
Ni 8.275196743177322 5.7017929052777685 7.674354497759025 -1.8468568250927548 1.7673976532241626 -1.5668032699044305
Ni 7.2390771162368726 0.2721515422030284 2.6681428937671976 -0.4394364972667528 2.2930530096808446 -2.367198482646007
Ni 4.553839622789118 5.884859494041693 1.599519398046165 0.47339768470354604 0.2744151259556242 0.6319293345252729
P 4.288257981776742 0.09711379752036368 11.798816793512717 0.857649052157723 -0.6648194003850744 0.5342577534137122
P 0.7825449182231854 0.4887868603630937 6.38828702332298 -0.7923528020530741 -0.5481090574745077 1.504122860156074
P 4.290577756871003 0.06999758310528592 7.803169093324529 -0.7779916482353957 0.7814425828984736 0.3312563033143844
P 5.0233006138528795 2.301338006262256 4.04183172056882 0.25841386543136136 -0.7666129740848087 0.7280086314490495
P 1.0062047762269148 1.5106580373872305 9.87319291540858 -0.39566655126965405 -0.45005463910223137 0.6642290750992432
P 5.516928257906647 1.2335893172936374 0.5291257928154558 0.7414827546760844 -1.8877075405605295 -0.014096587302382174
P 5.807729301248995 5.558087962189548 7.503516570797215 -0.2603928435346031 -0.736025588216255 -0.5629234967795208
P 1.5387841458594083 6.212227273307623 13.120977732487653 0.3991169717120997 0.9567676501284554 -0.07288460397486803
