# total energy = -340876.03205040994 ev
CRYSTAL
PRIMVEC
9.19807966428748 0.00000000000000 0.00000000000000
0.00000000000000 9.19807966428748 0.00000000000000
0.00000000000000 0.00000000000000 13.46231934482425
PRIMCOORD
 96 1
Ni 4.802170079307553 8.924638884144885 2.345351117216873 0.017815430914866093 -1.576243332271408 -1.0372526921584007
Ni 7.5911473248409935 5.2396399330896 0.06631355334920778 -0.05296601067407007 -0.41047199171360277 0.30590214082031186
Ni 6.448193980063609 6.90145693615519 1.3349393369995928 -1.5044902707978218 0.09352850547746472 2.246360747830628
Ni 3.431785023577603 0.5715769314540241 4.18818172360249 1.0775025408173833 -0.16053428207405257 0.8157048465154534
Ni 8.937838128066947 2.09585597323584 8.347634166043886 -1.3821682381274325 -0.4726088702536635 -2.8637296680432227
Ni 3.5995120012213793 0.34799921576511444 0.12070547600337318 -1.5885828276733673 1.29693385433796 -0.28898042536430874
Ni 2.281197272908014 2.565537501035354 8.674028013134064 1.7879662214041336 -1.1195102527077365 0.30664544674423966
Ni 7.922922048373267 4.163391060035421 7.2435215510990405 -0.7153045536188196 -0.7795271110433155 -1.1150820417330538
Ni 3.720797876034148 2.9119647650330256 0.08320122710593787 2.1599043187085964 -1.8472064951226896 -2.7596200446158026
Ni 2.183237727423714 4.4553380998168 13.219701370430286 -2.6317413437932418 2.5973559243348365 -0.7928389976608733
Ni 2.0849654472402146 4.025861377023096 4.168499673327625 0.9044009636012811 -0.6665844627052971 -0.2635154483239849
Ni 3.0994952075995905 9.133122551557763 9.526677095108802 -0.6012450180675387 -0.719426289096677 0.5841790637241875
Ni 7.678841813728066 2.6345047002880566 0.8146131840886649 -0.7293144947446665 0.879757196910672 0.9099560890915553
Ni 7.83852047190717 4.610206162475877 11.148442901094365 -0.8508747095483669 0.2486285039098234 -1.150184798973458
Ni 1.5486806265907644 8.359968790503457 5.499074521657518 -0.9167093486549891 1.2661006710071874 -0.0400583014734665
Ni 4.780315442681196 0.933375105917312 8.156725268918036 0.3035932901814771 1.691102995126481 -0.24535754646803548
Ni 6.2639840441561825 0.7685933532936366 10.307962878150212 -1.215891654252964 3.169744937402631 1.321097338958041
Ni 7.347876521181954 7.546361876299862 12.855935726785864 0.5979298376513766 0.740498536385944 -1.0969503651293495
Ni 8.888039726259247 7.525969734296228 1.5011026411473756 0.8985936128908846 0.01795966980221423 -0.772855612560411
Ni 6.891670179686149 2.813232580880117 9.075353094152252 -0.5772483980426253 0.1969130778134028 0.9678550182908686
Ni 6.905568477641715 1.9707804897151344 6.363005048001882 -0.9876738527890087 0.14272476469645742 0.05881809857947289
Ni 9.059289568308703 4.426465328617249 4.584579393492421 -0.28161755724133436 -0.33094905648661066 -0.48430713252719815
Ni 9.161783766931386 3.453750037156618 12.713194411992186 0.11210241182491015 0.11927630386553006 -1.7372470977827115
Ni 8.069484245344801 5.642552602610191 2.584886580836366 0.8801816860426002 -1.6671706526805998 -0.6508068881560662
P 1.0880959993061772 0.08487987659428387 0.057145827622991634 1.628683809459311 0.07597249887157238 0.6942243359097527
P 0.555724961436405 6.454660229873511 6.4759675807762695 -0.16772025829953052 0.18180733252021591 -0.35526757862731717
P 4.825625181747456 8.565555062909054 11.245088041034093 -0.8123318162781623 0.4053732370344567 -1.1167936251075217
P 2.730348687513072 2.2164427940151055 2.8378429620911776 0.5070032885731333 0.24534134851811942 -0.7310654159975022
P 0.501601622700375 5.846814351583887 0.008430959567221565 -0.11987408535052903 -0.058483598058189604 0.0189603431525867
P 0.7147781502171112 3.962045102227784 8.871278066190136 -0.8481434266601329 2.0939184987360906 0.5948529984982659
P 7.767584883665393 2.1347086605715853 11.343283057350728 -0.7347354086499217 0.8658961226578636 -0.34786948639103316
P 3.6997526703939525 6.723336128802751 1.9227959491627873 1.334957384769585 -0.8979215265245245 -1.2518549597214506
Ni 2.044641067202358 0.03566279340391822 2.0316524592982845 -0.0506173079362354 0.9056587472677823 0.7444297531195502
Ni 5.204337704397699 6.02700472679867 6.110182958706138 -1.747651580945487 -1.236400572839593 -0.8436362828183985
Ni 5.283395196739254 3.478869991965785 7.454611034402594 -0.33434291265950805 0.31451970728599377 -1.7218410476402861
Ni 5.056800511011017 7.701717437166512 4.452137168189708 0.20089108862454433 0.6869437430879395 0.5469734012081677
Ni 5.700886822090138 6.246608872191878 11.524391400888454 0.7052823934961272 -0.2543438091270459 -0.10442766888847177
Ni 5.774315089846117 1.5738741660350366 12.985968055288868 0.3622303830983955 -1.3938685572834961 0.8164113856641746
Ni 3.443954082608188 4.189899924832205 1.8136708551091543 0.5399360347454121 0.7371075084265242 2.0081410979589545
Ni 1.4031302183519316 1.2609922975661203 6.8087835268952865 -1.371668367037373 -0.6661777141851817 -0.7056703729631653
Ni 6.01113803985403 4.104431371157077 2.168685446023647 0.3780676072409682 0.6217773336929355 1.2657828826564523
Ni 2.195802303867991 7.303468193895737 0.4425563916837206 -0.10295108434294527 -0.4356484909792303 0.45114607239419724
Ni 2.4962023786071237 6.188936914427882 5.36442475730164 0.671270812437373 -1.8564061593440868 1.372311657048327
Ni 7.732374635767374 2.129051841747844 3.2710605437720615 -0.2152368158232551 -0.028915397482769552 1.0681300984635478
Ni 8.872090256600114 0.720151668195696 1.7580445502010928 0.3452022239715152 0.21389984217938643 0.44973993607529
Ni 1.0850238407905195 5.362526273715915 10.95494842385249 -0.4393015143507854 -0.15836015724086921 -0.1255899047883837
Ni 5.756709965897106 3.291771859130465 11.514940374317083 -0.08281728970754769 1.255629082051902 -1.7447189806797243
Ni 8.296805579344708 0.4091931181268517 5.319863741897579 0.9080439596705071 -0.18504949360659745 -0.8098946675915795
Ni 6.2736880179107315 7.916961692929715 9.705793134651042 1.0117383499373802 -3.1649935387605748 -1.1241387526186832
Ni 0.8338454482814464 7.477974156048615 9.554921637486139 1.1335050243249316 -0.0597624647706132 0.7847662479550678
Ni 4.570406072963148 2.9072369522274926 4.162468492672785 0.04962897588103711 -1.9977307012589076 0.3006822871822693
Ni 8.336219349523132 0.7482600789980878 12.942633143867255 0.31969070996397203 -0.060155329333657685 -2.542043010695145
Ni 1.4342105286046503 5.3123047602563584 2.20095414813332 -0.6977328632836436 0.5056827699894969 -0.7983956658130443
Ni 3.590451893024005 4.91208712799651 11.079138132328115 -0.8534445271580722 -0.32390423382468736 -0.8892576802019394
Ni 8.387415859397837 5.717654920814821 8.811734299270642 -0.09451503776045013 0.9712756139366434 1.0179761033169759
Ni 3.227780820826777 4.7261387550847145 7.911657160546542 0.14429673716926764 0.12126196683699118 0.0044678059633664995
P 1.0888410437366212 0.5017202779244827 8.83242537885439 0.8498961476851815 -1.2726392434566534 0.7775000533109577
P 6.938166470993486 0.5855920450178201 8.143370577454311 0.8565604470792345 -0.025545195458956 0.7535273445454442
P 3.6249998792060736 4.18773837617598 5.726507152418023 0.010717900638136381 -0.06477817281764973 1.7910672289269605
P 5.963731138687262 1.154782074870607 4.3083859042792065 -0.03353207031917451 -0.7308964945198058 -0.07573672871168247
P 3.5199026241165323 8.610257728735691 6.304942171863886 0.9058639213000529 0.9037275916833404 -0.4895868928688987
P 4.471453134904922 2.9811803124292098 9.399539402189262 -0.3217020839670459 -1.2291534043588768 0.4305147692970908
P 3.1016383600970405 6.483450218358568 9.478724747834312 0.19837680684312287 -0.3423393006014233 1.9448022286909925
P 6.868353048437069 0.1863999986097553 0.8696213780618395 -1.5851195517151153 -1.3845850750990412 1.5684698589735762
Ni 4.323925139597627 5.115944161477125 3.947582962005722 0.9993579739951562 2.789649501098357 -1.1971282576025317
Ni 6.785883068642493 3.9964459191396418 4.589573950600212 -0.7624997232473836 0.6257172921772901 0.5904571834234154
Ni 4.540769861174376 7.827740322864202 8.07473910809928 0.7142565719702796 -1.4138316306689844 -0.351604270843117
Ni 1.468574553198955 2.4962299728452884 0.6727512056844992 -0.2816319554190375 -2.226163961167779 2.485600868547016
Ni 4.8034210181043475 1.954150362181274 1.8851960402397148 0.34169395370794053 0.31630482421087464 0.3638154681973283
Ni 5.08428437222295 7.974808414202088 13.178115933708309 -0.2173844582938772 -0.7396819540219197 1.2276451952444662
Ni 7.603297987712802 6.286362971307667 5.774459499692511 0.7822964462583366 -0.1894748763678027 -0.04429753636579468
Ni 4.067905797906546 5.532929892461657 13.188078373493665 2.160997551772775 1.4130734123467212 1.965082061985951
Ni 5.2399158754712465 4.917578381391263 9.435308893314083 1.5170393111074258 1.9844111013318664 -0.3324261552527694
Ni 8.469021219729923 0.004475785430296763 10.021242187077204 -0.14364470540756552 0.18518447652256495 0.41733118072728126
Ni 2.397194252072569 7.1004757798776135 7.670330830870167 -1.9263165111819793 0.6689905010436284 -1.5051060500049498
Ni 1.1360915775537903 4.26763289374186 6.712298433536915 0.5964195716544374 -0.10468452209428422 -0.30218098321498277
Ni 2.774416685861925 7.63024836032022 11.663201456551615 1.4325284357475392 -0.6369738389277159 -1.4233315997396196
Ni 0.5067645046609701 6.7188566641406995 4.042222920638822 -0.5031080672837852 -0.19365806121121484 0.2283047047508068
Ni 3.4262109874683553 1.978497678321832 6.436240156090707 1.3572789310849205 0.7091277353841464 -0.8339414241281379
Ni 0.561000059965536 2.220002450738338 10.380578955496212 -0.4785674018299436 1.8076482732140933 1.3609226984850948
Ni 6.5892189332434485 8.29689756013859 6.616231852790706 -0.5692111295604454 0.39642939757760765 -0.0688590277552427
Ni 1.3070194868246592 1.6395484528667645 4.41084790962403 -1.355910075761852 -0.34815025085624557 -0.2650794503769951
Ni 0.40625801099407793 7.708864344851142 12.145501829463798 0.3108286315876518 -0.15951895343566075 0.1361082878212043
Ni 3.9054033293552655 1.670720743913365 11.203072134196745 0.13741980754377625 0.191948791829592 -0.30990303444958883
Ni 2.7880574375946217 7.454969759498734 3.585594387299098 -0.41347144066155883 0.6886792377218075 -0.6811075960221367
Ni 8.995151360734804 8.394691540193902 7.4427915023887605 -0.3629405217915426 -0.2753381519905258 0.19114635053295467
Ni 1.7217148960415303 0.6667292231090466 11.441921421093879 0.21509771914222958 -1.8108343842515586 1.1174446284279593
Ni 7.139227288340089 8.541180152530332 3.2087573530361078 -0.1587954450060749 0.5124103185213176 -0.13128412695968358
P 2.0719961553028563 2.794247745022878 11.908484799980794 0.2199223942243825 0.10611791210670111 -0.01126451717022576
P 6.324939716261766 6.284872882446779 7.758011522638157 1.62360665204672 -0.11536565595721421 2.151499382474353
P 8.103296385175815 6.810451138688367 10.846576652500753 -0.4209970596146426 0.16323831126877691 -1.1898054986888735
P 8.940965475058935 2.6174238668641747 5.778296938413266 0.07153657458740584 -0.2800342719146145 0.3209328099011892
P 6.532282821830507 6.165178275368168 3.7981509642650697 -1.9681010513179331 0.12214179833878319 1.0088098634366756
P 5.8035097938242535 3.9561307371811734 0.1318719443806446 -0.729715329727511 -0.4817439997857123 -0.8754994500755825
P 9.067089539629896 3.6387694040502048 2.3050046617884847 -0.12963373584045418 0.033449023687064976 0.01231661258382395
P 0.1620168099595833 8.765162583712321 3.5501081970194335 0.7890787592874926 0.2729066597308977 0.10058078433855581
