# total energy = -381162.52827041544 ev
CRYSTAL
PRIMVEC
9.28501863312303 0.00000000000000 0.00000000000000

0.00000000000000 9.28501863312303 0.00000000000000

0.00000000000000 0.00000000000000 13.58956331364822

PRIMCOORD
 96 1
Ni 2.7450507069332937 8.918724463439943 7.090531258973355 -1.0651594458709979 -0.017512812072782744 -1.8473720741662765
Ni 8.5207964281168 0.43339959127304695 10.336873612019811 -0.690517576482127 0.953743261479835 -1.1024008467209596
Ni 3.2710284315753695 6.982324582564545 12.305294735992462 0.38353634366502337 -0.6575187529586031 0.1461435605700193
Ni 0.11349170890539043 8.208643393151013 6.861818970728872 0.9211974663333297 -2.184701066037302 -0.5140475970144244
Ni 5.2806406828575385 7.691672136396643 5.990904668009756 -1.3254232200269045 -0.639191672514641 0.9002486319958044
Ni 4.906881550536148 1.8789349017444523 8.419223897384038 0.9010171347307128 -0.052132459029181184 0.14848249311584108
Ni 6.120117770139338 8.960079935575866 4.209829218123536 0.44021605574525474 1.0073206804856587 0.5613836630962267
Ni 6.332271156496258 6.2242585369728625 8.761639592954364 0.38897576951303975 1.8931281973554686 1.2892334003699086
Ni 5.05379839732706 5.37024111081256 13.021968169374457 -0.6854985260009807 0.005665425815893468 1.7006330461041033
Ni 5.60931176562975 2.0291943551741007 3.1860593708186866 1.319347703256786 0.7023042847044098 1.4654526972793858
Ni 6.472772055544483 3.3681125843937836 5.352113040808478 -4.364575657220238 -1.0851960528068987 -1.450891254525443
Ni 3.5866819184933894 2.8074646008932573 12.63251828438973 1.2547878170975293 0.668245395347488 -0.9916963436848405
Ni 1.676995035672561 0.3322838834475786 2.064309366415872 -0.12565418236741585 -2.6655078987207257 -0.8023132556998956
Ni 5.3217176044402335 5.956738585652649 10.84500088870919 -0.06255982501009226 0.8791838409057051 0.6963534664376136
Ni 4.126921431460741 1.4399856549492587 1.6705651604022138 -1.4406644345911126 -0.060323479480405784 -0.674725860865509
Ni 1.8960750457864182 1.198361620060812 5.419435924018164 0.13281341912001643 2.1865337483706666 1.1156471702079045
Ni 8.717035292865956 2.9525058739591 3.013267963138422 -0.09288727234904004 0.1766980363181086 0.5677695120179125
Ni 1.6952679519643206 4.457430947884258 6.86858682067047 -0.0451277455765739 0.6991359142787572 -1.716995546622527
Ni 4.31264965533476 8.146656610039331 2.888013064370211 -0.08107999530146681 -0.7119304949402642 -0.22788072983951077
Ni 1.876019405953999 2.5827857246595167 9.24060355522261 -0.6176198598811363 -0.590232469007119 2.1414805647857698
Ni 7.411478134904553 8.212868076541637 7.943099293755028 -1.5665847261357213 0.6914789119541317 0.019643742372856494
Ni 7.39764345742756 3.3766826564147667 7.398375116880705 -0.15136289998742963 0.7617494753449203 2.0334016722979564
Ni 0.6918174390156127 5.0038357130963895 8.97307988989502 0.6649561830732548 -1.1516343869357906 1.0060688103564286
Ni 1.1461426763489944 6.1166080331686645 11.128547710360301 0.28925759028509535 0.9294028849622575 -0.5338078103604871
P 4.619890915545294 4.12770137300978 6.841162590203325 0.5124265164712336 -0.23898943815816262 0.008369712120933973
Ni 2.8094701648764993 0.39698931995876513 9.168457104932859 -0.8194519722627114 0.5863429041447257 2.242228727940126
P 3.3521794927491397 8.281205812266919 5.0241021228474185 0.5941940247580284 -0.31788733820664605 -0.3179094496938331
Ni 7.492294935414449 7.286622491929302 5.3002422852881965 0.7673984461005816 0.82583165053681 0.1637777287120147
P 6.500840666291428 0.29886710207865413 2.2097313252377933 0.09212134071729296 -0.22654864129164856 -0.7190871605897035
P 0.5311847629837521 7.409639701253248 2.395853233893708 0.4458112904448451 0.24230513279495694 0.8680972440742405
P 7.251172291521813 6.931470536563546 0.40250833492005683 0.6958292185030275 0.964794377087674 -1.205572531715143
Ni 8.815762893948417 8.77257827317963 0.9134424726841299 -1.1960743624167207 -2.9502542313990285 -0.2996584739034452
Ni 6.557544273910218 5.559107670919614 6.695523361949887 -1.01231813370025 -0.4916149790425211 -1.3185640310132258
Ni 7.646639796958109 2.9905930196038146 12.635820036947328 0.22719295974386677 -1.3411611995874517 0.5236236707386337
Ni 1.884115942034494 2.3735385490746093 2.8860158569035663 -1.6425207153424033 2.028497035907487 -1.4466165384094891
Ni 3.157240530581713 4.163225853564796 8.46647442772811 1.4389657067324508 1.6987792807248163 1.1231506776738012
Ni 1.2764764802043964 8.43806691380807 4.6367729360746015 -0.8748232499441644 -0.9710899802883987 -0.5081607992163442
Ni 6.52150911734095 2.171310847431049 10.425899297333338 1.4513663943896487 -1.2559736098755143 -1.0663305833609638
Ni 5.644325570170515 3.408539554685614 1.1491733063681155 -0.6588338722256009 0.9762093037928349 -0.15599705632533134
Ni 8.622764500635146 8.200268306517287 11.993128702000856 0.09925178111448713 -2.9925941298178205 1.116944291752773
Ni 5.494669642939527 3.657489469123959 11.586013140930408 0.6688125807048676 1.2427355139186855 1.8173104788942056
Ni 5.7616510631901665 6.011195218808731 4.356827773076728 0.024215935124571198 0.011111022311496993 -0.5432486440584128
Ni 5.370185400701914 4.355704285845375 9.337646853959885 -1.0492803127468961 -2.6407016383103232 -1.7197255439591803
Ni 2.6062118261859952 7.1726674606037095 1.3758484615666573 0.06622056169113112 -0.5138794468676763 0.46103582070408344
Ni 7.303660500768417 1.2204599639502367 8.269887374787418 0.5780305276242884 0.09858946494013988 -0.11947942101527166
Ni 2.394095579902839 4.6441340986945745 13.147331702858425 -1.555444650358502 1.2441172247575605 1.2273898847005507
Ni 3.06861502956299 0.5916376610489905 12.112200706989249 1.2757646764595125 0.04795030262703355 -0.8029488324013655
Ni 0.44806527790050354 2.7909279830499525 7.436358270318882 -1.0206230540215198 -0.7525225574300137 -1.3841739557035517
Ni 1.3065227998792617 7.448757483944906 8.767170678439628 0.24876322971547477 0.46269521068437736 0.66018807226065
Ni 7.579156282929394 4.379650348404546 10.12332747289675 0.8431053500155932 0.4546661697323137 -0.0425494433264364
Ni 7.532907606075098 5.2954317172339485 12.380649160153556 0.08142143780128558 1.3554130815207754 0.06891764890732001
Ni 4.149725436751678 6.346950770651375 7.629370591159814 0.44608562715215433 -2.052335790198298 0.3645261211111077
Ni 5.915150988055701 5.918456454620674 1.7620773736542232 -4.857356888656718 2.5289098157472965 0.25977860698937194
Ni 3.0554303033768626 2.2311992163750785 7.2127146736413055 -0.9571823690683708 -0.23216778725063886 -1.6056791210340218
Ni 1.2103950039602633 5.213129313773501 1.93456980374069 -0.9756012378951909 -1.1863561066876924 -0.6314678215078221
Ni 8.491372204677477 6.2517607615949125 7.865054999751595 0.6827713568778048 -1.788588942589797 -3.095011710254799
P 3.057872263226829 3.9852599051073985 1.5010355797002493 0.7673416247207172 -0.8422370884780269 0.6569543958147009
Ni 3.6282230909981323 3.548576202811793 3.7168272364744404 0.9313368687601765 -1.4752740542451817 0.5900982574220999
P 5.992875877424766 7.9175580650277055 10.259875739594671 0.8634039523636291 -0.695180529175435 -0.6122930483515842
Ni 7.7337982650631645 5.0660267666137715 1.3408912956383818 3.938207048881037 -2.678146156310026 -0.9892728218450123
P 7.797131375848781 0.7387337086958122 12.54237839686329 -1.5343371789559253 1.6265379667609021 0.5121339249314794
P 4.047246688219079 2.6530640292389522 10.429772078525051 -0.8941036954403313 -0.7531720180885545 -0.898244457081582
P 8.833701549576304 2.765217766987004 9.342471349541794 -0.28199730917825633 -0.6223874564731087 1.227996150825982
Ni 0.4834736957250085 6.322995423073763 13.280712849766143 -0.8821040998762938 -0.1922051308147722 1.3281848419324418
Ni 4.199948101498694 8.675373415121483 0.30369995417716067 -0.4154486189925877 0.22573617269268217 0.7922054778419324
Ni 4.51298321321637 8.414937932871702 8.348856456627567 3.4137608822411076 1.0405678725745628 -0.431594889735147
Ni 1.3276555018508294 3.9642293383386815 4.542053677453093 -0.46322177261180875 -0.24179194060396425 0.12383846931491575
Ni 1.709344039920778 8.352709739280556 13.243192090246326 -0.7935506790159172 0.7971301688370593 0.748038553516731
Ni 0.6620496698939756 3.3177692144070354 11.374518990882793 -0.25106333860356117 0.586397411531745 0.20943897819455543
Ni 9.09838028525359 0.9032688779783977 6.08021540338942 0.3550816878687562 -1.0677297777013353 1.447989764607932
Ni 3.823700584235133 5.615300602524153 2.944355484771648 0.7341067739269873 0.719620150275038 -1.7717723852530904
Ni 1.8913396863815413 6.172531699238415 3.9316639931607904 -1.16087441747682 1.5316568039102847 0.050243469536584436
Ni 0.6197666244158025 0.928798964683592 12.21593014750584 0.6261512943909152 1.276269384010073 0.013786255150814967
Ni 3.4643982256262777 7.239593873525967 9.936851805038238 -0.859222824402746 -0.5488510778468547 0.6874497361900805
Ni 4.920920498418842 0.41615731202823103 10.39155865662954 -0.39184280664818966 0.4199382793328252 0.6271157151867135
Ni 8.275523380981065 4.400838760486759 5.467189702361736 1.271124863694656 -2.7411137582814984 1.2723911320015893
Ni 5.396564138092609 1.5325944288791429 13.368664258446053 1.7993788341164494 -1.0263578996227678 -1.4251288008493586
Ni 4.709054947633591 1.332270156015974 5.3967684084983105 -0.19988450173690092 0.6271514535206554 0.7634222350616531
Ni 9.276829054669918 1.5448506532211765 1.0236491420651177 -0.9134594742591235 3.3052577577316815 -0.3368014015023296
Ni 3.143823678934562 0.8033045124396052 3.713700970765378 2.4796919592617486 -1.1351279046403353 0.0005916108374118844
Ni 2.1075413407787087 1.8767714924477146 0.26428876490276876 -0.5481504522354044 -0.12978183138254423 1.3627468961780274
Ni 7.466139038466336 7.494105514010432 2.8022492060349844 0.20342491078999161 0.35725015627498474 -0.652849886728024
Ni 3.502568936436961 5.395422080824375 5.321673036351718 1.6147618000615802 -1.156803589841556 0.5376552091310353
Ni 0.09648155512159783 6.088186591720962 5.449170267073414 3.2011494198558417 3.001268003442734 1.915342785779295
Ni 8.432885873518028 5.444576968450684 3.582725572135707 -0.11696179679974052 0.31479687220678043 -2.2647449067647707
Ni 8.541297748834383 6.942714693895517 9.891068307607833 -1.099834885765996 0.5623681384966831 1.8737577632486568
Ni 0.5377065599366647 0.5683127662235181 8.403405011466216 0.4485055494475566 0.418770227166653 -0.07621881055442357
Ni 3.0267581664312564 4.708479276490253 10.982595576985403 0.8707043426797844 -0.4029674558064415 -1.2803078157455046
P 0.03372411547931937 4.110626224096901 13.65275425367596 0.3088421972852423 -0.19419053667591718 -0.5907986259232342
Ni 5.767472769752633 7.695154018311993 12.525907702650917 0.599658133196393 0.03308752658258818 -0.3891943132817491
P 6.243562090311566 4.361321722002141 3.114470021635391 0.6937471391630182 -2.0462438183679468 0.3246115443043571
Ni 8.74416611675037 0.27711694638076434 3.349324349578552 -0.6342800941456366 0.9510371754025815 0.14774870027361003
P 1.7160849633088966 8.542857631932462 11.062013125216252 -0.33154323842718386 -1.0097292899271513 -1.5517605166386952
P 5.891669176418577 0.2578607466361096 6.807651101646303 0.5748058500394037 0.610833175976606 1.4648438600507934
P 8.052255827550347 2.023446928759162 4.956140430368995 -1.1278678806438125 2.1295966688639907 -3.1513224690313857
Ni 2.1841705979717436 6.643839235300266 6.611852346771246 -1.7970648412712922 1.8690297616453684 -0.1092510584190441
