# total energy = -340860.03209466237 ev
CRYSTAL
PRIMVEC
9.38785050803203 0.00000000000000 0.00000000000000

0.00000000000000 9.38785050803203 0.00000000000000

0.00000000000000 0.00000000000000 13.74006815697939

PRIMCOORD
 96 1
Ni 4.769544270332629 0.6328255990372147 5.651193902064609 -0.4905433432448972 -0.31864864185270286 0.8802403071946776
Ni 8.888820315821233 3.6381111676080047 6.2372764558086695 0.6142843677500001 1.4430038813575665 -0.25589058478887544
Ni 8.480439441105426 1.5093973425566536 10.541668704470963 -0.36655163618156866 -1.0403598703288148 1.1831697385399107
Ni 0.6767213093426371 5.0633839838703585 2.6047322834124182 1.1258277102853318 -0.3042234675663083 0.5105444689571723
Ni 4.261952593934177 9.242432472045696 3.21586256046926 -0.11734797649456565 0.3844575699277121 0.7785254092516786
Ni 5.561099641781854 7.156977861051273 2.947821598266132 0.7930480283478858 0.6569132581641203 0.5545532704379547
Ni 6.15015908284741 1.7441123750764722 4.011989815001325 -0.5016528228944974 -1.9535586347273837 -1.085278842328692
Ni 3.1026563515999697 4.269566140505395 3.434920536304151 -0.7999702093890159 -1.9010875614118614 0.19521666394758636
Ni 7.70419565345109 5.185444813116925 4.036722106544939 -0.3178145759871817 -0.17028313393070027 0.1970346909929316
Ni 9.28859253183691 8.636005507975513 5.367021796737779 -0.9197447930472031 -0.8857458103939391 0.7950069518464695
Ni 1.901771932557387 8.869453180708506 4.325606912708701 1.138802011057813 -0.28542896056762457 -1.3926513970469436
Ni 3.2619587828786196 1.4345198487810327 8.222715726352073 -0.9700394275366971 -0.5262587943686357 -0.5857973160539008
Ni 4.844177680001158 2.845954973741322 7.062147430305904 2.2896972058347336 -0.15353213972460655 1.5090696626383882
Ni 1.2807280856124996 2.5284954289173003 2.9643235614756085 -1.6609167013510877 0.3510232015286664 1.4059553132447014
Ni 1.3523667710440144 3.23841405439451 7.66812565513305 -1.7225586425326012 -0.6448786955970893 0.02169908223998844
Ni 7.460177261310956 6.919972193064899 5.762392049760553 0.8466951242493805 2.098601763144373 -0.5157704932428021
Ni 6.24464779584285 5.278046568207538 6.413464813372953 -0.49239556596228745 -2.0035771327373557 -0.003592345336948652
Ni 2.4941171212184132 6.435784427396466 3.1775695192066276 -0.3882728299087442 2.4645972697121556 -0.43555515993447574
Ni 1.6305944895781264 8.713389557773963 8.06131135539735 -0.04270319529548129 0.08452424509632539 1.3064924445606725
Ni 3.988625333242452 8.32775544426908 11.480816102768586 0.29939262183656823 -1.2315023642070275 1.12868292034594
Ni 0.4331694933610593 6.146037816577665 4.846039290710248 -0.9614956517317441 0.46427978156267785 2.0841123112789464
Ni 3.6241702099529394 5.201338443628727 6.12370130442366 -0.7357707918929716 0.39538141592906745 0.4419813751757936
Ni 6.352748891733808 8.679152067829168 7.208149155318092 -0.5939387142141125 -0.6331076711040903 -2.656439360760554
Ni 2.9577548826397506 2.5111748451640383 6.035338163731204 -2.1129215222011544 0.008073521036753836 -1.9268788114433522
P 0.4778819466402126 1.7121467448976873 0.516089558465363 0.546126222716524 -0.5986168364160722 0.21214429294086046
P 3.790213117727439 0.8231407936919631 0.2553673643348872 0.7874093420048697 -0.13338883200751223 1.346394937182565
P 7.272692503513448 3.264146151992175 4.808804260173357 -0.7941281487859421 1.689094963557517 -0.05675067452748291
P 1.2505743105363594 1.4140355594858467 4.913186828571269 1.8358915843305026 -0.1821462039168734 1.3074067288448257
P 6.535042168330472 0.7779880502350168 8.457726476155484 0.7223421771918915 2.2332329521994185 2.8144544759571786
P 0.43392709287807185 7.295514367526554 3.166975330173805 -0.5447378270094295 2.328494124097274 -1.9441725655267934
P 8.131906111878532 5.219766793714176 11.118655370085737 0.7935887313427042 1.4413781728286854 -1.1484328492793578
P 6.469956202389352 3.8209395516702185 8.110363811857605 -1.2629423278838636 1.0598197788256394 0.47611868317913486
Ni 2.049790167808166 0.4278174799205526 2.0936154692365423 -0.2806585357621747 -1.7532941239432451 -0.41607108306793505
Ni 6.226425978463402 2.8205232873523856 0.29217430889934015 0.4498900884999091 -0.5645923998415115 0.15617112000935038
Ni 8.86394251259839 8.389940564475914 0.87583010334789 -0.8365156126132174 0.9898886010521404 0.4323531080574102
Ni 1.4765868058533194 8.332252224549737 10.78544489007406 -0.6446524385188962 -0.35982125943627064 1.3976773895066252
Ni 8.139162920139384 2.65263097307415 8.592420535514119 0.9736248308951104 -0.5512139216520765 -0.14827731908357045
Ni 3.252683586809122 4.008264716013089 8.328583452663139 1.6010408509310619 0.1608708394778649 1.49387701405835
Ni 4.85153775461501 3.705806955924956 4.939856772411184 1.6517756582817682 -0.573842971905502 -1.2406387792906568
Ni 7.993181848397796 1.696825773252525 1.8822245507194233 -0.09029740013467674 -0.15219130942599593 -1.9268988660480104
Ni 5.808028267506547 0.5877733055781871 10.674837238160272 1.8318300126666194 0.003797005148587009 -0.2872037930798602
Ni 6.951421491478681 4.655641482973099 12.694764654250756 -1.7568964965825227 -0.8738446880809789 0.662131569140266
Ni 0.22480803412696335 4.048670023587095 10.208032016056903 0.6239915677354351 0.08505492078881481 -0.28356182545189873
Ni 3.215667293183586 4.759640088294855 1.0675684961039904 -0.45635358473706567 0.5298871351498422 0.006495635026672684
Ni 1.6994919227299918 5.610160547307355 7.591250426819383 -2.081279469815841 0.5095209127886644 -0.7546424319864938
Ni 4.863572978664702 7.386013244156065 5.692702282045666 -0.1520480989799123 0.33160828733716435 -0.1772737063159205
Ni 7.247373471327784 2.0480440276574305 6.514688370154078 -2.243067421791337 -1.9055026597604212 0.8174729941594695
Ni 2.91269320133045 6.0388285664626205 9.460764767054501 -0.8265129928745507 0.9646051438950033 -0.06756884818890944
Ni 1.5529851313731289 5.598275528862026 11.952278637392277 -0.9688014413645379 -1.7552556185449897 -1.85528490125545
Ni 2.6043586469715625 2.3772102217715974 1.1864618646685248 1.6885092662573762 1.4101621522371972 -1.110715280123926
Ni 4.697605173692384 2.5744771195533325 9.875110681833627 -0.37514683404974747 0.4195230461722775 -0.05145343068428559
Ni 6.123957592736107 8.346653186868167 12.617558973607487 0.1565626990208142 0.685237044809478 0.2488321352801973
Ni 0.05410593626208791 1.2641115906296951 6.910869733440419 1.16203398500256 -0.2281344977215297 -0.3846524595473375
Ni 4.5541775972249905 4.228006127347838 12.834281252294513 -0.6216618911609938 -1.8117298994826347 -0.7790252317062325
Ni 8.035624319480995 9.161828389603684 2.9408558133637355 -0.9073623602224502 -2.1592895679427326 1.4897290533282472
Ni 4.934657780930123 5.85377526188576 8.251144014548078 0.39526211674238376 0.0857804861009297 0.07876728800789015
P 3.555892374919077 1.9319820347351637 3.406286654187172 0.8712841264426542 0.4164912013244892 0.21811336604010176
P 2.612986081372239 7.22652305587196 13.024403057233641 2.833985861121887 0.803621690098674 -0.06672166969726574
P 6.508502715609349 7.448386121368355 1.0555858440158257 1.448555921524047 1.2683017924235642 -0.5899771584632032
P 3.5167638149821676 8.746256421578934 7.196924102746941 1.8312803108107363 0.6775545885635557 -1.585557153473166
P 5.23177385421305 6.937433594572252 10.127570628939038 0.7669379615243953 -0.48025918771006965 0.7119322947124772
P 9.082106765087314 7.110601880703785 7.237525616391648 0.9163581359631572 0.35600548523460623 0.6735878906063238
P 5.518920030506294 4.762249910670685 0.9906585327443147 -0.23984844372434821 1.2268800349436677 -1.1321605944818953
P 0.920920886993036 1.5676395656489244 8.996446386488389 0.38688212020880464 -0.8070957646902036 0.6768549913933698
Ni 3.7274741143545107 5.897644686210419 11.508983408727005 2.0215833395067895 1.2645785779357057 0.693291025462206
Ni 1.9660411555247765 0.03343388996144635 13.091838802098037 -0.5575558047097042 0.04980381089600455 -0.09454743366028233
Ni 8.612207307534039 3.194610345021761 13.179129850289343 1.226365042980462 -0.7755722401606255 0.1555093180556354
Ni 0.3739537501955022 6.874065605231049 9.486801969786033 -0.8640325870865635 -1.2398270820226391 -0.9102008581125097
Ni 8.000419880958104 5.001733971129072 1.691086041595753 -2.0514482453870215 0.8502136789256003 -2.8682879768378666
Ni 8.837318569224813 9.053182798396906 8.605184256744979 -1.857724363934878 0.187124116747439 0.8045560289874853
Ni 2.134046124006285 7.478643162797495 6.114550027977764 0.3546170895275118 -1.0810429498704737 -0.30974182628137625
Ni 3.957748693695309 8.222264170753952 1.04691334793384 -0.5603709055609961 -0.3464286401794485 -0.1632359972759318
Ni 1.7563447439818927 3.4504762042061325 12.994449243368312 -0.06490775641697855 0.7792520030050579 1.215169945595591
Ni 5.807887449752456 4.685138108530145 10.509145435985975 0.47157040168682013 0.32291950131391484 -0.6030224216829356
Ni 7.440735023396046 0.7390960641249815 13.30281759398818 0.9507656669087496 0.8186076219845451 -0.6866750628075852
Ni 5.569163805166164 3.5166981000302586 2.534754308694157 -0.18538759367230656 -0.845982414453072 1.409510120475495
Ni 8.206210946787515 5.110276295982849 8.461573617197265 0.6125879538841836 -0.6910960746934163 -0.2051758320428273
Ni 7.788010380686388 6.662585502136338 12.993088943863787 -0.5769910306161805 0.7680306803679419 1.105117217210858
Ni 8.672909147397775 1.4148616903098505 4.570152902034165 -2.118700847887093 1.104217331104408 -0.9995742037710205
Ni 0.5701739026718234 7.091225357740785 13.115718676836885 -0.7216101841218734 2.204381575185365 0.38009415075269376
Ni 1.2362296753195654 2.155112460018383 11.242590953031778 0.6938078171976245 -0.8694735555964768 -0.6278813897081444
Ni 5.754583235903663 0.7731842872504401 1.3547681831437892 -0.5623861362188121 -1.0172754777055255 0.481893380879383
Ni 4.535486387331904 8.662704554151274 9.137035077033296 -0.07205259499187591 0.31259755056261646 -1.3440084392282594
Ni 5.052597343906944 6.509131701577624 13.532070775219301 -1.0167144629957328 -1.14210356462722 -0.19018270106810473
Ni 2.934163214904278 0.5475341629540091 10.416056451466206 -1.4582919178648885 1.5475253955114252 -2.6282960655571186
Ni 7.169454314063786 7.093065376394248 8.519350202916007 -0.3669977225800518 0.003972354384186707 0.36363189143161245
Ni 7.596113333260678 7.546066703456536 10.827778462094093 0.04613201847137217 -0.004796135837062708 -0.5066248221877919
Ni 4.064460387745895 1.3938235178485707 12.00497170218831 0.024198194512758328 1.4775962746204554 1.7865767972557747
P 0.7550638586539375 5.229201583238311 0.4507031813155135 -0.39592031915167303 -1.0914577174458944 -0.3705864683725747
P 1.5520275706453064 4.511246957927609 5.424620013301338 1.2495473946341966 -1.6649600181825261 0.6620773188635629
P 6.694701337919487 9.03885693888066 4.8575403460794195 -0.0029806798948787375 -0.46441682136117435 -0.16928528879380522
P 8.55359895828113 3.368877009635207 2.8193244588725523 1.3710821555166002 1.1427872209578058 1.3974529322006448
P 5.960787367145076 2.554330792867966 11.92585653279956 0.5289743935275858 0.02209168969271679 -1.2199714807492925
P 8.89161789520252 9.072681363413452 11.954133676606176 0.1783653967182025 -0.6137719468899558 0.02444502041624177
P 2.8401345065722037 3.9925870060575614 11.075112642950572 -0.3095078558936992 -1.3085992064910303 -1.0157392435666572
P 4.284567925241283 5.943016166578721 4.119230983807296 0.908623486323061 -0.7841491831963592 1.085806175587072
