# total energy = -340863.3417726961 ev
CRYSTAL
PRIMVEC
9.31340769692136 0.00000000000000 0.00000000000000
0.00000000000000 9.31340769692136 0.00000000000000
0.00000000000000 0.00000000000000 13.63111357812497
PRIMCOORD
 96 1
Ni 7.141921531418025 7.653097228625158 11.335306649786185 -0.6427973875880284 0.32524943499867215 0.7378163615680907
Ni 0.9764083540337909 1.2021560442390107 13.184326359934373 -0.6084063117026683 0.5461776447797497 0.45370303448809607
Ni 4.858609236295596 0.9710624579911407 5.658221171204601 0.21793416014976014 -0.24778852450703134 -0.2653427313407108
Ni 7.669358438538863 4.547895327280102 7.928769441019622 0.08198759471740072 -0.16657251784833246 1.1692001637336962
Ni 9.02553961997883 6.083275787041724 9.912122950384488 -0.308801573855294 -0.37033835691751055 -0.8329183821802624
Ni 1.2056113185104798 6.6287713917700515 5.892471071335492 -0.1619869553601791 -2.058513122653603 -0.4398879829818747
Ni 9.272233164190878 4.683880393689047 3.0875017699355496 -0.9071872680971667 2.337081865766285 2.5403447970571156
Ni 8.437351354171218 8.388176561305029 9.318665158477694 -0.43364688716816935 -0.3287566768209822 -0.8537024088051491
Ni 8.686233549202123 2.8168867379438014 11.126969444009761 0.819693398849556 -2.845574080180119 -1.8529207718986473
Ni 3.5600314817263468 4.081032824098978 6.695507546270424 0.07252747774576541 -1.715534645806284 0.03244629345416347
Ni 8.016320130477691 2.165395239728712 13.682503333959055 0.6558259386372124 0.6759612759345067 -0.656926627900559
Ni 4.749595798701137 3.76470293021638 1.7799235381265495 -0.5415339753601512 -1.4984103831523292 -1.0495011705084505
Ni 8.51559329259335 0.09989933678028266 2.2785494184042907 -2.6751873307920184 -0.41361516532827475 -0.11350109194464969
Ni 0.12311114289020757 8.164412626948389 11.553064367491421 -0.1299209280635698 0.3813449924406594 -1.2747385491878434
Ni 1.0648112203000537 1.6805485462020178 8.372598024178652 -0.05243173543715486 -0.7016820777393786 0.9422568581067902
Ni 4.386708179527235 8.63040898320971 7.438348672960652 0.12756014114087708 0.6078491536476176 0.23779901739448725
Ni 0.2603432745955129 8.354629666626238 0.1048354428823812 -0.6310621014289712 -0.4113538800979238 0.8869398307020403
Ni 1.845712519059783 8.228665826945328 1.7976711679155284 2.8819161091442624 1.3668208091370848 -0.05078031587666093
Ni 7.168222594875243 9.466985833438013 0.0570250642500739 0.25384552933438864 -2.6797811208102877 -0.4648564800017542
Ni 6.002342273782787 1.2240984328739997 1.8018426432421888 -0.5109573881248749 -1.290511495751384 -1.8311998352817882
Ni 5.3097227669887035 1.5295968335552004 13.010488810448523 -0.3078116991381989 0.25814724203353606 -0.24221951505968609
Ni 3.0359194611686195 2.4666467264805605 13.213088025716448 -0.38211940871283867 -0.37901634430748277 0.8134199071360184
Ni 4.9880376636557155 2.148770806913154 9.562280621431736 0.16355352851635058 -0.4779212836055124 -0.8034674239089968
Ni 3.0969315952721055 0.6118592229191078 9.531965479238659 1.273384349152794 -0.21846277895972055 -2.5231405173636867
P 1.4585075922772417 4.12374411199374 13.469707799897588 0.1921465096626949 -0.2970122945298498 0.5552397549820179
P 4.442420984626771 5.80470244813631 3.4693775648093723 -0.19264093280061015 1.3055485925901644 -0.08058994303892572
P 0.7597943227990012 3.864402960071031 9.353356670967706 -2.0294334316788274 -1.0401454403251635 1.2647765528791253
P 7.889415636615061 6.190817706213293 13.08873168021143 -0.09451503776045013 1.3380604491749406 -0.2874336497024792
P 8.119466121196073 2.6676114386901495 6.380492705560687 0.6771702086409435 0.3853726255428137 -0.08267767880588987
P 8.032674474468795 0.6068504722366388 11.739496438263812 0.5795667617631566 0.4239872525912181 0.7702917084879767
P 6.7767148737169105 3.350377360095516 9.929216778950131 0.8866629228915698 0.8764011359542455 -0.4354088641645985
P 3.618081952168574 5.571029047944513 10.550018735981004 -0.06606012485386688 -3.530896485614551 0.48510597427940977
Ni 4.101522321126557 6.510826396153115 1.3712493438222013 -1.2667131077802056 -1.3464041931539457 -0.6488261102806117
Ni 0.6125772866558471 3.0849452395109718 1.9491947237975702 1.2497042319270348 -2.7317305172943858 -2.6750955424091605
Ni 1.607075072542668 5.381650214963245 8.05853687642147 -0.9388825423179186 1.8056417843070258 0.45289519387482
Ni 0.879242502425142 5.96959633216962 1.1253455765864875 -0.34248019705466176 0.4645366347684903 -0.9417261824143006
Ni 5.649559702006578 5.797158587867065 12.522822017058216 1.3519688317259166 -0.6523940301375281 0.6781559695929804
Ni 7.678466951308396 4.365594684181089 12.008165899378715 -2.188936701385204 2.2912360110767636 0.9342982653813459
Ni 8.290171571659023 7.454228033157025 5.781772838280902 -1.6475791037019174 -0.2250257768892189 -1.2256659600309086
Ni 3.627833090072153 4.736519774234445 13.276964032699926 -0.07709170007768013 0.6961668043481043 -0.7080684408816967
Ni 5.1344537467332465 3.883122909628046 11.277388429733861 -1.1890174555699393 -0.5872111656822919 0.5988644336505041
Ni 4.334040858758618 7.105291898777357 9.442067811030158 2.1465106710105095 1.622753045797173 -1.438870318805167
Ni 2.3857318400371037 -0.1214598756979395 11.59592001320615 0.05114952629062159 -0.3979800298941791 1.9478330450975163
Ni 6.2715742647251735 7.7634983639728485 4.064320845250666 0.8986722886476199 -0.5748045644878229 -0.8557726610706166
Ni 1.0128889721506211 4.9430259640492205 11.495609023803768 -0.10284721177522933 -1.492419455676217 0.1797496786602388
Ni 4.9682280453931424 -0.2400586725382098 11.16410013798683 0.7575464930071663 2.300490439795496 -1.0911764387600498
Ni 0.5827743818884595 9.228776803676931 4.29771298052872 2.4729001331508957 -2.2148361948597857 -1.2280771405755624
Ni 5.41258004206715 7.877811130571258 13.382277253399359 0.9523641217441212 1.2799694585694796 0.27709498678063244
Ni 6.21188463452074 5.775402467386872 10.111028468142804 2.629646408937426 0.7039634175743876 2.0260688860819687
Ni 0.6849918258551807 8.417960839256937 7.228593035185457 -0.7650484578111664 2.013543242811132 0.061476876358558634
Ni 2.956308451808736 1.8618805948960908 2.2476205226411605 0.518655528100081 0.013048348543525915 -0.9459790441533837
Ni 3.9480373615745115 8.220637669473613 3.0475081344192634 -0.22926861132597293 -0.35720310508713315 1.4439112236631841
Ni 6.570702294512345 7.218487056446991 7.8189839219235315 -0.020933150608241368 -1.2393426861870527 0.8644511626812209
Ni 2.1369520924913368 6.097162077981779 3.3469155664386294 0.1987997533131544 0.5432969807978449 0.8225792050377834
Ni 6.830909593354857 3.554238542112186 4.512402861724466 0.2309449705871313 -0.09481174306526252 0.9073608175605534
Ni 6.834402121257286 9.497068140437596 7.266065531226577 0.05474804227515732 -1.1845146826035793 -1.7988005930154762
P 6.246847167175982 8.979391684628077 9.383849699248614 -0.028337927712744744 -0.40582703674242365 -0.4032356218661636
P 5.3128893256202385 1.9492682997187147 3.52270241216442 -2.7764278602017605 1.7756398386282966 1.5282403220295682
P 3.906816218918119 1.6819734975862086 7.474321710355662 -0.5877832361356781 -0.470140611218829 0.5662152801569151
P 7.7568951578853245 5.9445339519417955 4.106263777006894 -1.2603568265448746 0.5506007135481098 -0.7150839529675814
P 8.838908242280805 6.540536166843105 7.655751549831003 -0.07305738210730645 -0.08731672023979802 0.7959634022224679
P 6.2283134857737625 3.3953238658478324 0.1932317897632263 -0.27373506916946405 0.5874996434569882 -0.32279557414154086
P 1.050207796964034 9.312280817472054 9.686800882912976 -0.15868540179077187 -1.150099438348503 0.1758086917346198
P 2.387557267954106 7.54306862958706 13.39698591824284 0.24391541470487027 0.12932674612299663 -0.6764680403675963
Ni 2.4122936789110376 7.745747008820773 8.56198896458998 -0.8089682991225682 0.10140148046763826 -0.920204249182125
Ni 5.1262113808835155 4.7795942850310595 8.640012969271 -1.789344332698583 -1.8971216347855782 -1.420328808357554
Ni 9.143195899955831 2.100853324091839 4.387419723878557 -0.8729165198397547 0.9981323291181713 0.3585169388025503
Ni 7.666471282139523 2.671094653184838 2.421975897597343 -0.054900765802937714 0.10323827656606091 0.5385676936429756
Ni 3.0991202460909606 0.7360376823362974 4.243270524244895 0.24881053801364245 0.916881355456479 -1.2803093584074015
Ni 6.854230366335337 0.7876917043428238 4.2493363467058325 0.2938773484452939 -0.18727478339269038 -1.1568431848302398
Ni 5.103617053706739 6.8760516806697085 5.818781526616578 -0.8380258786101568 -0.9148134171838568 0.6805463242020279
Ni 1.504618273997034 2.052190768651339 10.797831751803379 0.13168084817747 0.4345884251458322 0.04901448222548978
Ni 8.609565576688018 4.8413421783459905 5.695078982334893 0.43205845963512685 0.06688750585116868 0.1955352236292697
Ni 8.194392486462831 4.373371379643829 0.8510862081461528 0.2702154860519798 1.3878596320852548 -0.6582085799367762
Ni 2.0109603125872066 3.0925077265956964 4.075634772972985 0.9304940611439072 -1.3954747254283515 -1.3660278809221442
Ni 7.798852059753162 7.083554405112644 1.493915305822446 -0.6730510442662473 -0.1658929752828046 0.10675503147006775
Ni 6.461502588763089 5.002799414923312 2.382936886374387 0.8445220278574617 1.5000461189835392 1.3876485445157134
Ni 3.7841772658003197 -0.0900252618945376 0.9386843959836962 0.4930056887424606 0.5461102818769239 -1.2299208786525204
Ni 2.5141823595845434 4.365846146190064 1.7856075108701543 0.3218463228543941 -0.13554778733204398 0.25043933186631706
Ni 4.446192914761393 3.850144132821384 4.179667400108195 -0.6931002496076386 -0.8045223475360725 0.7710818084894397
Ni 0.8130344181436169 3.4301466973869768 7.068441538373257 -0.7330814179862665 -0.0889624833733371 -1.0179938439287888
Ni 7.727595177135886 1.4661166464006654 8.897586436404694 0.10553221480656019 1.2040221565088878 1.380549728687403
Ni 2.7420907603853992 8.04759455366797 5.205081974328085 0.990183763695056 0.26169664994769126 0.6914208050226867
Ni 2.0084829461284177 6.997973501391543 10.747942620563546 -1.4866329309014268 -0.5985052505388725 -0.711898099040432
Ni 1.8047800920433246 1.1624809272674264 5.993709676148759 0.04570521534659871 0.49636329236078386 1.4109838768075442
Ni 3.9856542154355985 7.257081818120757 11.736375515330204 -0.6146970298073865 -0.8083221808981369 2.693858681949277
Ni 6.126834595040808 2.3552118028737508 7.182056730731955 -0.7460482625595797 2.018135747277821 0.43844585121870944
Ni 2.8180602273190174 3.811698385671454 9.280143972725071 2.303524084415497 -0.6065427761313683 0.7395269165012941
P 8.335406793051273 0.2509413894821761 5.526271604369315 0.29314946914033385 -0.002869608238311187 2.811711880215035
P 0.30730613312349764 7.513517186828646 2.7585559339286063 -2.477464869703443 -2.185542845212307 1.9707729417231412
P 1.459606574390539 4.501840526006749 5.28784929757099 -0.10927754078160534 2.4647911308905166 0.8183325139462875
P 3.2011113742496042 6.119709838119855 6.86472378283578 0.8797489693805558 2.7104117012119513 -0.4240705563336438
P 0.9436624124206239 1.0126095699184268 2.0067730044673886 2.3364360046521697 0.6419818336652686 -0.6313680627051643
P 3.6002095227158812 1.8390254923026006 11.259041016486439 1.7978330868958843 0.09110729763048181 0.3952878277739967
P 5.89665372275144 4.726405413429013 6.679545296745166 -0.6650495141180094 0.6648032024351583 -1.9872879086590294
P 5.666901267218102 7.798805492714462 1.886191383119313 1.8063164417765472 1.4611661540888898 -0.2179860964336181
