# total energy = -381167.56747244246 ev
CRYSTAL
PRIMVEC
9.22627160199894 0.00000000000000 0.00000000000000

0.00000000000000 9.22627160199894 0.00000000000000

0.00000000000000 0.00000000000000 13.50358109534920

PRIMCOORD
 96 1
Ni 4.553423224106814 3.992143009329663 0.7454891797508703 -1.210539388802115 1.4902944389134138 0.17744082802140407
Ni 4.288490843613251 1.4068772060575119 5.333752649555745 -1.224795384500497 1.6441790768814328 0.7276767020309274
Ni 1.300747407247919 0.380139907639134 0.902887522942376 -0.618156963331529 0.5373659600253906 -0.028782471449331076
Ni 2.5676159462676518 7.667096037500064 13.443165359639542 -0.407303364177634 1.606209539616195 -0.8504003410151095
Ni 3.3499576214879787 5.111917104950167 4.512990935371417 -0.32114801123578884 -1.9674731879259473 0.06306607522254945
Ni 8.667915817198454 5.331170216217763 9.37843927396153 1.2507668688635942 -1.2559437850788435 -0.5600528600999451
Ni 1.9811018794741364 1.3806561430116226 3.2841927596332647 -0.548125769645056 1.2916579506510013 -1.28077035720422
Ni 8.630724717572141 6.868377730715187 3.7578030992258107 -0.04583042807055332 -1.7089215113651408 -0.990537804600365
Ni 2.692253645313013 0.785991588148178 10.80268862625729 0.2870508124417637 -0.28321369808386065 0.1061698483905591
Ni 5.683420028332119 8.817215339439331 5.148321203634249 -0.11158484875854331 0.05492082040759573 1.9147380623157604
Ni 1.7470129239497525 4.839566802328209 6.273371803813494 0.8089014504403745 1.5535163229875375 1.3222633342416839
Ni 7.01808320889344 7.122829067007437 9.10085952076448 -0.7985782141374956 -0.30980378986756324 0.6647947177947261
Ni 5.335478884916718 9.107676812630986 0.9765030190496401 -1.07715672744219 -2.2355687994214466 0.3265820377671666
Ni 8.98959899248275 1.5954806440533125 7.368498838272567 0.278241698790566 -0.13905605759561857 1.003916025679484
Ni 7.738885654516271 0.5591655533942811 8.997867576825369 0.4240443310813987 0.7073223067442915 -1.1337510788974667
Ni 2.995871781384132 5.586322749129115 10.490391336770525 -0.3148801759492061 -0.3857726891947098 0.5014985567048201
Ni 4.74884487659625 1.6393700166463085 10.379365155779913 1.0855318388797628 0.8647733219073299 -2.03673202222277
Ni 1.564046737720679 6.823574957263098 8.618296007498559 -0.3408858559843484 -0.26690081985645003 1.2055601904199689
Ni 1.978573881136848 1.7467822671671533 8.628247463727025 -0.10925517218410216 -0.8637898749481382 1.2797555427864604
Ni 6.7880445864715 1.1085088183583534 1.9820964715207046 1.600258464239083 -0.4203296012339729 0.8377512847925315
Ni 3.5824596583480792 8.670895902829637 6.903354525228545 0.5489066136751385 -0.01805068685412375 -1.368696943113875
Ni 5.915460751627021 3.073944489158345 2.510491487489108 1.5009377775598731 0.9265476749016495 0.36019689760813445
Ni 1.1730742649435513 1.0041689161817313 5.578247916483879 0.9545590725129107 0.9458183502058034 -0.6782878671851544
Ni 7.960288486997694 3.414320090104489 12.221321024583192 -0.14628394280262547 -0.8922563578189472 -2.170127281988185
P 3.253746064330156 6.837746509985998 5.73656427367013 -0.7326561575233898 0.1299875196354471 0.7034260570136788
Ni 6.607218895184948 7.789768540757679 13.09940463975197 1.2748329086738623 0.31944182717795955 -1.5487343282178618
P 2.9895979168974307 0.615165329700871 12.973808331118127 -0.3944272795459142 -0.9734877910966138 -0.3328089925134849
Ni 1.4179579578935824 3.542528356144487 4.578713356378133 -0.08998912486563856 -1.5267418831071706 -2.0225320765733037
P 7.269249992601476 8.345328467326368 7.361234072247819 -0.7080581564690516 1.0301109389072969 -1.4560080069267183
P 5.187803186425337 3.588161494013934 4.447512087927126 1.0123649277777855 0.7790337163466649 3.393338609831014
P 2.2979597148664554 2.6108594798693696 6.81556747639838 0.7206671034823137 0.7296417961770982 -2.0392830707793976
Ni 1.7329336339398909 4.388402135563966 8.591531517072866 -0.12257451500082761 -1.069377083496771 0.8472731082400377
Ni 3.900563040366434 8.035519503210283 11.046415344785805 -0.26455957331778307 0.342108672647856 3.012189021230612
Ni -0.23336653848128278 5.176510230349275 13.301432302495051 1.5492824874118478 -0.30220412314343437 -1.019620066678302
Ni 6.601886110371252 1.8533918320845526 4.4848904808609085 -0.2167499100336719 -0.47285980992220494 0.058116444526757974
Ni 2.606513906085199 3.094777409762714 10.82926397812125 -0.44865493054122735 0.33811960609312086 -1.762277558388778
Ni 4.39375337292027 2.162444241953711 7.974458194466334 -1.096577298060647 -2.854383965162265 0.7490112018426455
Ni 3.5929591550919997 5.767139214144363 7.9795630903788215 -2.0250746404894997 -2.5527598828920164 -3.0789543996816198
Ni 0.1779101895544968 8.806162266417173 3.18149790163014 1.7464305640541924 1.3961149301155116 0.07496951152835475
Ni 7.908335353285025 1.062386688109796 13.028970361990316 -1.412781077917283 -0.4057077375557399 -0.18587044684599602
Ni 4.921920499987467 3.37925103287809 11.930278296299388 -0.44871612279646594 -0.5739555862239664 0.0050802427363848
Ni 5.426329978446932 9.383394704278894 8.715859213402414 0.72976520912884 -1.157807091405406 -0.9736186602475231
Ni 6.4920750293113745 4.36086171572161 10.273983607573074 0.3922757804205502 0.8295540936937197 0.717300501002926
Ni 0.5391888307669204 0.7192238306027221 11.09016632330924 -1.8876242368181038 -0.5589097476344375 -0.14856296864478932
Ni 5.565877331919513 6.6231249869129964 6.9671182088374275 -1.4400365711991263 0.970197036160484 1.2655447985037171
Ni 3.8470229879894835 3.1022322369763238 3.0867837683049526 -4.393898574554072 -0.25447776360174884 -0.6723992696148613
Ni 2.864120627163408 2.8380471844583828 13.062446042162517 0.22975917780914623 0.2615817216363817 1.1849324868672884
Ni 1.1451002103499073 6.969811357431057 11.368394683378957 1.5165479732933043 -1.0359419437667772 -2.317929975428182
Ni 6.338328444301981 1.7261430982601673 6.884354864732275 0.8483840819160292 -1.024358866914868 -0.5752987305154221
Ni 1.0375218869455909 7.558825743747949 5.4236322167176505 0.28343918383110545 -1.020037870942011 0.2704522846531342
Ni 9.136398195200252 4.638692423498126 2.374807173811501 -0.46721983802760825 0.6525156433170568 1.304320119499702
Ni 7.830834674331659 3.138703687440926 1.150915529152801 0.65799646392597 0.9381901442365843 -0.6729535994564346
Ni 6.723276161917615 4.334096302668786 5.957252992752624 -1.3696503081660798 -0.07309646287535798 1.0822487972531167
Ni 5.037719431123621 0.6939217041787086 12.289054772734174 0.9795653647492614 -0.1614231124369091 1.6425703376334162
Ni 6.578137688034828 5.075224223974269 3.633651624678169 1.5192877408219705 0.46799965361642626 -0.7761702787559408
Ni 2.100296078450154 4.425648592818103 1.755424515497584 0.10109140542638718 -1.130994342087936 -0.5677067771007771
P 5.791662643270321 4.975765019317448 8.206504453524019 0.19654849538513247 -1.3324544158420728 0.23056547576052547
Ni 7.512989627909816 8.866714284985143 11.069627720759467 -0.8095048883523285 -0.541735549847996 1.2118318823612937
P 3.355797851223393 -0.23578382156292352 8.940018855749463 -1.1734753940702825 0.25368612093838894 1.5879817037542585
Ni 8.606598018112253 6.449089831306167 7.3133774029941145 1.0581950987380226 1.3045749158229856 0.10365248128534406
P 5.731433544197991 6.3526568436370505 11.170269733397458 -0.3737936624559627 0.9143002249928641 0.20354498130762366
P 1.3030078437173922 4.193063519516266 12.020887661521439 -0.8135080959744505 0.7698237677126226 -0.4470459341828946
P 0.6302179913333018 2.606578489984327 1.5625400876167403 1.4627800355432292 -0.23595425087626462 1.6757373113036882
Ni 7.530814784069089 6.135230534087639 1.1187758130654137 -1.4605575739706136 0.9012297649621511 1.835258321621878
Ni 2.8851934308216807 8.289094343728657 2.096903578491683 0.22404515814350445 -0.5492441995202154 0.8464827511282583
Ni 8.588532978899076 2.902944776810523 5.6473729863474995 -0.51414684159645 -0.43432180174800683 -0.8103011590013787
Ni 0.6078904147776889 6.8534127186601435 1.302542839643672 0.9650658855815056 0.16707851095047355 0.6040410927554372
Ni 4.441960640483526 7.0320794624615655 9.297674340220818 2.8685977947688013 1.30445973040136 0.09925718043112583
Ni 2.6057758043808814 5.5207793177856965 13.068941337160513 0.4056547728306175 -1.4360801576545397 0.12223204405974435
Ni 6.413171957119804 4.931506595872293 12.668141040190395 -0.27487792452465565 1.5475765604643348 1.5233179450272862
Ni 1.7240395084028617 6.274270442638501 3.3459580328777068 -0.6800097349722676 0.46616619995211334 0.37388493661818833
Ni 4.827369671664358 6.563052734452833 13.618766213486653 -1.6280194364024347 -1.1041324847000855 -1.3940667893372314
Ni 6.999353878146376 8.35046750044268 3.372303650586199 -1.2259878621467015 0.07522225096910916 -1.4374089037682922
Ni 3.642467326909115 1.3778052251786952 1.3995783028289392 -0.29958082658797436 0.9097275180205172 -0.1351790911387156
Ni 7.253879024609059 3.1481882943414097 8.470094411542854 0.31955032773136577 0.3698130805416599 -0.8327921410150432
Ni 4.524461958483646 0.34616877669790824 3.3037856693743795 1.3982923973828048 0.46541800893217916 -1.110809382499629
Ni 5.1329345509806155 6.514670167734802 4.630080621862998 -0.3920356393852861 1.092644538665144 -1.116607991459277
Ni 0.08961200529409122 2.8735314238934597 9.68317471148756 -0.18311988068405236 -0.2720702798725314 0.9070859666326119
Ni 8.33713553840844 9.025027874290002 5.428047910163732 -0.5994064221969031 1.4119215581304652 0.4598220029016404
Ni 4.376066610830556 3.809887245990995 9.466320430758996 -0.5081335455228345 1.1825758137096538 -0.2081331148989383
Ni 3.864515998381815 5.797013880626625 2.350433210280667 0.4085536916449673 0.14427719678524187 -0.11626991293903846
Ni 7.983898515264559 6.2625807568963685 11.294732133288043 -0.6388633426409449 0.4957778521709591 0.7979323530233806
Ni 9.083153383505028 7.830484076022108 12.736010414529545 -0.8539518058117938 1.3272785280680885 1.3647790961167074
Ni 7.150055793625459 7.026285364082671 5.601217641522248 1.9746321675682312 -0.472875750761805 -1.8913520792916525
Ni 8.283780011457567 8.640892068549118 1.1653564889977783 -0.9087638685556673 -0.022610024090032026 1.0197452794022568
Ni 8.751450477584617 5.226285964034206 5.3045976322351915 0.9922961820523686 -0.06968538031127999 -1.421084712686972
Ni 2.7070710370271924 8.845844459295558 4.375889466421519 0.19271369502007457 -1.8466357102208844 1.4155126179158333
Ni 8.707625688890749 2.039799417510008 3.410220857764134 0.7724465500474503 -0.19957519802659823 -0.5835789682463434
P 5.941718719758126 2.499627553028681 0.4680708863016415 -0.283722262289163 -1.8446541610144813 -2.667439825636116
Ni 1.1958908338782746 8.756229686120076 7.475177600224746 -0.7602901171905745 0.8074372071900223 0.5906338182105957
P -0.21800018362451698 8.087555673364687 9.576334489787559 1.6320655814473504 -1.1333219617798482 0.6556194790533612
Ni 4.291858432639201 3.7445652451588716 6.584399558368833 -0.19343077569175718 1.8312545997791234 -1.9627061055546067
P 5.537414284946759 6.995091340803942 1.9790038253796132 1.8136291733878764 1.2954207601275431 1.620641655881125
P 9.02859844128464 4.324224192373536 7.288679597340511 -0.21287500045929791 -0.7592691321252278 1.4325523470069392
P 7.4359594887929505 1.890416858827393 10.700223502409635 -0.10792514051876896 0.6279760063044798 0.15886692167395863
Ni 0.5952125953789006 2.3324844220859196 12.959804696532956 0.7037955245379557 -0.32261791091309594 -0.2595189255700821
