# total energy = -340890.1425950115 ev
CRYSTAL
PRIMVEC
9.11631139436792 0.00000000000000 0.00000000000000
0.00000000000000 9.11631139436792 0.00000000000000
0.00000000000000 0.00000000000000 13.34264321653295
PRIMCOORD
 96 1
Ni 6.483292799108927 1.7562300528982846 11.529724549634038 -0.48982420569068547 0.860528687698363 -0.6619978717758792
Ni 4.93584451115625 0.4130491324586305 6.083310987490093 -0.9930721409864447 -0.8936838342940931 0.4625334882955324
Ni 3.180599019895121 1.6351836693969404 5.031977838712988 -1.1858169463547708 0.49632549714431295 0.19115689205591596
Ni 3.6545651687592855 4.29831350216397 4.951281161343238 -0.7728944362181464 0.029231128950975467 0.1399189198165461
Ni 5.363162494304466 4.501233478843923 2.6767614532859 0.38998389906257996 0.34856985489216746 -0.1910800160713935
Ni 7.048084759000647 6.228902127953256 2.5405063273839468 1.5572313099452795 -0.4839857446320374 -0.018737171398187084
Ni 5.089381428683712 4.645909341636989 11.748264414361229 1.179225409180182 0.5252100413891472 -0.746075002032457
Ni 5.4232116378594695 7.921536792140485 12.500082061910867 1.7360417646207005 -0.666000308067053 -0.02012505288464921
Ni 1.7103020757872909 6.575394893740202 0.48253001184512273 0.8072919398614098 0.38656973117470844 -0.5558395933495459
Ni 2.6219788028585294 1.4150885619355043 0.5915437758568279 0.8304771197286215 1.6344070850963335 0.46356218667036286
Ni 0.265367621778805 9.209753647554813 4.831024250413909 0.9013570345686347 -1.0362103669368152 0.1941799951529559
Ni 8.727528120512291 2.127710628383769 1.3495951571794902 -0.045182252963593156 0.06355021394781958 0.09108852857740443
Ni 6.919508302237357 0.9023571218706495 4.790783028388631 0.5232521463318279 -1.9867646891657074 1.0223125259088006
Ni 0.797468488792395 7.591152548694771 2.659949151700332 0.45294353061425213 0.2534166693270861 -0.09037324767793468
Ni 7.823035046867702 3.9644194788080265 3.8844174643711575 0.3920436098050861 -0.08440083214458369 -0.33316020520531653
Ni 7.532425270300761 3.782102366016689 12.540403507476949 0.9679946291925264 0.11950281805403934 -0.022288121974239034
Ni 8.01784150635258 8.807742545006064 6.934105340139328 -0.11226773375818083 0.7686999385208245 0.40309549674387357
Ni 6.909389196522153 0.695294693265481 0.23677431089975956 1.005935627212674 -1.5553860292064245 0.0991859608735582
Ni 1.8528903032571298 6.787376484006565 9.24575760801574 0.9817865407702963 0.06479797031199162 0.13133374925069638
Ni 0.2654432871638827 4.5326756370527 1.334958007507118 -0.24623583530793075 1.422478250600389 1.0270083887225732
Ni 6.285414142663666 1.899775493070913 7.137500276646093 0.8215733894810884 1.4132035101666822 0.781997426960679
Ni 3.8343661795890043 4.415603965345797 0.7286977700682582 -0.6058020413106019 -0.4593196093439251 -0.5850023309564313
Ni 6.15572549590285 5.443504547158611 4.768567489003602 -0.5694589839051934 1.2776744918877156 0.9456463434043134
Ni 5.0631538006272745 2.8939548388111653 9.437878402145934 -0.4792747123096133 -0.29958802567682596 -0.2681303213881769
P 0.14173402908649238 5.658029588320956 12.508874744309349 -0.4993856241268755 -1.1761611684325615 0.12466713586379818
P 3.7732504275937484 6.1543762818074885 12.654389307756288 0.2279681473469945 0.5098286738370703 1.2299609878618365
P 2.516302520470551 8.64944691289902 1.5785285285966841 -1.0415112103244384 -1.2345637767411706 -0.13240435660705585
P 6.451203382786836 7.879975528216504 5.707796444185709 0.004265460144573298 -0.11431895986025474 0.30890107554763574
P 4.542120135720224 1.23068381382094 12.846990531500168 1.2408663219204308 0.5620693763093416 -0.9322642656704526
P 3.8523800110243602 6.578357694963123 8.191435220712496 -0.25078771634467134 -1.1484331063896738 -0.35533802685393645
P 4.894091804691711 0.9984913610585334 3.876624841339304 0.46520537870074075 0.058483598058189604 -0.4632297430316087
P 0.29723368847024556 5.641601995078795 3.48352402160681 -0.8859563837428484 -0.3143656982066328 -0.034845904034591604
Ni 1.5713239076536871 1.3587315245198313 2.7606725420747327 -0.14329040739194032 -0.8248721148370182 0.6293134941689806
Ni 1.8371828986199243 6.523422802134451 4.727071862522098 0.9850443855859615 0.238652366533718 0.9060860646131879
Ni 5.711305312464792 5.691978732179896 9.287226797194025 0.4146037544937892 -1.0865885622790512 -0.3442295756456007
Ni 8.76316378199043 2.140710488518798 10.321362024411009 0.30053676274334046 0.49700092594478273 -0.20640996156024452
Ni 2.280746148781198 5.442237379866347 7.008276561769489 0.9813008593831293 -0.926632778416288 0.1700170247535072
Ni 0.623380670351612 9.075698287606983 9.219246462673048 -0.9219551704349606 -0.2702185713757733 -0.435775760585714
Ni 1.6073151052785786 1.1273321908540217 11.96329449917819 -0.10941483769041803 0.30962406975658935 -3.191055011734317
Ni 4.037887832824996 6.783693494178688 1.7025349784275121 1.0147455121948201 1.4232251560687423 -0.9316605706481825
Ni 5.759412088013565 7.677037318913641 7.969147640346098 -0.5204100488973423 1.308370635419992 -0.16965629897997878
Ni 5.620652711354884 2.9685991970058487 4.9071974140396195 -0.3669175041614197 -0.17168027138854303 0.16613774430375902
Ni 0.6360231710775996 7.161026741618373 6.921002465684856 0.19714807664234435 2.0718640900392127 -1.120808916914502
Ni 4.966958482152641 4.737537388072597 7.114590985959327 -0.5902232130357383 0.3236342679927523 0.17820213166746082
Ni 8.450811602602982 7.10834357771912 9.311470715877823 -1.2325459749801935 0.20240006906990302 -0.07548604615345711
Ni 4.678217549434004 0.37210960097588947 10.56667923077538 -0.807250802210829 -0.0523934260000517 0.4232483175426646
Ni 8.145378703609984 7.02966069354981 4.753250262496676 0.7686796268058503 -0.030699743076701966 -0.5120663049183375
Ni 7.412363448436572 6.1937405146707825 7.091321600970083 0.040999325230497125 -0.7087163588783407 -0.24305538069742008
Ni 2.369466091862617 5.411952993212372 2.571487200233093 -0.19336341278893152 -0.8974566710729641 0.23865030965118902
Ni 2.100534903935998 5.241678527853274 11.568939274989468 0.4429565946048694 0.4745706219657246 -0.22443005228674895
Ni 1.2292525529224827 3.61276688073747 3.819357996040408 -0.4483726234141181 -0.17167692895443334 -0.4418579622240519
Ni 3.9645197582340326 2.7408737368564604 2.8266254089280864 -0.8690282405289421 -0.6922065341487756 -0.26838331793924747
Ni 0.978544871594688 3.3652134431731535 7.936057253026232 0.325647184657723 0.47272277012370856 0.9529948133495844
Ni 3.61732503646504 2.6953104122036726 7.292795730653252 -0.16563329386351475 -0.1619890122427081 0.08240617031205807
Ni 4.426698516386702 7.114925554589731 5.91722182072005 -1.4263490464097048 -0.8644128532441178 -0.4789384120161171
Ni 0.808669700677325 7.468756951098065 11.428627390489977 0.5406726558011204 0.08292141938557977 -0.11116215939882791
P 0.32663196965077984 5.579629309806755 8.184323586146341 -0.5042031001201768 -1.7818025157955828 -0.07177337318856025
P 8.5081349690329 1.6991437105662 8.107043702309976 0.11331391563450807 -0.9058929747657753 -0.4129885874878694
P 1.9107879973087218 3.349852458371243 10.365833214951472 -1.472668755411851 -0.7876759654026951 -0.11229961543738079
P 4.157101837723857 6.045955989671513 3.7978899941947 -0.1322194942897594 0.8062177329606243 0.021948222136317037
P 6.7707847971582105 3.715407431410887 10.350395653133337 0.6630335121292452 0.867776627510028 1.271162658911127
P 6.262431921485259 7.768683597972159 10.231992999953983 0.31407644910098814 -0.4365956853838481 0.30715735338365163
P 2.2541629845780107 8.494132314637806 5.727503174658285 -0.1285703275729463 0.5464267846760782 0.762832423996454
P 7.321637916835022 3.9312361051113176 1.6944086983964004 -0.9477245660895808 0.740998101730182 -0.5478303498918242
Ni 5.783433568697857 2.6574686033533883 0.7752848564974582 -1.2304541254481711 1.2839448982774597 -1.194157347899666
Ni 1.3538178326455108 1.2341844774197135 6.890114579212551 -0.22457377695346487 -0.6955098874903957 -0.33058113162423064
Ni 6.817396497628339 0.5465228717356209 9.142472534122444 0.3613024719674874 0.1369302695018674 0.2761992144392405
Ni 2.3202015447590423 1.4573791307758972 9.248879944689126 1.1951436230723353 1.9766116598921053 1.2633642459126306
Ni 6.636948228685305 2.047523552824361 2.85703377741785 -0.014568641842794267 0.4004503458115426 -1.3234180166714176
Ni 4.14454867685013 6.916910153472643 10.591964232227356 -0.8823360133814416 0.5705396185638819 0.002475201013369931
Ni 7.920661626240792 7.341721150970695 12.844842728521336 -0.15481717708461726 -0.31312334115909946 0.9674726952507854
Ni 7.684175390783015 3.9354387246921374 8.399994547658597 -0.07816359298562023 -0.18279129370004002 -0.5326356444292569
Ni 3.2785537864805963 8.563498328499962 12.74046278562228 -1.6428395321344027 -1.1018359753564249 -0.24031664161001842
Ni 0.004404090063977955 4.699540601927576 10.24313404418331 0.6207226671761761 -0.16165888259679903 0.442070078234858
Ni 8.407782612534723 2.4471826470176827 5.909042666082499 0.41560468495447783 -0.5330776170626819 0.018150188546465516
Ni 3.5775596858977208 3.0870109664966576 11.652917824483069 -0.6562185460899409 -2.135744690743257 0.7153174091346262
Ni 0.9995762021216951 3.384184487311299 12.81394116758185 0.5673154551996294 -0.3426151799706293 -0.7632607697831242
Ni 3.012630981334173 8.829211458482918 7.955071143828217 0.574302942261056 -1.6269650269959914 -1.0167885107667778
Ni 5.623889001921459 7.9359040989937855 3.4771726874160143 -0.1193665495864912 0.0013344025407073792 0.6943603472669848
Ni 3.1065016403877457 8.76406629682449 3.695058000980725 0.5532078121536538 -1.3585765668504215 -0.16482108237486454
Ni 3.3391863739687295 4.656876264317522 9.455730874868534 0.6422690258883842 0.19192256657734688 -0.7205524322813203
Ni 7.201257024069904 5.92464523313797 11.096129074417814 0.13440184665305885 -0.22639308955039075 0.9055749293047242
Ni 0.4702302844298483 8.921030947459084 0.18793823043457658 0.0464768034053006 -0.05235100279789049 1.1869736856670332
Ni 4.947239900475175 0.5221203292325031 1.651605792852229 -0.6667484990869872 -1.1037385916957765 0.12180241272149346
Ni 6.171396435294234 5.463578664982829 0.3367665730954586 0.033141262638659054 0.7370697132100532 0.5737403848893667
Ni 7.995059844026186 8.848218967866885 11.080864722517328 0.15223064730436364 0.895802937519625 0.5134577859492254
Ni 0.04777585344295026 4.707863794286118 5.884425890260186 0.2789631503376228 0.9383433819849969 0.06627146953372458
Ni 7.979042484799507 8.90837750715935 2.443064809133396 -0.6210839071703368 -0.0730668951890032 -0.004513057379005131
P 8.686778208307818 1.6300967676049725 3.606730059291877 -0.2678999505449257 1.1330748787660485 0.13014975624492425
P 2.090479612400979 3.220090881118786 1.7423486454455432 -0.15709260338235526 0.9292234219615997 -0.7687112513747342
P 4.785790024604652 0.8939491478155743 8.449309234475177 -0.5810148070635929 1.1285502514228176 -1.3023678808693375
P 8.675738355135643 1.6610192960608061 12.531010060153573 -0.7704176925428797 -0.7941993683435097 -0.18879867623638452
P 6.521207538450852 7.69073001871926 1.0737064003503085 -0.5583705873015158 0.746340854099334 1.2163796496329762
P 1.8361527554254937 3.2139738361323866 5.803115685129504 0.145371201180369 0.27610305518100836 1.776741813443224
P 6.827725278507012 4.045199114612019 6.366108996771126 0.7922743834066548 0.20967500546476148 -0.750605800023275
P 2.480530114320583 8.64394977709157 10.47104000729951 -0.31735332008004696 0.20947008854280696 0.015079262930625642
