# total energy = -340892.51243470446 ev
CRYSTAL
PRIMVEC
9.05380808712004 0.00000000000000 0.00000000000000

0.00000000000000 9.05380808712004 0.00000000000000

0.00000000000000 0.00000000000000 13.25116330845040

PRIMCOORD
 96 1
Ni 6.340825531914716 1.6263898931119085 11.187533687264363 0.7508186873650295 0.8753847788745892 2.0648619476897663
Ni 4.67695287277883 0.2253972717383425 6.012913800481616 0.629855996936012 -0.5137565481365668 -0.5485952530823068
Ni 2.9050773354062205 1.481601392084021 4.955736830057508 -0.598610151547853 -0.7219886505072147 -0.847881688358314
Ni 3.407880574812408 4.543336771092389 4.888818322754023 0.8951807305545938 0.1587640775475072 -0.050760518382319035
Ni 4.7423575833482055 4.729655090417858 2.5309323323061053 1.375829183283282 -0.48729732550377364 0.011658410174534761
Ni 7.232562264764876 6.164285325465068 2.587369245835203 0.3434304767830731 -0.4817082614517705 0.31925002288212756
Ni 5.042753886224912 4.65162031738388 11.601512730382762 1.3533857666781015 -0.1935395333554796 -0.6128949436016412
Ni 5.4935339436084485 7.865794665364644 12.473094780758046 0.7106855667895695 0.33500240062037784 0.7610691614484442
Ni 1.8802677293627215 6.633779604435937 0.2537872981686294 -0.7490032314228455 -0.4311115223408252 -0.002904061020672418
Ni 2.8499758585893296 1.7418802707452088 0.3700019804593977 0.3653879548907707 -0.737837187503697 -0.6573308053175131
Ni 0.7570432279857341 9.002237726740425 4.4054155835981215 0.9101823461697487 -1.3841600717464808 1.33185689146739
Ni 8.40057595539805 2.4819204468968774 1.5911198778164959 0.7441227634020926 0.09389771589142538 -0.7825586987807877
Ni 7.144921401211227 0.5887564731079353 5.06485966437084 -0.835653007502606 -0.26043166719233857 -1.0993754296310745
Ni 0.9516729432556505 7.162793618634254 2.5431106097406104 0.061929904735577204 -0.14591061862360677 0.03449109179833414
Ni 7.542392635805105 3.8043015676529572 3.7777078167731912 0.613680158507098 -0.2195840370483573 -0.4481170557598863
Ni 7.333186289303642 3.9091537206296936 12.649454816424152 0.9827440195875592 -0.4425326196935733 -0.19078305365626497
Ni 7.92323202470187 8.572344804916629 7.024627072937269 0.3210292262697374 1.1421920105759682 0.514808643550165
Ni 6.645486178462266 0.8919241466802791 0.3901331230329037 0.6619834735981761 -0.6943405497726429 -0.47744588663099063
Ni 2.1027469587122893 6.42772398319446 9.347530053810296 -0.60983738772224 0.1408707422068542 -0.054286015037074246
Ni 0.15881556610058073 4.891790687992108 1.4785384887637523 0.045486414467573275 -0.1286315198281849 -0.40852952327525127
Ni 6.327000366765294 2.151230101721565 6.989935595987009 0.6473796076420721 -1.237223840071837 0.5626566162713794
Ni 3.3105883516979957 4.206806719616239 0.4289956894293585 -0.6706180093447225 0.8685471871274655 0.36424175710146944
Ni 5.978256728002585 5.693369598603916 4.629704669210537 -0.38775243862889996 0.18227707306778285 0.8754742532646019
Ni 5.274902582751681 2.650764916360927 9.4481721859655 -0.29846496781597626 0.7743733347565179 -1.46984825524392
P 0.12738527087057122 5.5344571567553995 12.440947423917144 1.2391225997564466 0.1125505551059223 1.1400050302269786
P 3.9712900064322447 6.10746362508669 12.708979078555707 -0.38582899635394197 0.6291653986268906 0.2406763389422823
P 2.478869313527293 8.740917660134127 1.0992128966010954 -1.3097734293047893 -0.9159071644686677 1.0417912034587027
P 6.337756290928695 7.556063886214817 5.8479506986007745 -0.3820152790348066 0.6324181012362334 -0.3293757984622198
P 4.678455804943076 1.04601362489088 12.468721791388583 0.18651425107758202 0.19257794077315865 0.7336959116418138
P 4.151831996114405 5.878257416230887 8.217351322340793 0.25791430008712357 3.394480436744941 0.662299205066382
P 4.647509888452749 1.2225176161076554 3.7868250016490723 1.0478973163564407 -1.5733873508798515 0.028239197351351365
P -0.01619816828345385 5.43583402383289 3.7265981639997716 0.92304171863092 0.19123453937138676 -0.28641806395377123
Ni 1.4362599205265132 1.1470179093748167 2.3879392014479164 0.08448799254175127 0.4277683169002052 -0.10050905056035593
Ni 1.6167023183182718 6.264411390551825 4.961752180237782 1.0866042460083352 0.8787675793038929 -0.5403893202327468
Ni 6.077776187938713 5.70516671071243 9.269878256863956 0.12009622866366414 -0.7505590059457395 0.7840052014193273
Ni 8.534418402289951 2.332550718910504 10.137722895206705 0.9927566666285548 0.16791771902231725 0.3070136287169358
Ni 2.446348034406972 5.075773124797243 7.208659305687604 -0.7366549942701378 0.45486054513130697 -1.484301711665089
Ni 0.7649942823630911 0.14807956031525873 9.065187044520984 -0.38201039393880015 0.11073252806057704 -0.21052758327304388
Ni 1.4156534530215437 1.03002459957727 11.444777729410758 0.39468259008983 0.925869160777386 -0.72691411283329
Ni 3.922037289724409 6.937018803093206 1.6182450872386789 0.3973177137198319 0.20939784054397487 -0.8347109553043108
Ni 5.724107277505222 7.823504327176721 8.080373541662878 -1.2092587223174787 0.5964699652763986 -0.044673431647974673
Ni 5.37198656827707 3.0828760211982202 4.676176961414517 -0.6121714351720554 -0.41516836874800755 0.10394430149415003
Ni 0.8660139583209989 7.338419390453849 7.113780827844205 -0.24713160764932274 -0.3479252793296331 0.4135920253998232
Ni 5.153065485557315 4.531548712792095 6.992744992677164 1.4123421906076514 1.286676695386326 -0.5200331251738979
Ni 8.20625406960756 7.570595248405271 9.28922443426493 -0.4141921208776673 -1.8310324564659883 -0.3538606709774615
Ni 4.451657909073355 0.2561186537848551 10.217972229730892 0.4425174501849218 -0.17423620504117734 0.2768494464287296
Ni 8.321536209651837 7.123119831021435 4.843154535623942 -0.7457178758033545 0.3043702775568178 0.30977962149784716
Ni 7.283725335006784 6.124086416975584 7.2544154416615125 1.0733023866931064 -0.8926021711941402 -1.0454820220467287
Ni 2.4361081773120152 5.052622537182915 2.7052118028436314 -1.2114577868513265 0.7043210580241225 -0.7529249350747549
Ni 2.462518135884949 4.89271417643038 11.485710901746751 -0.3294012523835166 1.3565266262999283 -0.16956682458996603
Ni 1.1130661285559962 3.379967684075228 3.8340125447023015 -0.7103754917483186 -0.280993036283458 0.43768660445518176
Ni 3.346269409886521 2.736613125887342 2.9189658772131732 0.41724427744042986 0.41441580685269924 -0.8531979583649048
Ni 1.089643926695119 3.4443764757405853 8.202907782090056 -0.4809022206107073 -0.9925049556290649 0.2887217723862834
Ni 3.9306746227647165 2.777771738047971 7.000337516249074 -0.7233706184564058 -2.3029286169233436 0.8412513275259899
Ni 3.925178961176177 6.860586554113877 6.174631112116179 0.7234081565625606 -0.6186017641784314 -0.8370082359789196
Ni 0.7307717926785418 7.554714868790283 11.27717725319591 1.309678812708454 -1.8430495355315228 0.3455760623711661
P 9.337101877504399 5.552238836096244 8.288536889457587 -0.17802164022553857 0.4313578340236765 -1.057075640421599
P 8.608840705844806 1.6689427917381636 7.900675366906667 -0.5118678157542862 -0.2754551371843643 -0.12622676704143423
P 1.8414721611470823 3.043066426462126 10.40266720124281 -1.4347082170076775 0.9869560007863777 0.42747418269855414
P 3.9257493510939327 6.414034625168313 3.7281753373914084 -0.048818564164599794 -0.08107125355071844 0.900154015399469
P 6.913931592136408 3.8738800838109935 10.458268448273355 -0.8106246037790684 0.5906253335701634 -0.3369888349227874
P 6.241224587704624 7.785949130686996 10.42186761233147 0.38088065120973114 0.6058714610959565 -1.7781986004944086
P 2.36597737885266 8.36283968274396 5.901802749883533 0.13344436783579597 0.21755055155809627 -1.212448175789054
P 6.642652336489922 3.9423811967910463 1.680764349128866 1.62495879519924 0.68946008175189 0.9439080205569678
Ni 5.275047443683174 3.016357692217987 0.49163174544556243 -1.0795655939939988 -1.416244610985851 -0.9328263088215096
Ni 1.5213113949297135 1.0512376722328693 6.822785999421436 -1.0122569414450115 0.87633840103711 1.0258148826351041
Ni 6.9984579456629445 0.6662851382625066 9.18456693816489 -0.5479211098334177 -0.28933755159341135 -1.278924562244733
Ni 2.7205969391490767 1.7295308763353763 9.089065558316067 0.904916469785119 -1.2842120358959173 -0.6251966437871297
Ni 6.368982875473791 1.7826133539195752 2.636557680504689 0.33807358334653387 0.07740666021493765 0.6719318430601395
Ni 4.244724068434698 6.806643964748935 10.522033514174387 -0.5437173561647153 0.03272011594084042 -0.19844339841500014
Ni 8.14839118128407 7.219841664218091 0.1509396583314362 0.4765339163396825 -0.23244238106826418 1.0189603216071161
Ni 7.622672753277233 3.877474445673679 8.346656000553654 0.2911645774998211 -0.08174436835834309 -0.3913761514244163
Ni 3.1578506070543946 8.326570127021242 12.335295819674727 -0.07095241994916167 0.5216277233545275 -0.19012382280571127
Ni 0.12023728928218219 4.945669900699522 10.380392116883197 0.047679051243517886 -1.0561001638822072 -0.7060637517468421
Ni 8.535839850180233 2.4296528120523306 5.726729260365257 0.48893666087940957 -1.4158517464228066 0.2708091537719207
Ni 3.720273173578431 2.7872963442936776 11.436840255745729 0.01598763367750795 -1.454165811511657 0.1385387516395679
Ni 0.8600456879434611 3.3460973875303726 12.440232173067894 -0.5469332919988517 -0.14371952450955894 0.7062468142919257
Ni 3.054447063392595 8.339680041321415 8.021883224429857 0.6823337551197539 0.24013177929272195 0.6342338142887335
Ni 5.685845883974466 8.045784372745485 3.658619455753918 -0.4426372635922377 0.1791138448484528 -0.16730271114613768
Ni 2.9968829507403116 8.593168563818839 3.3186607271054784 0.14025187767593267 -0.9837806883821897 1.1554028528392875
Ni 3.39127589053995 4.309504066237008 9.264405229795962 0.4317465848216629 -1.7648103521129606 1.258110710823175
Ni 7.409817722063774 6.273356553071556 11.371870127970835 -1.0023149997409513 -1.1947299325736842 0.04463923597592958
Ni 0.3532008285486016 0.08084145358166643 0.09601744691726832 1.5040141024923517 0.15980460299687962 1.2056414372798656
Ni 4.59497969316987 0.3000260021205757 1.7084065310003171 0.635706285069202 0.2015616323290077 -0.9809033668343947
Ni 6.095449221580937 5.763726742268731 0.44066242669952715 -0.863017772668804 -0.15538359111104852 0.020008067690810705
Ni 8.008718081899552 8.813311910648071 11.401844570839332 -1.7578935703884693 0.9304043296435782 -0.21292385141936232
Ni 0.16278475562350633 4.573467844843065 6.014358788273265 0.00965706347378982 1.410199690343352 0.335300648587087
Ni 8.423418713532953 8.927054903295229 2.263193115672995 -1.8523926673093194 -0.9925332377638391 -0.21238597663802133
P 8.62090943219987 1.4452684597037735 3.6522591554805257 -1.4047304396986646 2.3800218596629206 0.026335038350103035
P 1.6172817620442463 3.1179142590032436 1.4727476730272944 -0.24717300241021947 1.3928077201191498 0.29108204508834384
P 4.689691580942052 0.9223657660528446 8.06482996371361 0.5505932573489422 0.5933800134971653 0.5441996951177724
P 8.413350878794146 1.6785036132167437 12.34018578149346 -0.7512267214367255 0.536690788335237 0.5373363923390359
P 6.491897375846141 7.801856671726641 1.3878075604651796 -0.9458623160698614 1.1740970868146814 0.6391240525014993
P 2.1997313523472775 3.158828418341977 5.973703567849577 -3.344717249278885 0.9948472306089964 0.3309187174693075
P 6.93551587092896 3.9286465697238055 5.961088896858946 0.8418529656657309 1.5212291808190577 -0.15936725834914486
P 2.402826378301353 8.486659563938144 10.253630653398872 0.40678271578747366 -0.465501826895237 -0.6136855578237366
