# total energy = -340861.94994809915 ev
CRYSTAL
PRIMVEC
9.32936054567885 0.00000000000000 0.00000000000000
0.00000000000000 9.32936054567885 0.00000000000000
0.00000000000000 0.00000000000000 13.65446218481918
PRIMCOORD
 96 1
Ni 2.212942925659607 7.766365935401998 1.4619835305169457 -0.5955142862313486 0.4528725681670008 -0.10223606055379167
Ni 8.841369465886164 8.002921195572759 1.5531537712683556 0.03186162459528706 0.4006660613667745 0.9514552367766064
Ni 3.7709740865011314 3.7417078831900543 10.422751082662435 -0.31746542017787904 0.9719237890436037 2.405496349784941
Ni 0.4919483646914523 6.76635180313729 11.875176683535708 0.4525820335097754 -0.7092300652899657 0.999193423392834
Ni 2.692098871485854 7.498100179517386 10.953199851505675 1.635817849400931 -0.008369712120933973 0.44251256508891534
Ni 6.50342244135339 5.590255324269689 8.529164288785577 -0.35468290976844075 -0.314298078193491 0.30655417258201395
Ni 8.21701135610276 7.952206792895355 13.057284069254864 -1.452008913069654 1.6478148738618072 0.3955122850799769
Ni 0.8355141864940441 2.5733267853037285 3.1442397886452578 1.3659582040264733 -0.7069183864376535 1.20882163478006
Ni 6.469547534046242 2.0512464526638805 0.32898123282069597 0.24435970133114043 -0.9157343863362294 0.6329958281165743
Ni 8.508619171497832 0.25040749436785686 6.609333071403971 -0.7813500231846673 -0.485356399727319 -2.7617355482969077
Ni 8.919353588767036 0.15767925044368633 11.250593736168687 0.9309116082973 -0.3707857288675743 -0.2845010494367165
Ni 9.054741265671836 1.082252443449645 0.4882837919593544 -0.6903106026776434 0.001409735863333056 0.09388717436846411
Ni 4.525234209323569 7.211119726839013 7.966163515927989 -0.861388207485181 0.2454501061818418 0.3017012153650868
Ni 9.207602834448375 8.09313610982782 4.225141340721156 -1.1733956898722824 0.017200937259318767 1.7388049291881345
Ni 9.107592091861589 5.883075956505834 0.6039557317084956 -0.21808585523627602 -0.062386275546705464 0.00792182595023797
Ni 3.306651823577216 3.810381304475627 8.33120179343373 0.236734837796031 -0.3542013421463319 -1.5457122535620864
Ni 1.0685196250645936 3.6958820653181985 1.1511544340629578 -1.136087183229811 0.7103307545533122 -0.11607296643688397
Ni 1.3472062764221024 4.763916563646363 3.3217075452550664 0.25950786982648855 0.08662920725447015 -1.4137791801644943
Ni 3.914515624322055 6.150819268212755 1.4102466299489154 0.39336772793314834 -0.7416758445234969 -0.5906867829357183
Ni 2.277044960390373 8.137403924526915 8.361364548271167 -0.016070937419933613 0.7602276393837553 0.03578435668846095
Ni 3.6232903126999347 5.7360732260077 12.447025421716924 -0.5979774030598605 0.5583037386193224 -0.03763863628838034
Ni 1.201733561015781 2.9851807258108454 8.977631303852567 0.1580955907255729 -2.1403222828116104 -0.9062791544606005
Ni 5.637051395614401 4.7342212097607534 13.154052859131864 0.48117604309738415 -0.8667854672413524 0.39406269711764386
Ni 1.2432305557010448 8.772322870187955 13.066596636722226 0.30625412484309195 -0.0392597168315711 0.10658045356541646
P 5.448001238172364 6.850362692782254 2.8769265604489016 -0.0663437175325567 1.404835083597329 -0.13915915883238614
P 1.3556213594270727 3.9854001040025033 5.727282169781998 0.7633019074337047 -0.756479999415865 0.11635501645367703
P 8.405483093205207 3.6292704326624463 3.0182915585081176 -0.3528934219681858 2.0395306680138297 -1.4792944882584846
P 6.321826442803781 8.299753452744756 9.380642876652244 -1.490072295600279 0.6358875478420726 -0.14947005384009096
P 2.8958521007858002 7.61476383026811 6.2342862561513 -0.6636886292147408 -1.448153800989622 1.0515565103755824
P 6.97475105387457 -0.21568454820799104 1.2814072310498685 -0.3752725609943343 1.2380177967280421 -2.1933296882465774
P 4.56194524216676 3.1713760989962076 0.6234298384319711 0.5098849809963026 -0.517464078895141 -0.18849862849746246
P 6.710011796189379 1.2149625939437723 7.126728199293159 -0.3657980458449958 6.394059482521027 0.2808637097944453
Ni 6.2997158588550235 3.854621131093775 2.131201869379509 -0.12369860130294182 -0.16209339903105632 -0.39475818052277173
Ni 7.228752217836124 7.802825075516659 5.436565308297094 0.43577190393097215 -1.1946355730876652 -0.4653940976727792
Ni 8.837432475832841 4.944271757273953 4.967944076139599 -0.030399181117147643 0.0034324227203166692 0.7966552860831699
Ni 4.717036528058807 7.901072569003734 5.10130728185584 1.535356107138743 -1.0780501857907367 -1.9579570209053958
Ni 2.2339059982895053 7.908881243588169 4.162289440272724 1.7112447601816785 3.1621051614691864 -1.928479837381885
Ni 2.6390707874500987 3.464504600122779 13.247121624707567 1.3287162889558795 0.47939812526135506 -0.952438169515166
Ni 9.38487000981139 4.367232163012952 7.461057021446947 -0.258601041741503 -0.6904381293944432 -1.1207196996348052
Ni 3.7517556042503126 4.876577918821553 6.3866972168245795 -0.14218714702543253 0.3383525480395334 -0.8423394183838461
Ni 9.18560420282341 4.492861329027287 11.825870081329978 -0.01795992691253036 -0.7714949847674584 1.4570122798215164
Ni 8.08478633234506 7.307771899712065 8.709075404862128 0.8362937264103983 1.3864419258021219 -0.6667875798550388
Ni 7.001899492393932 3.818712423237754 6.94740389998048 -0.5507549797377869 0.3128636597398096 -1.0581300498280422
Ni 2.063897065252284 0.464085297171891 10.483308893409179 -0.7761872480368053 0.5924844982660893 -1.5862963456320358
Ni 4.6911195651011495 0.44515602509086577 13.681497573953374 3.574461771800012 4.293284880095051 1.2685421905691443
Ni 6.066248616948836 8.788555957137675 7.137692063536442 -1.7926530853568416 -3.8704466535066118 1.1741991596101842
Ni 5.747846878726405 3.0002942895226545 8.872423174633775 -0.3132030453570993 -0.1107492402311254 0.21066873683659848
Ni 1.6857967503682079 5.733880826333456 8.209676613022372 1.5898961471681523 0.457803944030347 0.7072965957126787
Ni 0.134237366777845 7.509584622066297 6.673864256709271 1.6422669474603846 -0.5839849454355104 -0.03727868184580031
Ni 7.595647970980766 1.4097782960610556 2.7912317212669118 0.5651688411702718 0.27286552208031717 -1.9553116128627486
Ni 5.2337991253185745 1.9068559430542071 2.9071033093268137 -1.1038509489039248 -1.2063436055532126 -0.032736571001072655
Ni 7.062531005087171 2.8723701008706004 4.4258755890228665 -0.4419556641441808 1.1609217257749875 2.2782920493215864
Ni 7.231467061688059 1.1198124480815856 9.65491953938841 -1.4355268562542307 -1.4617436238589148 -0.548301890211604
Ni 3.6781469513576126 0.3000546182251185 5.946121907648837 -1.5828060730905904 1.7924612810610099 0.7090117786315725
Ni 4.154186890838338 5.697505650461639 3.9184208945503043 -1.2008661273784094 -1.2141453609858186 1.2984173808620219
Ni 1.1037846070588153 1.2441914798135858 5.653602613750896 2.850283569840646 1.1650722576082517 1.2820582227777082
P 3.9658271060596793 6.047338003588442 9.632089661759295 -0.9853045812258837 -0.5394459824828709 0.38409607282323527
P 1.5085202456448759 4.520457576841813 10.295000420112256 0.8572667291176398 0.5664248250645599 0.6891250670099744
P 8.863078887341336 1.0202308560693318 4.472723904785348 -2.4874677465524258 -0.28481266713986436 -0.07996413652946874
P 7.4888454540839815 5.949463684514003 12.681745596713544 0.09020638308276722 -2.272699128614841 1.4171727792270754
P 8.090887733991678 5.943306306705488 6.902207813929949 -2.281117177475207 -0.053254231338450225 -0.5533014003087245
P 0.7841504603386511 7.769276695820569 10.101544005793004 -1.074976946182052 1.364186199727715 -1.92979778486236
P 3.352514958890336 0.7224040890876579 3.28669725479747 -0.7307486560880319 -0.4085518918727544 0.24860999196706218
P 0.721929224647577 6.821003195868018 2.851379040159754 1.0438735399090282 -1.2558566246816758 -0.08102265970097014
Ni 6.145119029059721 0.7384151372618597 4.970756878274852 -0.16644627668311332 -0.20875069387827921 0.6280389983319312
Ni 8.932657256577556 5.432169313716228 9.692415171434172 0.7440679989047573 0.15333853565656172 -0.5811299924852185
Ni 6.998214395069138 5.551473173436361 3.689585680040976 -0.4783719979896858 -0.4115027469709623 1.8654610704575034
Ni 2.992709519585802 0.8943152786932977 12.54648386617301 -1.291701659404743 1.5266994599050094 -1.6113208927008311
Ni 3.576298324788587 3.678585431292461 2.43829082528284 -0.749116102851626 0.24335002911970352 0.2467120036134009
Ni 0.529033504883312 0.4190515419908576 2.754978760015233 1.9516087100898647 -1.3207911205715317 -1.5128527838299044
Ni 7.2223989234609745 7.135001476021327 11.025991252434697 0.1472239381183916 0.8163460796438778 -1.4055084555152697
Ni 0.0736907512634805 9.305169284632388 8.558016268498626 1.7413276956099881 0.7621603376300939 2.127413545169743
Ni 1.8164077947912505 5.999823571499403 5.0410228213663535 -0.20101115914217638 -0.04651331307019086 2.9476769575901556
Ni 8.451588791886541 2.207755801323949 7.799018696507758 0.5382270224741053 0.34686392794465426 1.265136764432021
Ni 4.194620338447586 0.7278356426635932 8.918589514157162 0.1727490789726896 -1.7075572840277626 -2.917771942500607
Ni 5.764947596185508 7.1328184057074 13.537483970500464 -0.6322581786196014 1.5317095115250912 -1.2832560997405513
Ni 6.712679993239735 8.619843805184368 3.226126382946284 -0.12303551379764618 -1.7915269421721982 1.5654475272074846
Ni 6.823550111234267 6.049297169254787 1.4875170567656189 1.295506120752498 -0.258437005359813 -0.9426700343848088
Ni 6.574194968710048 2.812886099496221 11.681187562742416 -0.6522333361899476 -0.3258315327543872 -0.34691946377293803
Ni 2.394193737877526 1.5150881153072915 1.3380840279051847 0.3212205163449371 -0.23496257638695664 0.15692188213244587
Ni 4.7811665508705214 2.3639013049316966 6.310928817018741 2.075616357992793 1.0208516250925581 1.2022205845237748
Ni 4.634826204954818 8.709116454047518 1.8203718399894897 -0.19057736540336212 -1.3935109168337614 2.9086825786048296
Ni 8.76341333108624 2.501817238482113 10.576240517388236 1.499127720934328 0.21910118387466784 0.24999478812973072
Ni 3.082019485890215 2.9404557724562688 4.912083598311925 -1.4096196494701658 -0.48796426966381123 -1.1575800629962643
Ni 5.783783574663374 6.21847578922389 6.354131218769758 1.0245177610902354 -1.2839122452673113 -0.9210159464501428
Ni 5.643675241438713 5.34635785753029 10.74554228491351 -0.11546490053923986 -0.6413863661731147 1.3395249495356092
Ni 7.944090249420495 3.8657977047522603 0.2560032446853526 0.204555424850009 0.07437584380841383 -0.003936358939928705
Ni 5.139385998921347 9.068670000623522 11.561874373661967 0.9608361637708743 -0.137805215907653 -2.2511928791119487
P 1.764900396486992 5.814971626199534 0.1750449217357614 2.2175867610217295 -0.704941979437573 -0.644857869661483
P 5.0566252435587185 3.7069280279322614 4.308473985871151 -0.3718612213199402 0.27431151049822433 0.40039686686578785
P 7.358719536397366 4.116617556846081 10.091180019418035 -1.0261900065863359 -0.8589991384277141 -0.3146541759813291
P 2.2381415278729384 1.098242967031152 7.699013551537162 -0.3607149748951336 -0.14482587019986026 0.5666495394808563
P 7.107675779655963 0.5661736883010356 12.293672195651736 -0.4139653495788419 0.873232765528593 -0.23351761641031393
P 4.229801356198964 1.6997254853198938 10.616903467261256 -0.05518024471656949 0.5556863556011333 3.0479168136495254
P 1.0729230831337135 2.0126415596765557 12.758715618128072 -0.38614961291815436 -0.39968698528295676 -0.6574675880056935
P 3.867262414321862 8.09439557347047 13.138377667929037 -3.262222375907762 -3.356212394402678 -1.0243498680538035
