# total energy = -340865.9420657351 ev
CRYSTAL
PRIMVEC
9.34167344989276 0.00000000000000 0.00000000000000
0.00000000000000 9.34167344989276 0.00000000000000
0.00000000000000 0.00000000000000 13.67248336474035
PRIMCOORD
 96 1
Ni 7.3537464685224725 7.047246170462489 6.959239201306949 -2.3139938735985695 0.1613081841255996 0.8521399494140356
Ni 8.557635920271457 8.80965558016363 5.883720220324526 -0.02660166174792838 0.3016986442619256 0.1584491174102497
Ni 3.2692212986702116 3.2221486073588963 10.379206146419225 -1.422968045752614 0.049720250043262755 -0.2648261967156084
Ni 3.6910819192154953 7.124520491265665 5.674162201846612 0.08271470269141239 -0.39736090825294146 -0.022668645242109344
Ni 9.114166101829625 6.233735900536994 5.948760685890293 0.957914619248705 -0.574388559996327 -1.7015234191288569
Ni 5.693366813634229 5.987536103055407 13.234307334966966 -2.2568732173261776 0.8712399034682802 -0.15771146791327678
Ni 4.897717822888576 2.1079392184375814 6.260971548784292 -0.39991761323652414 -0.9114570991171143 -1.967649308492495
Ni 1.5098199077430823 4.7785087310402545 4.492176171275965 -1.4435486981174428 -2.182928033297279 1.0669862146670914
Ni 6.255240432269212 4.90465868608451 6.397122699168475 0.367146075232458 -0.27093745181966883 1.3731536933336481
Ni 4.065271981363946 3.0038056793931545 4.040451155641746 -1.328871326476505 -1.2660610760185034 -1.0814944355855955
Ni 4.210067916137787 3.9891093196729055 12.657177829810745 0.4465612812369922 0.015431246953405682 0.03137851431128145
Ni 3.2065293297497437 1.7478644245112775 12.741660185663696 1.2134329082998263 -0.21994630548378247 -0.9995371798854978
Ni 2.845464318463051 6.105624194118383 13.179972426901253 -0.607351902296225 -0.14867763984578267 0.1598619385973763
Ni 4.346400294982267 7.350869233173418 9.811072672565407 0.18036417231578616 -1.343647456344415 -1.6072888887233028
Ni 6.285535478493184 6.550848339364918 1.9020197816754358 -0.01097141140983917 -0.02887477405282124 -0.7347012129778766
Ni 5.7922857912677905 5.246974959236293 8.986690563356698 -0.3236206411459975 -0.29127822025954997 0.7167821666056107
Ni 8.12745186889498 4.655731120025249 4.518099314437088 0.1296969849782218 0.2766594419051106 -1.4422868006858838
Ni 0.8111057232409297 4.9240706830174155 8.738795252187275 3.066063916872197 -0.7243818333297395 1.414382360966132
Ni 3.867060359168374 6.5129585128202265 1.8642158985242885 0.5953929301621359 -0.36898981330941616 -0.18005821103959313
Ni 6.344827078364769 7.6850022005921765 10.777375349533544 1.0186659302951488 -0.1177053598339844 1.0479268840427953
Ni 0.4932356747155764 7.978508231215359 12.18195009854443 0.13576710243170165 0.41089313841142144 0.8956746394718768
Ni 1.6684695438891566 3.507275157111618 13.00217609734147 1.4276708505449218 0.5135606300756768 -0.16731890909605376
Ni 8.39451162265721 2.4011556571912163 10.572944975481265 -0.33928842959024147 -0.4170254765614044 -1.0965729271852727
Ni 3.6420381348566133 4.650359657928799 8.114618278237412 -0.7387753830472502 1.5351571037540592 -0.2018369974775814
P 1.0508354778564282 9.224014837120308 8.058384208007856 0.32980440135920613 -1.0092225254940617 0.3827063915645602
P 3.342637508437155 2.609932711788673 8.081120906436634 -0.8388195781560456 -2.1779316085239526 1.5136266858814513
P 6.84021600875553 1.0380747522499076 2.085750876226302 -0.03083395466172109 -0.14811096870903526 1.233915087413578
P 4.309295168987319 7.7891618568972305 13.502999079039196 -1.4117904318692396 0.5160661701063499 -0.29332790369972706
P 6.895490689146293 0.7647411307590245 10.027139034769574 -0.46514855732087634 -0.053377387179875814 -0.1044109567179234
P 5.886618007354645 3.6539114015080685 4.660156270625401 1.1863843888224666 0.8962155995770112 -0.07353072219929917
P 2.6140897563676635 8.103070101813707 10.652777980576994 -2.7958137209275398 -0.44359962750550697 0.3267746133939469
P 6.610139939236502 0.6884738423280184 6.368615649197129 0.00896826493688133 -0.6122495967081585 0.33939693014364775
Ni 3.1618481067804995 0.7249456028792463 9.680610601166855 -0.46225812314695874 0.16636734381606186 -1.1337369378300797
Ni 1.7362527247097366 2.1493508557829 3.757676839203609 -0.7991716247471204 0.24575683878898322 -0.21779866301316037
Ni 2.582944617881471 2.745144089847807 6.1388487890613925 -0.23265038331401222 1.5608246837234925 -0.6708229262666769
Ni 7.23330427581027 8.381209080004439 3.9395891099802514 0.6410307826059088 -0.341900670402108 -1.0198807765388564
Ni 2.1396074906236024 1.769985506675436 1.2277798468193466 0.47981464397348333 -0.3631377254040133 0.499318775444682
Ni 5.462795635435006 2.8694257102498186 8.152027008611725 1.2860418900158046 1.1852219930832493 2.8989982614375296
Ni 1.16013305442765 2.037390902346482 8.882766317216566 0.3110700581744965 0.800408582478015 0.6991351429478088
Ni 6.229055722258175 8.905379705558957 8.383488448267975 -1.2601562804982942 -0.8917961303530769 -0.22159695371332802
Ni 5.10500955144545 1.9252347737726276 10.56042059420699 1.0974936392273293 -0.4552423539507579 0.21004190188587699
Ni 8.018266392402293 5.118405510830334 8.537399053594001 -2.0273492954562893 -0.8905033796835824 -1.808323444904247
Ni 6.98723526175364 2.150938940228807 0.16943926870502798 1.0385166464724889 0.8017409281361934 3.1147742375937066
Ni 2.3853588877910505 8.452103038004354 3.2895721337608443 0.4693520538792626 -0.032614700711227705 0.9801459198430799
Ni 1.6642938159637433 8.119903796940317 5.815604475937627 -1.1939940828489242 0.9553802828626256 0.5489158696465191
Ni 0.5207282189761838 6.997884769214426 3.731712592680356 -1.603370270395187 1.7738225829139 2.880792537062781
Ni 7.408610115291942 4.844993419284475 0.47766777630908563 1.155957439791177 -1.2034441725182305 1.344666898747865
Ni 4.032594808471114 8.971724268705008 7.339279953387584 -0.6726954606990415 -0.00034478493392843843 0.3852001045206914
Ni 5.856640578019854 8.847087664720972 0.962118541536835 0.11924982150296883 -0.6416655879764305 -0.9133306619907431
Ni 8.780929935039142 3.3619187219451034 12.686683504648371 -1.517011028972652 1.0876350012656948 -1.010206486673886
Ni 9.264436257105237 3.897346063719135 6.777409137254565 0.7506806191252684 -0.15633464217040818 -0.9704986265613028
Ni 4.285212335448805 9.034696487821813 11.472690099154136 0.021701653343149722 -0.6901475947372179 0.5005760448905507
Ni 8.430673239657825 1.5685790322416284 3.489450310457297 0.6145931572396706 -0.11881581928934376 -0.6254761227007615
Ni 0.05514483113312661 7.04762917906415 8.001273888831092 0.23971243236711617 1.9307334093027522 1.385676251280691
Ni 8.242214324294762 0.6475470378223618 8.018186988179997 0.1840778737219475 2.2665462216395675 -0.48506277974630013
Ni 2.6231231543629088 5.496210800511524 10.43699934190773 0.37511520948086363 0.913188222875608 0.3560710483652191
P 7.617415194909032 3.06916936685203 7.8494137807749285 0.016099219554707757 -0.24465203576057865 0.036695555648820675
P 0.963210583135226 3.5738999704540073 10.751931434208156 0.821944656777578 0.038892306189823346 -0.1699182943921138
P 5.021849976519209 4.300018887488582 1.1746061087337865 1.130482178338208 2.398813538448127 -0.6858674793046252
P 5.135762339656771 5.240921554995426 11.066097509305262 -0.5686678554624658 0.8627310946663206 0.36142588491922917
P 3.5601770525067313 1.0355992088489354 2.8995367255115294 -0.08639780796995443 -0.5864390634029577 0.38680601555523064
P 0.48382393895527664 5.1285412262645025 0.14534522515866077 -0.3953978709892997 0.8053322450318775 0.9007733941510229
P 1.7070599959246882 5.470156873925444 6.655409687618053 0.2579230418378719 -0.5161749277700722 0.3802368469781451
P 7.405237771262693 7.656099063676675 13.296421054315658 0.08150988375003382 -0.26911531100926556 -0.5575522051652785
Ni 9.141322345854627 2.2743984933882317 1.0005109501002887 1.0701756681386665 -0.1839513754464122 0.7868064183135481
Ni 0.8896374332583344 0.5498237943598359 10.908221363701077 0.6617564451890345 0.35452067315896363 -0.10145238831023172
Ni 8.348802815634732 8.467255231952945 9.681416787564983 1.1569825386215815 -1.2726155893075697 0.7788015457312008
Ni 8.794522069561461 6.893986679759287 1.3510889990400707 0.471422049034414 -0.2178310589129926 -1.5565859630517969
Ni 5.817489625591651 1.061793260533184 4.308555308468991 0.1802145341117993 0.3012209332945586 -1.1425977306548192
Ni 5.468886406368719 0.956232353246448 12.743984393958646 0.13847061740579375 0.040615459528517146 0.3926509043717818
Ni 4.791334848359253 2.2723713503013983 1.5320428141452433 0.22818257735064573 -1.9706788393474381 -0.35320298278880463
Ni 0.14221950130218805 8.903445979204234 2.417349447702858 0.590794512158176 0.8178589167439786 0.9911052470680609
Ni 3.972630608128321 4.8065711173667465 5.578578201549454 -0.6169161489458923 -0.3529672126289147 -0.10675760257322904
Ni 7.551864673985932 5.724614710525745 11.948970636991357 -0.539494062111987 0.4044173008790906 -0.7996441935081647
Ni 0.782312818069321 1.4983389913664986 6.649365625050396 -0.8528176922073505 -1.053792855905269 -1.8247265688526186
Ni 2.0911335483306046 8.2913048170197 1.021408273073778 -0.007643889698502965 -0.23778744743026145 -1.802667017949418
Ni 3.210088507243217 0.5890793735280059 5.12477466362574 0.384775358278447 -0.12385929525052217 -0.24413472980452794
Ni 5.650609975346495 8.166817679807043 5.714947947086779 0.7904671549945871 0.8613444987314391 0.16789097954943988
Ni 4.914411392917019 8.39726741625452 3.019963971546594 -0.5957354011032192 0.48568241560817 1.2496579520701316
Ni 0.47697742665877685 5.708257440732906 11.685173929681804 2.6018656392797315 -1.7835248978033282 0.35653513248583113
Ni 3.0548112151263918 3.9492297167342265 1.9345334752870715 -0.7380865845103417 0.5201192571298011 -0.06284264635783371
Ni 6.894556521825171 3.2046423117610785 2.5998633222343033 -0.32767732771387437 0.9181699923609156 0.05347431776905629
Ni 7.890939386533423 0.28701169940674487 11.834326820841355 0.0782173290416911 -0.3412560948395736 1.1538267666014193
Ni 8.216702214754934 0.13013604700348072 0.6269299650452091 0.11115650297187309 -0.7194915951169738 -0.9776902592137355
Ni 1.6535135250780004 5.9410612788296095 2.3455418740628864 -0.04315930899629341 -1.5855116449472113 -3.7672603132244094
Ni 7.658994982372152 2.6469724460711426 5.392714403004467 -0.7284153799691648 -1.5339535703642613 1.9802150609726479
Ni 5.878546801700155 6.1568632716819 4.238606727798051 -0.10441275649013632 -0.15449064698313394 0.2069043846981598
Ni 2.4044719511811974 6.930578013727619 8.097596815479255 1.1801440643397094 0.7396310461793262 0.09241238959515052
P 1.4212047956614915 0.7488406687862146 13.065041821383666 -1.521098311668148 -1.1976985282837052 1.0124317764599788
P 6.526036855315929 2.8508731472523445 12.0745937216665 -0.39661220301237504 0.9643326069599071 -2.8895067770073273
P 3.044507349574421 5.984425325876072 3.916113485200467 2.4504724002749994 1.7083759232743159 -0.6272689529351261
P 5.02547454572516 6.793012534019257 7.777824802288099 -0.3010669242151976 1.3955230621677837 -1.978295989573064
P 0.5744484449446 0.4540753806141607 4.54212236126705 1.3941166687385602 -1.1724258697598453 0.010166913230672814
P 7.949670486012336 6.3700402543618395 3.2311904128600313 -1.2373004589460432 -0.05470767595552514 0.7278448521776755
P 8.634060148812411 6.268701783366573 10.08452306497143 -0.28973658680404296 2.112991456207142 0.2683640346655378
P 0.2665851967631009 3.5451182752902524 2.6660107760755998 0.14635207703639957 0.1008756898711553 1.208955075034131
