# total energy = -340887.63320867525 ev
CRYSTAL
PRIMVEC
9.09402329020795 0.00000000000000 0.00000000000000

0.00000000000000 9.09402329020795 0.00000000000000

0.00000000000000 0.00000000000000 13.31002232317996

PRIMCOORD
 96 1
Ni 5.96725238042342 1.9247590705027444 11.007933850718958 1.5273090684645505 2.277172848115478 1.2945141891528738
Ni 4.713359389603679 0.31094556400088347 5.943416946034791 -0.3768051955887769 1.3242309994910162 0.2736461090000836
Ni 3.093450159457905 2.1132781681281836 4.808191861867938 -0.37917729536537925 -0.6559732628483541 0.5380172204561443
Ni 3.493978216221881 4.634877970765881 5.217648430452883 -0.7681823754544577 -1.5727268344777174 0.41775361297668057
Ni 4.967291794958004 4.827844045658029 2.4941249402283407 -0.38460309436664086 -0.3918975711455251 -1.0480189295359692
Ni 7.035118035930763 5.837607987960888 2.663149180662287 2.198723091348007 0.40125304421849606 0.6407096518210643
Ni 5.133566912226867 4.512954403864566 11.57858743410706 0.041184958878741976 -0.15741604816004504 0.5596021457157717
Ni 5.764764863408078 7.737767726139619 12.495408642133437 -0.5649780653157044 0.6092673741513829 0.6715986280904369
Ni 2.0803396166762136 6.464840945096529 0.6021716484411783 -1.355650394342562 0.21370983765576743 -0.5445107986002881
Ni 2.2938309015703195 1.6828125875155364 0.491671993283089 0.4851990482138483 -1.2164012468995309 0.9025685383782327
Ni 0.554576260055155 -0.16457817256954307 4.588935875768585 0.8470815610545218 1.3859351613690325 0.9536329611542157
Ni 9.06629536405111 1.7674506599516178 1.4049392571053156 -0.4391804153918888 1.4188247130082017 0.08172662774653021
Ni 6.750347798446779 0.6573605460658528 4.70119249617806 1.048853766732439 -0.24135048219117142 -0.25494544726678675
Ni 0.9678495901101132 7.186033348284559 2.7386704950004663 -0.3076574329485217 0.18491116825652026 -0.3484693247585612
Ni 7.701109719264166 3.6537602010399697 4.067077182405521 -1.2391333983897241 -0.2923616831317159 -1.0858295726258398
Ni 7.52449469779848 3.686553248123295 12.529162927452122 -0.31289168476426754 0.2841292679195946 -0.4758726286065998
Ni 7.854280349331955 8.643650643253121 6.782574287894692 0.1031976531361126 -0.150609823871489 0.09938753536140303
Ni 6.770072734421191 0.9803174956983659 0.2829096003699395 -0.22550400207721805 -0.6120549641988491 -1.0584285549050674
Ni 1.5354075680552977 6.710415943276817 9.239497398669771 1.6140650311048717 -0.6404396859891293 0.4858731914627374
Ni -0.20746558522760256 4.6060681057742086 1.1517962129508892 0.2535441960438859 -0.17120307464180837 1.5915246839105106
Ni 6.871216458675419 1.7642677518875125 6.895163749547443 -1.9701661613770778 0.5800616991217042 0.09556327651930639
Ni 3.111529077262023 4.339067589310972 0.47992251551502013 0.6497339668068616 -0.3693986187120606 -0.20615002303063848
Ni 5.673451778060416 5.519626378333725 4.684169394448921 2.021217728637255 0.12620568399551166 1.4413002684028984
Ni 5.610803053335783 3.2242313048004734 8.739573488879913 -0.01923030898452172 -1.1020588900005086 0.06525177001995859
P 0.09054373099845275 5.6846283323769455 12.666775502902563 0.9759305962101513 0.3791420712520696 -1.5475860735460314
P 4.303719121753321 5.954102423107144 12.98019918818193 -1.0521730609136588 1.417259682513927 -0.4735275254131909
P 2.31408329088107 8.512360232620296 1.6448259438738952 0.5103611493017727 0.5986420332270529 -0.7876988482208306
P 6.365843410279813 7.634532376586122 5.489811623796097 0.1473468368495011 -0.14462223882948644 0.928715886197562
P 4.514509481804458 0.9848645072185164 12.49037782858754 0.6321365654400726 -0.21742662438572233 -0.29147336698949156
P 3.952562516075139 6.31864543070065 8.40361481450668 -0.15045555768181185 0.8360183612618247 0.16139637296403173
P 4.862983350685751 1.2467178066409428 3.7313449492059934 -0.6902383546788112 -0.32906469497970425 -0.32187100544474245
P 0.013166326557747769 5.337718635458584 3.4174947542460377 0.3590982652273171 0.4276595592364828 0.4400612753349454
Ni 1.8154307255122457 1.1793492839583932 2.9301878920222935 -0.13512664063422536 -0.8141920094153526 -0.7671295087099111
Ni 1.6876415137499363 6.548915188104112 4.923909667446552 2.207813226574733 -0.38813733277214446 0.3329583736071556
Ni 5.970444382510565 5.59560694083544 9.317414988079069 0.09993389478317628 1.4910194900048965 -0.40115508518805104
Ni 9.19232942936664 2.1700339659227024 10.104157109341587 -1.1291130659048232 0.9889285511317164 -0.43717495492608577
Ni 2.4106709095921066 5.408206408043957 7.231800838039481 -1.1813128878368302 -0.20022902956051322 -0.1540371043854831
Ni 0.5675834412096974 8.945963251181848 9.21302378819715 -0.16266469815349405 1.1911859239761677 -0.9043019761295716
Ni 1.3889574210142908 0.9935947693372053 11.598219611046462 0.3516749761800524 0.05054223172392586 -0.02899870122519522
Ni 4.132587796180938 7.102168267806902 1.7422283870493431 -0.3408246637291098 -0.5088637388206397 -0.810319928054456
Ni 5.672742444263273 7.875951406236992 8.006111429805909 0.04770476227513075 -0.5536369292712724 -0.17521271002183372
Ni 5.31130959254955 2.9401249309984303 5.116758429441479 0.650356430882209 0.35258180426503793 0.150867705518566
Ni 0.7722589801685357 7.407882040352701 7.1230708797650335 -0.07402334556500155 0.7031275519366535 -0.9000521997142822
Ni 5.02247432676655 4.889019538650133 7.175858955307069 0.68140224444442 0.4618950833805851 -1.3404968265305754
Ni 7.9268415591705175 7.360020197091596 8.969477666557154 0.26701214862333367 -0.49748506467005293 0.901545496430357
Ni 4.708057574171184 0.33201641538526083 10.268043226757763 -1.5743142335694953 -1.9042338203503266 -0.1596163982454735
Ni 8.557966758167405 6.999614969981428 4.844435181292754 -3.048722854490588 0.10649303605793274 -0.4035670370636533
Ni 7.345524324365357 5.984403707877427 7.092378552004019 -0.8060444406075538 0.9209722376964009 -1.2591095844013347
Ni 2.3879176639452737 5.016526835698194 2.668033580437233 -0.6872448192681262 2.317195668365319 1.162687559426159
Ni 2.3338355089246035 5.482450012144975 11.496823982354018 -0.48306451836934877 -0.3157690063120626 0.7599365905058977
Ni 1.0288522966644522 3.2414281023696825 3.7322234318316863 -1.0604643543881735 0.5300133763150614 1.497801803034053
Ni 3.5843273351272718 3.002155262156323 2.5840075357517636 0.9585640799072459 -2.054242263192391 0.07688292650098372
Ni 1.2534019135755643 3.3445906997388573 8.286620208093208 -0.36772303078185054 0.7012575886074504 -0.46279959747272553
Ni 3.535583371631258 3.121014143293057 7.30036067774031 -0.10213578753050151 -1.1375750806292473 -0.1929929168233902
Ni 4.161188498642684 7.183532491948475 6.13143496299071 -0.542509194789227 -1.6696157717869828 -0.30832026334350127
Ni 0.41191741121964937 7.3880570701248445 11.213320542279547 0.5193731229923959 0.17022245589609392 1.0644765608713604
P 0.19248409167101072 5.512669450707894 7.959859228622938 0.7277312094179468 -0.008236528977179363 1.066223368359138
P 8.745403667051049 1.454679925526546 7.89911206411603 0.6274558721349516 -0.12536827569588085 1.3460365254018818
P 2.0674351979820265 3.4865302113518744 10.467240526237125 -1.7050594573065732 -0.2531790993949833 0.47386125460352585
P 3.8468081221394788 6.133482027577082 3.891225149472917 -0.6138835327671557 2.7000208448959304 -1.3203483766071582
P 6.837650419633667 3.98220903118652 10.331611357211772 1.89537816973191 -0.9346816168626936 0.8027377448318239
P 6.181571221414194 7.687577812980198 10.30700111206011 0.9897903849113793 0.7916064108053529 -0.38083848511788604
P 2.323595638981225 8.557111920001617 6.020349652748825 0.37068597006491644 -0.4832866616824838 0.28319698591331227
P 6.91113921982234 3.8142788017243223 1.675545553704032 -1.0400706212231698 -0.3372713991602127 -0.17998030661380618
Ni 5.230991181057611 2.8980196043218363 0.3660453401997631 0.24499450670166195 0.4435260939550942 0.816108252601459
Ni 1.8546441528620237 1.3203793932673809 6.892169087760272 -0.7528506301933937 -0.012802551081306983 0.5765696268080457
Ni 6.865077993123215 0.6020134124402771 9.0239153978787 0.21204119170409289 0.5416913268736219 -0.011610587655734842
Ni 2.6037097366685757 1.6579040584081521 9.391272096200874 0.48035354719608886 -0.3274978647132166 0.357944611238848
Ni 6.73137766638471 1.8133754763051377 2.494471422506176 -0.8589695707413593 0.25003978243505326 0.06670881418145931
Ni 4.169109392710786 6.771145829139947 10.632698090834666 -0.30973462719252465 0.8896112068866162 0.03239821382504742
Ni 8.229517928020854 7.113153847639586 0.8112023150340165 0.3184558091156064 -0.6604390119291916 -0.4949252743626767
Ni 7.9063709133068 3.8638412272939626 8.073127104394494 0.36525785707080966 -1.0818369065266789 1.6264544059081603
Ni 2.895873414884326 8.368729232721781 12.593835981705526 1.0175336164629185 0.13871795752990948 -0.32948044236088414
Ni 0.05422402178009867 4.95115899808451 10.45027016984162 0.7022940002917647 -1.7067196186178155 -1.0375668809647096
Ni 8.855750542622062 2.3825067202362944 5.923319155115726 0.7990273858597722 -0.12472935656030132 -1.1652031267591612
Ni 3.435085323012892 2.7677204422004036 12.120185613881402 -0.22834841350454865 0.30719566282075483 -2.4292330312802486
Ni 0.9771163995881799 3.3615692407550988 12.512192571056616 -0.2358192679602971 0.5504058239284843 -0.1325928184687781
Ni 3.3877964032033265 8.645314849469496 8.320826466356996 -0.8655636790191092 -0.32862297945659535 -0.9548724899882717
Ni 5.687292881127754 7.705020149171495 3.3378474816544736 0.10893506984052206 0.7462009860873601 1.2654666369676142
Ni 3.1507788807039625 8.51640707287323 4.067781969191144 0.811869531929763 -0.32204892578350347 -1.384852726938131
Ni 3.7431908236182894 4.418622102867524 9.646012050801176 -0.13718326605293793 0.2650817643698402 -0.9517763675614511
Ni 7.4039625164223315 6.091576769407374 11.312587260178255 -1.3203226655755456 0.40328755815002154 0.9319025114556595
Ni 0.5495681815668613 8.9070953967076 0.20797939752937955 0.18380610811779957 -0.6204097639214476 0.14453944930769302
Ni 4.463564764732691 0.43540636333044275 1.2479427715444715 0.06144910844441674 -0.05494241767415054 1.1649375318026
Ni 6.291790780662642 5.543352684445869 0.42036212101487286 -0.23046597406818373 0.11062222773495786 -0.5536168746666142
Ni 7.974430581740411 9.268992043596377 11.093530433183487 -0.3178590560718719 -0.23148824468511098 0.9718582259129908
Ni -0.05167042011038215 4.888191982553466 5.644966569691282 0.6367329265615034 -0.5397064352331092 0.936564178597387
Ni 8.234392324370456 8.7584354020678 2.63017970953198 -0.7574750163392825 -0.5246896501093028 -0.40108746517490923
P 8.604910105101439 1.5269046565126163 3.582738609302131 0.47344499300171367 0.5031890570333657 1.4810654641159784
P 1.6182268358833187 3.3183999133827897 1.7335772429311047 -0.11748887294780411 -1.4935713098924728 -2.225513472067974
P 4.916920001337777 1.3638124473078583 7.909307373346513 -0.7973320004352203 -1.2385232756095508 0.7386252306226311
P 8.493290066304786 1.7525637442346451 12.59026930586912 0.7617988405256171 -0.8530562905807179 -1.670300456558833
P 6.476790491371484 8.212966806087506 1.3819131907672735 -0.7082227070713738 -0.32751843353850696 -0.1571990470532325
P 1.6601320940530258 3.474735263468604 5.896685489837596 1.6441371678999042 -0.08019013649734577 1.0524836501755424
P 6.9837731818452236 3.931891801704535 6.181959536198014 -0.9618237244951243 0.1441105893003905 -1.058320054351661
P 2.3172752929682154 8.53362205848852 10.37533541998954 1.257798064678763 -0.2553627373098634 0.26330256098223037
