# total energy = -340859.47940247593 ev
CRYSTAL
PRIMVEC
9.45132290713456 0.00000000000000 0.00000000000000

0.00000000000000 9.45132290713456 0.00000000000000

0.00000000000000 0.00000000000000 13.83296642895368

PRIMCOORD
 96 1
Ni 2.1275778606988007 0.733202446042018 3.984904592616337 -1.595919984764729 0.8643724869244857 -0.21726670176909035
Ni 6.218724774733273 7.827207624378939 1.8760687053515874 0.12498158178042344 0.675153949541863 -1.3525025927421999
Ni 6.705893216820084 3.2823026949290477 5.568156190482102 -1.2494828599448482 -0.6990513249847509 0.4729515983050629
Ni 7.129142361713507 4.773419016030062 2.204518245537215 -0.15173339595297092 0.3062597812700467 1.1400333123617528
Ni 8.423538846679206 5.415768729833301 7.856322424764009 -0.031216791922436562 -0.05211754663084572 -0.39712848052716127
Ni 1.1501031373017292 0.4750546814461528 8.626376524167958 -0.7469581759683588 -0.4698220515371456 -0.40685599222757024
Ni 0.35297572327254745 5.217272044981091 2.9662996019523464 0.5450993241139064 0.3142237733121298 0.06949948955271901
Ni 3.126308609437869 5.203085609214822 10.186306037492187 0.3998541069884404 -0.007724622337767343 0.429683274534731
Ni 5.738247869303705 2.1880757789798686 7.404108755520614 -0.033449280797381103 1.3318561201364416 -0.6392207259803636
Ni 8.177653228494504 4.7144333094229465 12.18490641938727 0.11030109695011327 0.8192020610354342 1.9387611647032352
Ni 4.748146178429129 6.943461670798045 5.94471769020683 0.2100796971023479 0.29591314792840007 0.7349616657281148
Ni 6.39893314965362 4.33615355918369 13.929797377949537 1.320179712239778 1.0002622309769806 0.6563463299170568
Ni 0.4935348532341505 1.5885216555494903 0.3208450057302385 0.7541629212469141 -1.217127583542594 -2.2642648818045585
Ni 8.975978125142998 4.338932248134578 0.6934586878536536 -0.9731193520136014 0.4200102702213412 -1.1818754452085194
Ni 4.223767877840121 4.656241513944656 5.177623745154644 -0.6119482634176557 0.02589178016509734 -0.8576143422650455
Ni 3.675723464553755 8.587396432874938 4.655402236465612 -0.7997928032708871 0.5735184986865478 0.1324930596661202
Ni 8.107590571375685 4.786972213157863 4.983049359331749 3.190486797935673 0.7648939345111729 -0.2581762954992586
Ni 7.992482909019002 8.330689049898513 3.258424872597335 1.8081542663162342 -1.3475534762670405 0.008925327514087854
Ni 4.642763927400553 7.789137695487181 9.468651962855292 -1.6989710850206483 1.0862026396945423 -0.9451640044512561
Ni 3.473899914018849 5.084414798101388 12.844034121713012 -0.7202325870480564 0.21342573075644533 -0.6943513484059204
Ni 2.924541766840736 0.2564729901669626 1.9272778634254015 1.1199990194186968 0.14545681891563983 -1.004966064210553
Ni 7.15994422324733 3.9536679702262525 9.019827538026142 -1.658347140851699 -0.22455680767260033 0.354279503682435
Ni 8.339157435272648 8.77860614772329 6.6245938818315 0.022577113969567568 0.061241620419300986 -0.9087106467202286
Ni 2.257873799055746 8.490066709010161 10.616829865669619 -0.30590034104809893 1.2250280693365936 -1.3018595737743515
P 2.62872480944671 7.102631400804525 8.921903325947042 -1.109386019789541 -0.29974512007998055 -0.06795502788373459
P 1.3923594474689445 3.9400013572229056 1.4290145133132606 2.9063937825706527 1.0323529408639383 -0.2671754136740753
P 2.3300535525180988 3.08163220579553 9.51721947616117 -1.8654286745576711 2.242747319447757 0.1699496618506815
P 8.055097923643604 5.574872300579044 10.320651867738437 1.3659895714850412 0.9413474589186432 -1.8591212442824046
P 6.003281867809832 9.196042728994957 6.181758760363501 0.6275314625678935 -0.2711490536098427 0.47001385583297756
P 3.8239580138929634 3.26872114383236 6.576689851397569 0.29535316165987197 -1.5627679234927925 1.2617166830068787
P 2.9317058696460867 1.488384888764938 13.147377167581842 -2.531578106608079 0.2617830390139104 -0.8503391487598709
P 7.968344230173533 2.4832405950895025 7.745727769121777 0.5823322403234358 -0.6188138801892376 -0.3547538722156922
Ni 6.965152456996304 0.41472783211070036 8.284273602831128 3.187251835938143 -0.0978549007669605 0.2217633040878632
Ni 3.0198678102375265 5.54153748449135 1.6292464610613315 -1.812580420408388 -0.9332441130852185 -0.3726256102897905
Ni 0.7938837199885532 6.521526259796368 10.537774274752262 0.42538104761495127 -0.29695007383334665 0.2422979337061053
Ni 3.7991199371482915 7.266772526689123 11.714710663075987 0.6907656879371911 -0.5999936621589408 0.7116628431011743
Ni 8.227735788871225 2.228640857133649 10.096640391417461 0.43883794445080554 -1.5880449528920264 0.019192770878366943
Ni 4.57156711152627 3.653210413257785 8.820729749033537 -0.9963945204914584 -0.6855882575013096 -0.18568661296996405
Ni 6.511451149518659 7.42953375942124 7.804669999643267 -0.20743300350812016 0.30385322871108317 -0.01489594327522596
Ni 8.682410582613977 7.748194564414913 9.062958650364163 -0.7668060639322214 0.5399275501049797 0.7608215642140123
Ni 3.5972302273526497 2.2351433673316454 11.099669601839741 1.2484824437047919 0.39710842592250317 1.573178063082523
Ni 4.33431055120606 6.900864558207392 3.0271235908756107 -0.6182857755999094 0.209622040739639 0.48625242917902706
Ni 4.9974342728802235 6.151799956837907 0.5055937962016267 0.18816772752060495 1.2201707412442921 -0.010187224945646972
Ni 6.135713805156235 7.805894891099169 12.505389439448056 0.13523899784237356 0.8651021660016586 2.4541925294390636
Ni 6.408148189541768 6.9932512401629365 10.463338490498833 1.6755557914205015 -0.7769894322231263 -0.7630378551390408
Ni 5.914911998113223 0.7918715333298999 0.2807969149424911 0.6541719479735573 -0.4300010628854659 0.6182042716296966
Ni 6.026579378911665 5.17713227636061 7.072574303520123 -0.4951867555541795 -0.5022292642232576 0.016738910021235686
Ni 0.09613885717154001 2.6031873348028345 2.1860238967647745 -1.2294393110304116 -0.46587257997109444 4.658219292388171
Ni 5.267420764618545 2.487295212640288 2.111658052301264 0.5633832100247588 1.4885635722652364 -0.13782707028452393
Ni 0.25101012549480867 7.451167837681725 4.714648799586485 1.725208164340306 -0.12834844137012735 0.41141867189758824
Ni 7.213325295337859 2.5753059320643326 12.480863256361136 -0.5453314947293705 -1.4389690491665605 -0.9386172044716738
Ni 2.487522044391381 2.9805597580377197 3.0767146824582956 0.9535936232758481 0.9603687372161526 -1.2196693761278414
Ni 3.19191969344149 1.0694360958193172 6.337518453045217 0.40438773319273585 2.046664193734817 -0.037922743187702425
Ni 5.607233630401631 1.6031712061409065 9.870250017106898 0.28522430075598615 0.021844863789233344 0.6213448741412073
Ni 5.951819414280631 8.100823424134749 4.289686129840013 0.22753748756747907 1.0593081292965434 -0.3096191846605829
Ni 1.5826618353129236 7.534150453289877 1.518997723839517 -1.135221492795406 1.8082522253466793 0.6278279107623896
P 7.980659303993285 6.291292032437077 0.19925846148296394 -1.2560216895046306 0.18945276488061563 0.12228089501980877
P 1.3791181439988964 4.3359456300785215 12.634284691742003 -0.546630158936136 -0.10383760071295664 -0.46380746991194965
P 0.11690719424868726 9.263260537902154 10.566186841841242 -0.3215293058346075 -0.9183697670765473 -0.42980463060394364
P 2.8022794530016637 7.2176823552234355 -0.1671220731468776 1.0024137301023446 -0.27407805433117954 -0.7729273463386108
P 0.6847379521564279 4.974070602517655 6.226107203099052 0.17588171106440031 1.8951917647527168 -0.6253987324956068
P 5.130121395946607 3.618353934173176 12.585883521720259 -1.924762793541614 -1.539442875613607 -1.3407025147834781
P 4.947436774410163 -0.13772845873442288 11.304231200636796 -0.3849399088807693 -0.0971326778889553 -0.45314947597747113
P 4.4890381594203035 4.724829764681371 2.9414000916084193 0.6728728668171702 -1.6251665403346722 -0.4446902894665245
Ni 1.4022738852562964 5.259406042746597 8.501505645191317 -0.8705050821847847 -0.9039147679934819 0.869724238154702
Ni 6.529635494897939 1.237253786336213 4.462750249733229 -0.25710028882626046 -1.360851221817211 0.06873690035508162
Ni 1.4329528795916109 8.994757903868898 12.928664102913476 -0.14129317445625345 -0.15908649388393248 -0.02998471928754836
Ni 0.3683832699655326 4.072726285581138 10.708804469944011 1.21803903961327 -0.528440889621619 -1.1427301424676255
Ni 0.35188598573500535 7.067330709540693 7.1844968700385445 2.073906574390538 0.16344322819073143 -0.9559163578717538
Ni 0.7042265801044928 6.199916642038488 13.628916401712363 0.31515476976683143 0.6266081794226757 -0.9889295795729808
Ni 3.9051354268153347 9.222534787258017 13.433483835764498 1.052904796873361 -2.3946316391562954 -0.3388983932406744
Ni 1.267913878025603 1.5610844649902118 10.944186832920815 0.03404834783396071 0.5421374132721051 0.4400301649866938
Ni 0.704308806614264 3.22729599528902 7.214583266424128 -0.48420557395232744 -2.43766599253895 1.7546874047463459
Ni 5.978226410637029 4.7934936260017835 10.906367364087556 -0.6831541941385202 -1.4279644705259407 1.6175596745216918
Ni 4.856779684556702 0.23180598236790617 7.947745071777409 -1.0589492032952277 -2.859163388828779 -0.9745535133569668
Ni 4.181142411280581 1.8618255616475459 4.21460103969908 0.48174425689602834 -0.07842353151522623 0.7251850459573254
Ni 9.02607013684268 1.3186674823326392 4.666427204701024 0.10572941841903082 -0.5985451026378724 0.08032486230299715
Ni 3.3102597082512473 1.3989942761884118 8.909357639847013 -0.8830636355760857 -0.4037015057589886 -0.24077661196557243
Ni 7.126911849494427 9.168085715672758 10.587517532634639 0.45632350283007855 1.5629353023085921 0.41081420554436987
Ni 8.668072925680313 8.422319626017082 0.6361808353058082 -0.11517436588201456 0.3480060119688974 -0.16668101840173874
Ni 1.0311204325305419 3.101678461798365 4.82026355315993 -0.2746077015824045 1.0901888780358 0.3380740975671661
Ni 3.4601860444006904 3.1338129598698585 0.4981357572521514 -0.04360925204951844 0.6474500558686914 0.7052044890703403
Ni 2.635851106960212 8.443311014316137 7.144755002114772 -0.17460284435197673 -1.0870045667705475 0.40048685547643287
Ni 7.5784488040137274 2.438157784559789 0.9265774589810098 -0.734437932014161 0.5115767668764286 -0.41624514675195406
Ni 7.8575369197646525 0.8499291200221273 2.476115242708297 -0.11301669610906342 0.7866534376754516 -0.6303951572689337
Ni 6.020152479297366 5.5904102755289085 4.284913211744101 0.44193509531889047 0.6113903340316567 -0.32826662455844113
Ni 2.9519600547540903 5.789048730225551 6.901432582717421 -0.11563973555420728 -0.16055870755408477 -0.48195868689967963
Ni 8.549572238380199 7.6230684997182925 11.862225021605475 0.2494358303024672 -0.030344673730128384 0.7340196135298197
P 7.709359078363216 6.857208897444971 4.782194569400469 -0.27101561335577196 0.49242127699390037 0.34778129755260107
P 5.3164069715316495 0.4220355950250766 2.633160315312873 -0.13679605791684826 -1.241538922507423 -0.06709885053102639
P 5.161244602461145 5.632563175940339 9.138126912147163 0.3710076150703933 1.3825554462635221 -1.2490959089190745
P 7.641233942451649 0.19572650209198827 12.78026415542243 -0.21450070898817897 0.4165919885684116 0.45834901790053967
P 2.154136078222594 7.334718087464408 3.517653868540076 0.7023433654724613 -0.11727392872352062 0.6670452043917996
P 7.5303699241049955 3.0226654018343386 3.4702762767951394 0.46151995942935353 -0.5469188938211483 -0.022041553181071715
P 1.2925818309569557 0.28797330446769265 5.8191833283582435 -2.1192613483762535 -0.7721565296108573 1.640806046644142
P 0.7469248218508422 0.36661398230700804 2.1385631333777706 -0.9869642283164939 -0.4078047292940848 -0.2603959288583967
