# total energy = -340889.0479372301 ev
CRYSTAL
PRIMVEC
9.13247909771044 0.00000000000000 0.00000000000000
0.00000000000000 9.13247909771044 0.00000000000000
0.00000000000000 0.00000000000000 13.36630628463258
PRIMCOORD
 96 1
Ni 6.0298196359450555 2.040204913647423 11.279879001421579 0.17929253651816218 0.561010338917208 0.8925260665405661
Ni 4.41457636189081 0.3428506087603019 6.407739876841728 0.38377905580344873 -0.44506515630744 -0.8515411394877721
Ni 2.790794220086374 1.3418351214283548 4.9551168276581725 0.49895162191325043 2.032117149158578 0.6414750692321791
Ni 3.7903075032814177 4.418722507301063 4.9722794952121125 -1.113675134083198 0.4035148436694792 0.12662760202427872
Ni 5.0558590286484435 4.721327194897392 2.700916015968432 0.8393726224460382 -0.8465542277961421 -0.672318536975597
Ni 7.427755575116107 6.195957691679246 2.535293945290803 -0.09464924934546924 -0.3815807626005493 0.14655622262740567
Ni 5.132882355498826 4.616020580964292 11.548314519298827 -0.6015805470300865 -0.1399662281147138 0.2306294962292415
Ni 5.774859090651128 7.948608242919982 12.472567957314677 -1.4061489173127462 0.14089851012099605 0.6735138428352788
Ni 1.7017552464580485 6.320670823226416 0.6136724433681666 0.7600782582900846 0.5069361827806237 -0.41572938345780014
Ni 2.8709591196705166 1.688166117888761 0.5429888833543426 0.32686511622522413 -0.20191078813831032 1.0240418498950816
Ni 0.9101711555871931 0.04401854818814857 4.670628238410565 -0.022540347194361182 -0.49177747276231437 0.8024826913982245
Ni 8.946614667100285 2.23701896593016 1.6569010764526353 -0.6713757134463534 1.1913772140513677 -0.21483315262693325
Ni 6.893843462517822 0.7784972486398146 4.60772646364801 -0.43899632440554076 -0.831584236749871 1.2067516396249087
Ni 0.9292571231926726 7.5905146136657295 2.7239864841080377 0.23981656204514828 -0.0034738174812133722 -1.0664858779919053
Ni 7.626158678723478 3.6553842603495283 3.987636627372829 0.8926062849591982 0.15928061217260955 -1.316878930001319
Ni 7.498778863344163 3.463520011618239 12.872674642395644 0.3555396013417812 -0.038783805636417076 -0.05974575260006484
Ni 7.9137130411301655 8.703827716149677 7.579885321500546 -0.7524976177293492 0.010835914273239402 -1.4451669504471563
Ni 6.840327136297376 0.9241064051059267 0.09237319734719611 -0.9186854985447533 -0.16739424241867945 0.05974189594532291
Ni 2.0210632379207927 6.32085347280396 9.425584873525391 -0.3148035570749998 0.2987331338756984 -0.1251247922265071
Ni -0.09887734880354453 4.721875143630024 1.2962375676423368 -0.06435136969287628 0.12352788005303243 0.3120517053614755
Ni 6.323784998523544 1.786139351283462 7.129855027389429 1.0025397141572476 0.9094220709649564 -1.7646226615821867
Ni 3.4391545579738447 4.525207211009323 0.6309045177615727 -0.3846663435044085 -0.039870868053008754 -0.25007320677614997
Ni 6.312259810180506 5.810585348018771 4.79620438921163 -0.8056343496533286 0.3266334598303923 -0.2743516197075404
Ni 5.622465415627136 3.234641825997621 9.058920412844879 -0.5345341470035504 -1.423720350537606 0.1181532460046804
P 0.16264122957210722 5.540364430521026 12.40267526997162 0.12313578682093632 -0.11298609998144413 1.0729568304282295
P 4.031231428541075 6.233364325160295 12.596099346095137 1.2319409944063429 0.15266593506956935 2.851899251067198
P 2.6257794592540806 8.5567582763111 1.5096709049858188 0.21987225771273747 -0.38622417490983163 0.5881082235752646
P 6.559421218513297 7.900653596335756 5.926673766514303 -0.338835658323539 0.9602121570336302 -1.5553788301175728
P 4.668833706311193 1.1633134243366685 12.844058019833907 0.5451340340065837 -0.2629636895855729 -0.8506145139084447
P 4.105304964714119 6.194752204467454 8.446997752429585 -0.38502604083667236 0.4526697081275753 0.19343566078776364
P 4.790523987350006 0.985577120428422 3.782571380424534 0.35782119828710635 -1.1620195868248566 -0.3398335034604341
P 0.19653094543754304 5.538437477477935 3.482444334347592 0.29330964886728195 0.46077485373321286 0.6465640537193124
Ni 1.8258656343993223 1.1685189372966778 2.777250753911473 -0.532383933429767 -0.7845150511762102 -0.7181451083914083
Ni 1.9268799832601338 6.471183207601702 4.700728888789846 -0.12814429577912123 0.32104233889586 0.8713782288183574
Ni 6.095034667607207 5.518985297469479 9.2105606583615 -0.2820461601383207 0.9094423826799306 0.7140598825784412
Ni 8.668019266472141 2.4613035146755418 10.616175185772509 -0.08372231802032033 -0.33512092847611313 -0.29929054904106517
Ni 2.4526459246999472 5.315522800564134 7.358137775387253 -0.2867937021256351 -0.23285170069154093 -2.2569668054812486
Ni 0.651693692677652 8.746732101914807 8.983788422369967 0.37128940797687027 0.3920124994568345 0.4852101039574418
Ni 1.5518273407309042 1.2826840557406705 11.469520404794153 -0.2900060384153457 -1.0018064355356489 0.2397137179186968
Ni 4.025980253186679 6.78039980990513 1.6038094104999794 0.22926629733312773 0.8146473517852164 -0.7046157064464058
Ni 5.517651955553407 7.878342950438734 7.936992643036059 1.1480890927866936 -0.1706117209147126 1.0758673192068053
Ni 5.489569583005988 2.8091413701506878 4.662007178350478 -0.21987482881589876 0.20816859612256408 0.9449981682973532
Ni 0.48185972274185473 7.270841323047897 6.666926020112141 0.1835806223705548 -0.315103861924238 0.2847653588416967
Ni 4.994543565466861 4.795793427662156 7.049162270526184 0.6236444688086614 -0.35315850270411436 -0.19791940759073012
Ni 7.929201725305911 7.1346943279464625 9.391367301668264 -0.34905682183091497 0.21671828546478808 -0.3472863601940535
Ni 4.276876845380249 0.5524062955725207 10.61983730980227 -0.6707913016977931 -0.15278446292530462 -0.3378912921323987
Ni 8.326044462436162 7.768698409038959 4.428284212685501 -1.67341740492126 -1.2279691542427884 0.15654135886457557
Ni 7.152036905334283 6.247821039222917 7.036732053526414 1.3232778915491274 -1.9009425511935647 0.8874699921738974
Ni 2.451796604164367 5.201494669303299 2.7725593995122506 -0.6929632098091421 -0.48155399526209325 -0.7490973337985486
Ni 2.4258603641530923 5.248965294507033 11.729387830988808 -1.6891427860763166 -0.39980242781489855 -0.751009720329913
Ni 1.1121624101454195 3.401638334746269 3.7603292281190903 -0.6883899886161627 -0.2081865938446931 0.9078267014533784
Ni 3.6914301544778727 2.6668116868493814 3.0703476177487388 -0.2708371787963787 0.9368495710482898 -1.2270967789401641
Ni 1.3647667758890272 3.3812363769345835 8.2598559085257 -1.7008125091047612 0.4923654840553004 -0.10503933433054166
Ni 3.7968828880730086 2.6398891391193686 6.856072443129572 -0.023610697440404498 0.5458092056967374 0.9510698284127298
Ni 4.050500958971987 7.065050044028864 5.967186356061491 1.082127441183904 -1.017530788249441 0.16610200596981717
Ni 0.5623497385740261 7.220411774687949 11.025224394170037 -0.513101173940755 0.6240771854707058 0.538512414925008
P 0.03729247749508397 5.5270492763180545 8.05990941598808 0.6981892340947717 0.7982339434241994 -0.13905220094087664
P 8.591781332805198 1.5308135068344457 8.167000516293788 0.8823234149759515 0.8856722768435262 -0.06060990037257303
P 1.8022490440228591 3.420177266867004 10.501278555770451 -0.6356047264943312 -0.8566067269361376 -0.41109625556116297
P 4.077670083631684 6.258761748917814 3.768456221071919 0.4604254408135941 1.1596719125282868 1.379587364774134
P 6.986218486360794 3.955870212846344 10.70027618375273 0.5375438803641517 0.6955062879459699 -0.8656621522701866
P 5.980138950853037 8.29670180780369 10.316235355512548 1.0805945494791453 -1.1491404168693435 -0.8563452457446349
P 2.336234216452161 8.33744179607492 6.196312031859682 0.06894593104209416 0.6350640234995126 -0.04920551519037332
P 6.841916187622011 3.8810843433208775 1.6564462790045502 0.7551931622836414 0.879527597398369 -0.030134100381219067
Ni 5.209038096855874 3.0810974586351016 0.3542835590666802 0.2910871872946664 -0.3095237967332992 0.25966419289869475
Ni 1.393954178380588 1.153961765966406 7.006444187330149 -0.1756675381710652 -0.3612024560545134 -0.3517068578592524
Ni 6.844920773172612 0.9625906710944864 9.316689195393549 -0.5016175987811877 -0.39723440997740617 0.4483638816633697
Ni 2.4205543939254337 1.4779729840509133 9.104846735870476 1.2466302209874014 0.027465552410120442 0.9876322009177959
Ni 6.493393396231075 1.8113358605056822 2.2815352342171162 -0.21085745580863685 0.6725877314765836 1.209311687042601
Ni 4.045596817814925 7.115570917177586 10.713268048203446 0.6728011330389704 0.07822555657180723 -1.7399169313053904
Ni 8.878312857577637 7.489536794720427 -0.05466701855897456 -1.8118695103842926 0.36935311018610584 0.5986212072914465
Ni 7.754278224891846 3.729960082860819 8.247625692813342 1.0522825899083297 -0.09353930411074214 -0.7463729928888501
Ni 3.2463222664815716 8.502036462878863 12.69922055783292 -0.4448802939901435 -0.14704267534552096 0.21616806938827285
Ni 9.107547209874467 4.911364947853239 10.21360912412991 -0.16248703492504918 -0.4145407624663377 0.24350918040538708
Ni 8.577671652939909 2.3615768453364168 5.992047703308917 0.13759104301431788 0.31747956124526616 -0.11739759878557847
Ni 3.276011955311379 2.82506841331254 11.95523859986163 1.4419844389541165 0.9224454798078178 -0.8355496491555222
Ni 0.8556201195099591 3.3799030350185113 12.810120815078312 0.6252465231884587 0.00375123951231612 -0.2587493943939092
Ni 3.254578027386569 8.358099463295167 8.377131549275271 -0.8335783843617643 0.08924273361791728 0.21092507582177866
Ni 5.664967972321669 8.007467069283596 3.3617595392331596 1.1319176252331538 -0.7971144851077756 0.5202336712204783
Ni 3.37349203484671 8.42232818723858 3.9531916567916587 -0.837470520327319 -0.4379557989561683 -0.890804198753453
Ni 3.5809454250213952 4.255004558469333 9.472554125638768 -0.4832861474618515 0.1687358440482384 0.05710342988121133
Ni 7.178767671007874 6.279574668278975 11.591648131571185 1.1971979344982029 -0.9882353817194336 -0.8026361862569532
Ni 0.8902632648827646 0.384903847494075 0.5683205532639456 1.3713217823312316 -1.8374589288176226 0.5030918693338691
Ni 4.905355776752035 0.17333353584154382 1.5341715193175955 -1.0284309801017126 -0.2977615139910485 -0.7065751441656218
Ni 6.1870809222105985 5.744941089849391 0.31235178230197386 -0.786032259151685 -1.0469910024920874 0.5953044842133877
Ni 7.701446834587191 -0.07387810112507194 11.377600178399268 1.5788771703498292 -0.2559558908091721 -0.04962229101281777
Ni 0.33796199281733175 4.855620296786753 5.775260006473837 -0.7785148677287173 -0.035074475105629915 0.3121571205910882
Ni 8.17928552687941 0.002719652209632914 1.9057282489326293 -0.6471160695680404 -1.2243420990131624 1.2957958840787749
P 8.703791186234168 1.4544933808576082 3.731805756841903 0.39469236028184285 0.6653523900704089 -0.3277418624032227
P 1.8279661045410804 3.217975052046714 1.713720620282968 0.5906893540388795 0.6606261882393333 -0.7351236452272759
P 4.766377713198665 1.1975328226895714 8.418140032425493 -1.7147247483104793 -0.18385161664375432 0.6841327560017055
P 8.75388283287566 1.3773148018663128 12.75414237255257 -0.42176736212176397 1.7945536448136643 -2.13559376698769
P 6.704764619844083 7.676688684351077 1.0733904710722275 0.20666887164858597 1.1139795526974945 0.9818243359867672
P 1.9028524313341961 3.3166788837515915 5.983881440696917 0.2359735341499742 -0.5426097249228332 -0.1592171059245258
P 6.8519527819080635 3.9649752942869214 5.994200228580277 0.2772217421664839 0.20771531063522936 1.1427774507657933
P 2.2492290901889884 8.473360479204425 10.495878521010358 0.2702715361008958 0.5970626045550749 -0.29106430447653103
