# total energy = -340886.0457027992 ev
CRYSTAL
PRIMVEC
9.14876601042933 0.00000000000000 0.00000000000000

0.00000000000000 9.14876601042933 0.00000000000000

0.00000000000000 0.00000000000000 13.39014382770914

PRIMCOORD
 96 1
Ni 6.933236703238401 2.26113578806779 10.955387332308852 -0.4870026770814903 -0.22626350595106196 3.175412420101054
Ni 4.851197156298399 0.4909346712316392 5.915711875459056 0.20961998385710992 -0.07557757742599887 -0.021479252919698492
Ni 2.8603159127195172 1.6656792111346468 4.893896276475739 0.5552510678359276 1.417113900964682 -0.418618274969821
Ni 3.831219544383053 4.417243743680174 4.89847614868194 0.3487891699918251 0.20564223015628455 -0.045084808153780416
Ni 3.951763683793542 2.6344969241745035 2.583440406353608 1.7713905764336395 0.1610328189770259 1.1514343551098427
Ni 5.115660531976831 4.731805761390469 2.5327324565132487 0.20478733835515697 0.2297923450399268 -0.4124494271549477
Ni 5.405063443480474 3.061076431482706 0.5347462813416081 -0.5124026052118337 0.30626800880016286 0.04346938403754449
Ni 5.975781757438058 8.34177155140928 12.34970316852832 -0.5518240444322496 -0.24552209707035783 0.5893953178178043
Ni 2.0382261070768544 7.102562062392114 0.08681995857450359 -0.353105795089308 -0.48865821040704227 0.37818819197923254
Ni 1.2359982721886063 0.35569852867305474 13.263298930636047 -0.8378093917239765 -1.4599975877020857 2.24584395609521
Ni 8.341103691499066 0.09488185107970418 6.921512559746102 -0.32004629353117786 0.2156301946069319 0.12177978701367415
Ni 8.78792026896331 2.378669983499374 1.3757035868860812 0.4968644003669185 1.335251518971236 0.43519983347758595
Ni 7.249674217956829 1.1674374205840066 4.940963017490555 0.26007968316955854 -0.6789075030470243 -0.9753351287179978
Ni 0.9178773845458067 7.860848374694709 2.4629959884913566 0.15730343384158071 0.16347742386277653 -0.020151535247210455
Ni 8.213368622096421 3.8889757034676324 3.4832855733236654 -0.29575039709829065 -0.3139954593514076 -0.4341335969966007
Ni 8.0466598099882 4.021330899646408 12.875653826340082 -0.8287364828884308 -0.3644651859661852 -0.4809932376626168
Ni 8.450788245794175 7.563559226991017 9.065221192943259 0.3728739788551707 -0.5713520871628482 -0.22237136998550733
Ni 7.157701674431202 1.1374111709221042 0.08269569490979135 -0.6059578501621758 -0.2918837150540328 -0.5842525972746003
Ni 1.8699162609373 6.874986510795582 9.527810242807599 0.5634593146783329 -0.9510551731247104 -1.531025340973873
Ni 0.38592147680166367 5.093465625919617 0.9819022780204943 0.6448879515684701 0.3023475906998341 1.157289014118407
Ni 6.685634503101373 2.576374814454191 7.084162979304043 -0.7770321125356038 -0.6481167429184128 -1.796510254319403
Ni 3.54052665688845 4.767348716886048 0.371723507011808 0.2518089585203341 -0.597552656817616 0.27500056614544893
Ni 6.059337436341822 5.916287332833747 4.63266790441719 1.7686109568059736 -0.08327828850436625 0.2878686803573687
Ni 5.045105249407486 2.8166580018765566 9.76494991426902 -0.012691222314423305 0.7990543824429658 -0.8859664110451775
P 0.3215022715169735 5.842447643308696 12.220474105655294 0.20231907932032253 0.3552143567918786 1.8687253430310722
P 4.615799409863071 6.048642529012522 12.58254383489646 0.05059828177284189 1.889693717752623 -2.0312632857987145
P 2.661650461345901 8.702049952288535 1.3988819852768277 0.37830132051832915 1.0718826235274443 -0.17068294047228025
P 6.705880722023308 8.212737357249782 5.53784222752011 0.3061710782109824 -0.5730595567722583 0.5966041768614176
P 5.169711440874612 1.5450252865334377 12.46951815129711 -0.21423742802446327 -1.180957047159308 -1.1659078661356694
P 4.294229437478487 6.275952766398148 8.213126179800248 -0.5529157348345316 0.10547796452985705 -0.049107813270244466
P 4.975309314407286 1.3082735227458968 3.921826177160805 -0.26830695617535727 -0.9472226867524978 0.1435724574087334
P 0.44591176451739367 5.880488211893153 3.2150272895526824 0.0452681278091801 0.03946000576783527 -0.8080992662540535
Ni 0.918554393221913 9.236777021221766 4.835930610652203 -0.5366419373751726 0.213133139216691 -0.5529399032042478
Ni 2.2996886875422735 6.486502464667198 4.558500689073158 -1.3033479853944199 0.5797369687924339 1.2653511944356726
Ni 6.315365649866605 5.86983904839332 8.890613336362737 0.026895795949579488 0.8399981718451792 0.8148245007930288
Ni 9.012760339557737 2.530512051030938 10.08903122289132 1.3177477057595177 0.0573109179063271 -0.5738817955632374
Ni 2.437249531514353 5.611697469947178 7.201219609155996 -0.37464032672697417 -0.19500763326057385 -0.609143446979009
Ni 0.7788252917331151 0.22753895653295947 9.016963282609133 -0.24888818532911328 0.6064926396197232 0.13410976933393678
Ni 1.5700197149540098 1.281019349149673 11.284771265642926 0.6277831735673833 0.4816846073026866 -1.436410287300449
Ni 4.388278750861899 7.316167448469535 1.5317650652476482 0.3869998767335916 -1.0394633266564743 -0.4874413072808057
Ni 5.771087269340738 7.963863478653582 7.454333025867164 3.0962191002993387 -0.7156794204597352 1.5706131305688242
Ni 6.014041896403955 3.1876313100851115 4.584409994083063 -1.1230581179599948 0.7315112452856692 -0.29517189888700135
Ni 0.46415165907892164 7.318088689307135 6.532569245569872 2.1095726603335794 0.1669936645461511 0.04781583393169829
Ni 5.517172420737315 4.819771145454818 6.844961176010269 -0.6903859360002691 0.06440073487357295 -0.06805041581101828
Ni 0.8017841197424216 7.802543289656531 11.35283350950634 0.44741900125159717 0.2770291665397035 -0.08828268369749312
Ni 5.055242082017293 0.4145022214524201 10.393416153421876 -0.08541436101076258 0.07032327100559502 -0.603916651362431
Ni 8.249597735034 7.526497576357146 4.208937322808169 0.2378483825751839 -0.0480109806616399 0.21559754159678352
Ni 7.66586072721021 6.360926504015378 6.916116617622216 -1.2585200304464519 -1.1257703746848353 -0.6029540303388454
Ni 2.602329863293562 5.899545091248957 2.290919595433519 -1.0084439954568245 -1.063340133274072 -0.21621280658327924
Ni 2.571800431507527 5.539413070623994 11.742178454505286 -1.429904367861131 0.4786195952241177 -0.41353777512312007
Ni 1.5755272720217932 3.6290592644381854 3.916228962187267 0.09914148078886796 0.14444329004946094 -1.5215695948776118
Ni 1.9209572258561765 1.4679377851162565 2.581633525089676 -2.080701228714868 -0.318740944456193 -0.34090513925805804
Ni 1.381610030146814 3.4021332752200784 8.12201910952813 -0.10629017601850728 0.500138700242816 -0.7030730445496343
Ni 3.9530536597845014 2.7202483068926666 6.977710683999047 -0.027895955079319697 1.448213964803596 -0.7095334554629974
Ni 4.280927131869588 7.0509813202855325 5.921536894703338 -0.7373396790419882 0.12847982474166905 -0.0921064283189575
Ni 8.596326813625236 7.702309410529229 13.295716667702466 -0.9363608043373294 -0.3134622125557569 1.0129441973200233
P 0.3521652752850515 5.636344245263804 8.250096342775185 1.2795593676152546 1.9149532636503601 -1.2542126613203497
P 8.807974363801485 2.062067790994867 7.80368231101025 0.7510518864217582 -2.29940234893764 0.390245894474715
P 2.2013120078913184 3.6367167814909007 10.117659541124722 -0.40351124412505346 -0.497345453768395 0.9307678836305842
P 4.259647102401708 6.383148856370272 3.6903633149361967 -0.5158113737830665 0.7870126207870832 -0.5357091411482581
P 6.966291194410995 4.264962535385731 10.12096681999516 0.0922601802880024 -0.45959214627902134 0.4215372483888289
P 6.546939212158522 7.9614939482872105 9.843924806089992 -0.76288050362557 0.9744905213295153 0.8097450293875925
P 2.3849002930727305 8.286906402346991 6.162117417017237 0.4946427101252513 -0.20506193217278235 -0.4534492666060771
P 6.9897943739909545 3.9812776025654175 1.6418860156758688 1.142539366613058 0.9689485084653635 -0.5542681350973679
Ni 2.9685732595352667 1.9285964453771054 0.3811869904518664 0.12305196885787839 -0.23133912070175638 -0.5013075237399366
Ni 2.100465161449164 1.1103674189414268 7.032114735260311 -1.5923008999549029 -0.19485670950500636 -0.41186810073018104
Ni 7.157161897243497 1.2516335131003036 8.955140497084969 -0.3266090343503601 -1.9953300622372152 0.0029606252902207074
Ni 2.897587984968935 1.7060344174901163 9.114001497809895 0.5313608914818914 0.08557685473055583 1.0567141433171219
Ni 6.3963322280225565 1.8999974031945623 2.380017596715461 1.1878900268337156 0.2462605178982791 1.2281154500126654
Ni 4.069471705777099 7.288373497685606 10.704401918544471 0.8460526055693751 -0.1646958696509099 -0.11203196359829093
Ni 7.297613751237867 6.567267769973497 11.377872766879788 0.5118526462456346 -1.1911612413858195 -0.6763741951022093
Ni 8.077994333172848 4.019080303236649 8.13909162156167 -0.2863805258476165 1.6392559285482027 0.49803913740131006
Ni 3.482239869382058 8.957474347264357 12.435720780333979 0.08117101235337633 0.3637717594435864 -0.1934855401890926
Ni -0.04194617674431932 4.962574232283774 10.316891301107136 0.23886911053021445 0.1266450855257754 -0.05487634032290549
Ni 0.03015890676735559 2.7031035196085695 5.692230396599787 0.07063386026747835 -0.4146217522159182 0.2614107432761562
Ni 3.4853870448493627 2.8430430427129143 11.674919472287307 1.0140842244617374 0.27574670028285414 -0.1603064823339626
Ni 1.3179712145928246 3.5965536992191907 12.420161474179196 -0.4546106339040299 0.04873654597375477 -0.08697733462250827
Ni 3.7986316402710187 8.720521310627163 7.987997008203592 -2.2190450907348103 -0.04560159988919889 1.2804818794295239
Ni 5.820444861335242 8.245316112595923 3.4702430926661374 -0.24495388327171358 0.3465931907817708 0.06471672345209499
Ni 3.142957886227991 8.909278648538306 3.577725539010722 1.185737242156771 -1.7049720397990895 0.19631092545302967
Ni 3.9278122146848093 4.958676858013216 10.086232615404551 1.3255893132911236 0.06881429056023632 -1.6081165268309205
Ni 5.707658875402295 4.226235809359274 11.858552586421597 -0.6982866789045845 0.5908695883704856 -0.09610449373475707
Ni 8.15359973451531 0.1362919101426745 2.102091812024998 -0.23325510677754666 -1.0523692360848649 0.20130786444698878
Ni 4.784557545531399 0.5290749613643341 1.2315300149263049 0.06919249983526148 -0.10027636572425956 -0.010491643559943222
Ni 6.445406208274369 5.943038324305837 0.25624137977009726 -0.2812002671982577 -0.28868629116265765 -0.7380241067035225
Ni 8.0565313283871 0.08183296628605052 11.282870152090293 0.3254587227960008 0.36515449872372596 -0.6494382899433138
Ni 0.139985266933811 5.230504990235777 5.183740158495442 0.16552993551643105 0.2679331177757063 1.586217155654668
Ni 7.4031813608809784 6.237079660117398 2.278480018448361 0.9515220854587999 0.13105812699180652 1.2477882458512446
P 8.91363346110353 1.649284622653803 3.489953193906723 0.4706833710961765 0.2525059845873587 0.7203549715585336
P 2.401633385891627 3.553591094584123 1.6263001780999953 -3.1306862808382725 0.7758244653807478 0.5586516088770442
P 5.105523699367023 1.4333005574441169 8.071323967960023 0.2831751315364413 -1.7779312057656347 0.9780954650719541
P 9.068201860871305 1.8860638327390238 12.641915666037804 -1.3386741714995394 0.47261786911472803 -1.2267165127826098
P 6.448251474467193 8.094324880292438 1.1666405630746977 1.1663516385413073 -0.04003259044185364 0.12679318106786552
P 2.167598805574405 3.5750175043062966 6.007287362544911 -0.5676676963327255 0.29413445876142247 0.15639737708754353
P 7.400400136049406 4.289188467471264 5.811898084237695 0.1388043465961287 0.6951141947138738 -0.12484865574698498
P 2.6352471229777565 8.86882280575801 10.109223464094486 0.23645021667607663 0.10274899563446821 0.5694787813995353
