# total energy = -381163.8499334523 ev
CRYSTAL
PRIMVEC
9.31582564657425 0.00000000000000 0.00000000000000
0.00000000000000 9.31582564657425 0.00000000000000
0.00000000000000 0.00000000000000 13.63465249185335
PRIMCOORD
 96 1
Ni 5.969990909067664 6.00550283606607 8.19116692139729 -1.3599927304716577 -2.2131472371931373 0.8329520636316751
Ni 3.165070362424486 5.01282709705871 10.965151474552457 0.062173902425583245 -0.11295061875781838 1.096804840690421
Ni 8.670453103813383 7.8322151207817745 2.037153057570682 2.665011161589965 0.5717647492202346 0.8569895641968531
Ni 5.773538779859279 1.890274162446586 5.321236817732688 1.664214141155437 -0.9928582252034254 0.19807161689787822
Ni 3.9061536007902062 7.838521934679445 0.06493968832979599 0.9169962837677885 -0.5444058975913076 0.7275692299187857
Ni 8.83484947730259 5.2567433574467595 0.2913366071876241 0.7329742029844409 2.1979882700645113 0.038767864796817104
Ni 0.2519809705670936 3.4620681967991325 12.770815583019422 -0.37224508702192016 -2.1985827091154007 -1.194947447901129
Ni 5.352053568653654 6.148817496334554 4.200672493985872 -3.0646716645103607 -1.4357042623723597 -0.5497388797684468
Ni 7.439441283922709 4.450896499854147 12.050919326703143 0.5793209643009378 1.3889587786867048 1.2244940512099944
Ni 7.170018293177464 0.8390661599230461 10.678101078700605 -0.7111740763902139 0.7343597704780579 -0.9207446950666272
Ni 4.638936438590455 4.1762286993239846 13.269938884362693 0.6165919328372542 -1.5283629636503613 0.03718046570503919
Ni 3.2463136770501655 6.693942344246064 7.113566253506704 -1.4258170851656349 0.2454601334841708 -2.203699461516676
Ni 8.940556149823815 6.219999719365723 4.063208172163084 0.2804124811896397 -0.4613027012122249 0.58734743414984
Ni 2.1384291234601 6.1797460371621264 13.0469170891018 0.028978132399904932 0.7434118533779971 0.011665352153070232
Ni 7.71152860077539 1.6609837481727807 12.633650299196805 -0.8503561180407354 1.2795645098215769 1.756830676341594
Ni 5.920961719195522 8.534730841368535 5.245700377839228 0.7096810367844552 0.9742200412769482 -1.0696395931295386
Ni 2.0267510067610233 8.640623830400768 1.3143139319630086 -0.47796576369020266 0.5012473599259625 0.6705200503142775
Ni 1.5106076921370366 2.621864574576374 1.915028174099304 1.448972954456808 0.8865605929857506 0.12620002756855686
Ni 0.11621585532471244 0.9191980965605544 11.462515948031799 2.101353100637265 1.0230018386663415 0.1114256974728597
Ni 3.9981101147989304 3.8832925648893446 8.179319054462198 0.012342837836069065 2.7043958340351746 0.12703795008881993
Ni 2.338840478527437 0.2735871647663069 10.329980788452625 -0.32171622503443303 0.23398941384040992 0.1672101514323314
Ni 7.390449357352769 5.2343201653467695 2.148957869497245 1.2182359861154244 -1.4072773744902345 -1.3467050122238162
Ni 3.9318093843562107 2.2308048496185955 6.73240925110908 -0.0026042703920664827 -0.02633169591599336 -1.0142068660825307
Ni 1.9501190257828278 3.0719493702219522 4.592000514719504 -0.2445137104105015 -0.8207521791313737 0.0947351241910562
P 1.2085420486629324 2.514117736259597 6.690060439739183 -0.06821985150934702 -1.2064906726540383 -0.29805076309669315
Ni 4.489752808225171 2.4596201567893266 9.896248992978347 -0.23485381872323421 -0.3026653790505691 -1.2291726876325864
P 8.900628521514484 6.080942391373804 6.357524594054588 -1.2615500755220275 -1.1202296473722642 -0.07953990450785656
Ni 1.676000858960144 6.271618708740896 1.8505226032401603 -1.0879605029259134 -0.9003553327769979 0.15758445541710925
P 7.11566045109045 0.20717930232975626 3.5220760870825076 -0.4757535865302322 0.7567836466992127 -0.5939453990823319
P 1.7856388098636669 4.459411164407279 9.218197561869687 0.0937287944137289 0.3007015704559789 -0.1050871568493416
P 3.858121204251965 4.960760948057114 6.021294091956677 -0.07154223101436065 0.02515824443318248 0.1390120917315606
Ni 0.8684892633416618 6.40604607143423 8.11244074283535 0.6743944456680191 2.7711619838171306 1.2955775974203816
Ni 6.361572320256269 3.9093955080817713 6.37083225085344 -0.571947554655002 0.16221629776216578 1.2187581771674816
Ni 6.939954665382969 7.082961903408289 3.230922070075673 -0.4041771598438265 2.298231211447674 0.8927353543378946
Ni 8.87596953128238 0.6270920021824612 6.721188339233534 -1.081325771218215 0.844480890206881 0.8591030109954301
Ni 8.773029658949648 3.8117656563128084 5.74798733353944 0.19550488461196652 1.7398662805731133 -0.48271022035372346
Ni 4.350686164407703 1.4248368862938268 11.896520697194706 -0.8029323773411333 -0.8177208485042174 0.6440567139164264
Ni 7.309252621854842 2.287882912766347 8.43588247961757 -2.5982961767609187 -2.4763253567823607 0.69782208056334
Ni 8.663578024557134 8.705955714986239 4.751226605028197 -0.6871903118811069 -0.04579648950882435 -1.1131223469035219
Ni 3.1342536115035196 0.0935187779535387 7.13491812566839 -0.7564347480002264 -0.5850586381156633 1.0297522700162975
Ni 2.516111322927398 2.0690541705857233 8.675947577723054 -1.1183501709613644 -0.26040852726388697 -1.6405993299499746
Ni 6.819920253165118 7.509142290691352 0.8860887209716164 0.5860258871249391 -1.145704394604601 -1.1352675155419931
Ni 6.09322996527488 2.90567119997155 11.309262233483512 -0.6602832030776177 -0.15516684711455211 0.6634986246911219
Ni 8.904000850363754 3.4752687216041536 8.017162205435326 3.5478035457825348 1.5403139653646505 -0.11176328331793654
Ni 6.657722414505823 6.336829487594212 5.958056404954953 1.5991858000001942 0.23845979090693775 0.5154825296887381
Ni 3.633833388298764 7.273191061148958 2.4572511423518413 0.4999016445313456 -0.1141387255286486 1.0567596518430769
Ni 3.9059393368025455 0.917971202335557 0.5225805500793637 -1.856422871514635 -0.4212906795956615 0.7838103117997017
Ni 5.201640249315709 1.8137446555494456 3.039423165312474 -1.7326183407614484 -1.35842127221948 0.0673374489043937
Ni 8.286883302598186 2.992876642949533 10.529987836691072 1.7267662528560455 0.1524291364684149 -0.5647242974336855
Ni 8.950626557243876 1.9461504840983261 4.529035781406408 -0.16963264483089496 -0.7272959216527409 0.04191463795591491
Ni 7.574939966554347 1.0260543419547061 1.2966828005261826 0.37806040815211667 -3.332613524036815 1.706202312661765
Ni 5.4329801452106175 5.283218933661205 10.529209965257609 0.4767241779736177 0.3880830824954413 0.8960857588673664
Ni 7.0683267414684945 8.96507540267266 8.647232477046273 -0.8277160120437164 2.286270182431056 1.1465490019930833
Ni 1.4959445827205913 0.4286323125679481 5.423510608538561 0.20625389559835447 1.2835911144824668 -0.8717667225060276
Ni 8.68710048407208 5.43008292346442 9.372501169957511 -1.6627159593433558 -0.8085209271725043 1.6043562884575402
Ni 5.4725165088468275 8.830014563841894 2.0935054179080512 -0.4272299278982319 0.7176712540787834 0.13507933233605768
P 2.857601540131107 0.9161164214684577 3.045776558337897 0.1436670740050687 0.5040344357527965 -0.49485585457732195
Ni 1.7086621433401041 4.812099003922657 6.9320753401323785 0.6463401106339642 -2.5761252970908344 -1.6176676608544656
P 1.1818056293330732 7.72431922925619 3.5445868479426723 0.31870854855636077 -0.005339152824726289 -0.3966409993677814
Ni 8.737238257184728 8.856555350835194 13.591798793966444 -0.957618685274841 -2.241175861195579 -1.8333600761579005
P 2.538432040946333 8.09198691625673 8.712951899974644 -0.3845668418120667 0.009259313814738893 1.0751414967843742
P 2.0491648830354623 1.719319447769846 12.673995276490794 1.4956325632968759 -0.44202302704700647 -1.0638265859921872
P 5.384910485370174 3.7234050509665666 2.0506656625316437 1.3921374335250025 1.0699859207253637 -0.3352152879621324
Ni 5.085574378782359 7.972231978805392 7.291198551938024 1.096947279805556 0.7172999867822937 0.15304851521996868
Ni 5.325764308950218 5.8757147544968715 1.3614035669555424 -1.5752442015829322 -0.34612422156515227 0.1846057212009595
Ni 2.4442956237587974 5.382357949169344 4.084001094791741 -0.12075545951421784 0.5349015576452982 0.4498810896388446
Ni 2.119583208371492 2.9137293890727096 10.770775842859273 -0.4195646980434904 -0.7646211404657606 1.1244801951185022
Ni 3.7640965769710357 6.257132600009911 9.111179221110957 -0.0562271979238451 0.3203262866654419 2.34497001026511
Ni 3.662069655542249 7.681671379886121 11.439896192012693 1.4815357188841773 -0.40987960954524244 -0.9559685512659277
Ni 1.6011947797898414 8.51990004709218 12.42868071068762 0.45737122736830266 1.2698028024491228 1.0636653778239744
Ni 4.563450304154968 9.206318021127723 9.35863456362563 -0.020739032319564282 0.09409800482768955 0.24560642925404796
Ni 4.448269437048912 3.658017271427793 4.505284152582921 0.06756190621037397 0.2633107885123465 -0.23636331338922517
Ni 1.0465864214679497 7.441919293519135 5.7810380194274105 1.795260955293334 -0.030242343824309206 -0.12641317202062743
Ni 3.3463842751133526 3.9918126167268104 2.3993719182067488 -0.5983795235942856 0.7451329498341619 -0.6240928691999896
Ni 6.873206775313826 4.448437121908821 4.160750455171873 0.37043837283048464 0.2782548114166885 1.7048918213804574
Ni 0.8028788355722316 5.081456783889049 11.23532159450685 -1.2950644052293891 -1.0605283748568897 0.292263981211587
Ni 5.781056651078511 2.110472330983129 0.6761100130639428 0.04370258309427312 1.2596243192542242 -1.4759751940772645
Ni 3.6311597463657783 7.307547825779105 4.9456972581419985 -0.7867236287917547 1.6212502359994014 0.014582268689549082
Ni 7.750226540112057 7.161037837346808 8.031873757144634 2.957947229167912 -1.77398661929559 -1.6079440058087986
Ni 1.520193676628474 7.072742442779419 10.576509206325026 0.25232215071132674 0.9726005033956541 -1.5145067744935594
Ni 7.336343042555619 2.673073667627327 2.9779992695454265 0.416542880498031 -0.5776919133379471 -0.06499003171813968
Ni 0.6346517946166704 0.7647323931081527 2.804702556325298 -0.2988359780021499 -1.8305511459541957 0.8005613060057954
Ni 8.65817484573786 8.35031475877136 10.443925445508132 0.11268502380125756 -1.7505553848558433 -0.20792022755718384
Ni 6.052771334909173 9.03824189654608 13.08179460838022 -0.5586948034101539 1.2515333147159735 -1.0030107402563953
Ni 7.1000378116423075 6.909538494960674 12.062918110012154 -0.043670701415073176 0.1170003633471598 0.04310583005053867
Ni 0.3996610266885305 4.322077264142198 2.901208919532873 -0.7182235270378277 -0.32001826850671977 -0.028431001647183294
Ni 0.6322613537804189 1.2529692207131407 0.4539424790060297 -0.24012278043165744 0.18839218482658524 -0.5214935117695084
Ni 8.300838409272796 3.065586661370979 0.9104607837767653 -0.04877896917591599 1.368966651835494 0.5536927222098722
P 6.138942721251053 8.358829423324494 10.679900896196957 -0.38691683010148203 -0.5820962130532298 0.409836672122449
Ni 0.18144153949890798 0.986490030841845 8.978200469290721 -0.03880386024107511 0.16352370371967967 0.6115538561927145
P 0.07627425327705714 6.96710098103705 12.47566600843399 -0.32849108186442133 -0.3591288613549364 -0.34693591883317026
Ni 2.3733183488897396 3.8603942656862804 13.206647165572777 0.7199651923192826 -0.46378870085887225 0.5669071640176172
P 6.436657874193086 0.8956076315190902 7.139171731614737 -0.8900156414138864 -0.5632842225530492 -2.3259379333343233
P 5.073668753728853 6.103719584844712 12.71747689224763 -0.2469829978866004 1.4866797249789623 -0.4252231818808483
P 6.645406893128097 4.1159739396635215 9.240913270891962 0.2960717849934514 0.4010309009053609 -0.011260660515483831
Ni 3.8311984684110962 0.5408665840523881 5.031622706689346 0.3161821825900813 -0.010310637897388694 -2.1126091331670582
