# total energy = -381170.1942225657 ev
CRYSTAL
PRIMVEC
9.19035728936745 0.00000000000000 0.00000000000000

0.00000000000000 9.19035728936745 0.00000000000000

0.00000000000000 0.00000000000000 13.45101686853687

PRIMCOORD
 96 1
Ni 4.101187667836479 5.6398740158167655 1.0356291759346359 -0.34751081750003376 -0.8587217163966114 -0.011450150818470603
Ni 7.373322411570359 5.154485305305854 10.944298159222466 0.8922049357557216 -0.2781385975537984 1.1245668412950374
Ni 7.161034352797444 2.399344910167654 0.35969771059741273 1.7442896064517894 -1.7376435618901815 1.1317538459617797
Ni 6.735254298470831 2.6239572378186367 5.6666712590640955 2.105308228630271 0.66085553064132 0.7571549139957026
Ni 1.2781672951193035 8.592018905861941 12.301815916623738 0.3254255555652202 -0.15612689703497626 1.3357644540519125
Ni 7.1225635179550935 7.621746954480903 4.499903039524 -1.7578575749442114 -0.006879500728652669 -0.9115272902334173
Ni 7.7482797911052375 4.918486125201533 5.126451039992165 -0.264831338921931 -0.09586769513360263 -1.0778241858228599
Ni 7.783083673462615 4.1183184934805634 1.841565594810537 0.6358152998432405 1.3046003697442823 -1.297057781510334
Ni 2.934986493329775 4.705095223575994 5.714542910189349 0.31321641509353804 -1.0297144747998264 0.9115311468881591
Ni -0.024135715829664964 8.506392348712833 3.548068782567407 1.9373946233730117 -1.1735705248872499 -0.5670696577374105
Ni 0.5503360451376188 6.061408125160777 11.579334373512989 -0.11229113079694855 0.788407701362397 1.1712511327254538
Ni 1.6764038492016435 6.530676949309175 9.301660601061021 0.12016719111091563 1.8595336492294747 0.22822628610438758
Ni 1.6614695189057007 9.166140514223516 9.987527761464673 0.2363957092890574 -1.2365296422182896 -0.9846036985041172
Ni 1.851057395628783 4.418971835819936 13.388764965669498 1.091682946082823 -1.3047744334283011 -0.44788668491663514
Ni 5.078830285615882 6.616036986102232 11.021547705870189 1.188293175809405 -0.1366608178905646 0.6541799183933572
Ni 8.065337920877385 1.5327401869332244 2.4416821282441585 1.8000267521130935 -0.15024781254637995 -0.49034408274989744
Ni 5.029110453676775 7.2481956995831185 2.6683990476722315 0.5002415443692675 0.31966808425615273 -0.5406294612680108
Ni 5.542603276215374 8.858383025841828 10.761136180187338 1.411221446739647 1.2198097583604477 -0.15336090425406493
Ni 2.985891881335454 3.4208531024101565 2.4515553288822707 -0.5135068940196059 1.5999334767994962 -1.8857743280935588
Ni 5.869596182018237 7.868425329541461 7.784197544743764 2.320417003516094 -0.5810957968131735 1.7737282234278806
Ni 2.3071564380454355 1.3868708389595583 0.11870908562068139 0.8324512127358568 1.396167380620002 -0.29294095267395354
Ni 0.21325764144751377 1.3130998424761522 11.273808303836441 -0.32709702973037214 0.27080221179338526 1.4130896102966375
Ni 3.684147643116908 8.726207309954903 1.4037480107475395 -0.4913483556446958 0.4980136834800133 -1.0601195694542451
Ni 2.9042631295271057 8.470687811359147 3.56006679376824 -2.169766299104341 0.15541495856961624 -1.7801097014741922
P 6.129591384524224 5.479493093973995 3.0141577436481937 0.7327888264465122 -1.1006540392331818 0.7604420693874064
Ni 7.12306898759588 7.146265448929394 12.31080040972978 0.8136464213245278 0.15228875423580868 -1.2487719499207526
P 1.4020533088973415 7.261742285956177 2.0957626010188553 0.6595170143355544 0.6288643224467041 1.4559786963506798
Ni 2.07562377149424 4.389158317370681 8.103578077756394 0.4040254647573106 -0.20256976187854792 -1.1422855987310392
P 2.7230200970555414 7.088044536667979 11.395916902550335 0.25146057404197986 0.3432430433626153 -0.6387944370762224
P 8.197623921049573 5.515013824185576 13.23468403362234 -0.41262529061117975 -3.0427062159828626 -0.9981665247902165
P 2.1296998327012115 0.5185567093035626 7.834127835860582 -0.745268961191394 2.4158262709560394 0.7666104029816474
Ni 3.9995790796814354 7.710277664475253 9.313255155584937 -0.9538630748871508 0.931559269183628 0.47260552781955384
Ni 2.0488063094612787 2.249045810069283 6.549703745624061 1.9600455280033084 0.796185545535603 0.48106934231619086
Ni 6.836991551625347 3.069946887419574 3.5610492429427856 0.225381874677057 0.22407832537428507 0.39130596030811315
Ni 2.246876885792457 2.240609062246713 4.2406880983362445 1.2405878714480636 -0.3783825673782258 0.48414772413119844
Ni 9.078988357794946 7.151733711406985 0.5436629268435362 -0.03741289343081944 1.4396406213122883 0.36262736142649804
Ni 5.876847373774236 4.897982438499842 9.33935025554943 -0.09504339946009438 0.0973494218854517 -1.6702192096989363
Ni 2.3737497656296833 2.385127427725916 11.424621144896992 0.6476806838222587 0.478050352984209 0.7527804390770906
Ni 3.2659588237591883 5.579860983919837 3.6160636396101973 0.5227464103400029 0.32706926181623025 -1.6207460426694733
Ni 7.922869005032641 0.8151957036593854 9.382500820229744 0.05923795972571089 -1.157261246204265 0.174621356294738
Ni 3.6346943315338502 5.338944962764237 9.626004845946166 0.5210993616548832 -0.4180786004162671 -1.1186427625011188
Ni 2.2196734287610775 6.66782464839001 0.14206545916782576 0.600029914713515 0.8944045145102015 -0.3402744476525946
Ni 7.121809908672468 5.984181554405817 7.127989504790001 0.3201087713379971 0.15637886514478228 0.7012899845072825
Ni 4.254372540065881 6.349149015767349 7.365548288495073 0.38118147027960153 -2.147346022427611 -0.68234198264987
Ni 0.7929237922506541 2.909308635577858 1.5586367751842447 -0.8245430136323735 -0.6213453883618395 -0.14149217784093698
Ni 0.8943007834066469 4.800362465328452 4.330985194966213 -0.3545165593939056 -0.2965998895827795 0.7416804725091871
Ni 6.3049066366629365 4.136129405550433 12.767059364360062 -1.4580607756906891 1.1904194781237887 -0.07367650374854408
Ni 3.7015909409025696 1.066880985270854 9.765559499552854 0.12906860736560352 -0.5639236559092611 -0.3561628367480769
Ni 7.916674704343739 9.187590807707043 13.100146395959381 -0.3213745254242981 0.8426713478019681 -0.4098837233103006
Ni 6.396313928431213 6.091322737538189 0.8420150037637676 0.30710027489347114 0.05642697263947702 1.0592165980240016
Ni 3.589045827792343 0.17676365241849215 12.236927400282505 0.18672970952249776 -1.2447291473099467 -1.4680739369523168
Ni 8.794611137888875 8.318780398767366 10.796109165115448 -1.392322552952615 -1.504104862433945 -0.7254614395471635
Ni 3.7836424491377567 0.71791761177231 5.057393777668014 0.5349820331742464 0.3045895926564754 -0.2988447197528982
Ni 1.553060066492812 4.482247444489208 10.242048268243094 0.863827413054293 -1.8043498049684794 2.7111596351215694
Ni 9.164697628158 4.27941626317754 6.9765581526962706 -0.1318338288155665 0.10321590796855773 -0.6606215602536429
Ni 8.897056048540492 5.275264978382335 9.192102354009984 -1.3282326644512417 0.11497664804891167 -1.3195135394106887
P 5.802138960866101 0.523743746853735 0.9267041444881461 0.29374545085311987 -0.752355178614214 1.380732019901538
Ni 4.402741665172161 7.534512084838386 4.826520978756972 0.6162011251567387 -1.1644179118537044 2.362373293343222
P 5.636813626900735 1.7289359304149423 9.285694193662167 1.2604817821585133 -0.3578353393544934 1.0167319464972298
Ni 5.378996539028679 3.612058481983753 1.8921677010317444 -0.7346284507584122 0.34562208511775316 -1.213882337132419
P 7.11371320406279 7.127370074721111 9.90612233533398 -0.2708027260140175 0.19298623195517084 -0.5108342322834493
P 9.038890829744977 3.1558032034963124 10.286275023740426 -0.9096789241707689 0.6438543680976331 -1.030546998003451
P 5.850131005669432 -0.2635950653840917 5.585454235254058 0.12055619901921819 1.092906534077279 -0.33084569813952697
Ni 3.7033554894667673 5.027106955827841 11.827814977601875 -0.9290637564552838 -0.9125475039678156 2.387311451345798
Ni 1.6561023503562664 0.8995025255281878 2.1505086392587955 -0.1341748182439173 -1.5825913859766227 2.2483746929368635
Ni 1.5953357091767124 2.2922312981065978 9.25899344916444 -0.1410517478694087 -0.5108452880270428 -1.7601489420815495
Ni 7.0772918188549 2.3186168133556144 11.359423832557024 0.05680775301766345 -0.048952261528986664 -1.8644616826587117
Ni 1.186530244423397 -0.10921728480243525 5.6921478479954075 0.42562581663590565 0.5606480704817829 0.6078306417048565
Ni 8.48070530060381 0.9773117649236167 4.838129318816544 -0.592489897582728 2.2662009224850066 -0.4447391404265889
Ni 6.619290372517471 1.2176763646529052 7.430113304266205 -1.2061620856700261 0.6076866599278243 0.45625434015504
Ni 4.655687863778462 2.6063852750335026 6.2656445120738296 -1.5613409612382787 -0.1904074154844011 -0.529956554935197
Ni 5.263005042004004 1.8072285825941048 12.741892490463195 -1.4228454041318206 -0.3279236393967256 -0.827488983634575
Ni 4.5631042063007206 3.1528898602939655 10.614479218609755 0.6980066857703204 0.1550956275569845 0.9313826343964475
Ni 8.887213176080826 7.069516776743904 5.708342176250473 1.6368846001025488 -1.5858911397738173 0.6971147700836704
Ni 7.789296354865727 8.816291190300031 6.589114753998272 0.951697948915032 -1.024434714458126 -0.11836819022896389
Ni 0.8137583318081328 4.9854194959986735 2.0116938093990777 1.4697713792593978 2.893152087069398 0.06245235289795051
Ni 4.087153992536845 3.1711143384335685 8.26172206667976 -0.08639240865331572 0.44456147719814404 1.2596384603216113
Ni 5.207789376515989 7.919146910405037 13.230662333353107 -0.39709634173764513 0.08342766959803696 0.48766087949077946
Ni 7.561274404728716 2.9102001002170623 8.694750555655238 0.010242760773930746 2.6446711644810326 -0.2826182305917068
Ni 9.16423811030274 1.7715883777401555 7.026017897529302 -1.7105150811045058 -0.7145663899012145 0.8238467588962973
Ni 4.146257179080359 1.5273270665982641 2.812015839119414 -0.5255208877613465 -0.6827484740596692 -0.8519527731038941
Ni 5.320941053195158 5.260459313085866 5.373331602909038 0.6616291755825509 1.166948648695358 0.5900810310309192
Ni 9.024131116234033 7.868498852398303 8.356699812183404 -0.11697053855048888 -0.41400083080246763 0.0344340133081536
Ni 4.5185493550547315 0.2344377384321478 7.139853336777098 -2.934222631857463 1.2730645039195303 1.7255364942140026
Ni 9.041749030804692 3.587161804585778 12.354866333977771 -0.2728534378954591 0.20822696016432526 1.2982402318542092
Ni 4.642288323119086 3.5526520136557678 4.220579596990076 -0.9414883553718818 -1.3144608074781299 -1.4576560840531025
Ni 6.123461416335058 0.7118391095829334 3.4378240158406106 0.4126157775294829 -1.0089880408857528 0.9333017057960313
Ni 7.565070022213162 8.473766580989388 1.8976561822949674 -1.7215744242424609 -0.5214629156418891 -0.2467639398972589
P 3.8155146075785757 3.2279383164149933 -0.011721381451966606 -0.540463625114108 1.4062389059233908 0.2837032361257695
Ni 2.5860745858310197 7.8189168758157725 7.429009542377871 -0.7185551993456334 -1.0292635033053372 -1.0319145677749388
P 1.5516907032841378 5.973621834091947 6.8317447767539905 -1.3288638702773372 0.07590565018937895 0.18613424203034393
Ni 1.8911273526074364 6.874148165401654 4.965738346257897 0.5661579445564185 0.7087852644430631 -0.2990496366748527
P 6.11676164600537 4.1005902946246415 7.294472823750621 -0.32041241862134495 -0.15143309110373274 -0.6333586107726318
P 0.36565398103729 2.804069856366262 3.86271536263515 -2.9191307705213467 -0.4371479583428923 -0.9241382941292083
P 0.19391285877678732 1.4593827565195523 13.626686768480226 -1.033510194396833 -0.4973865914189757 -0.6575120680903837
Ni 8.36939169534568 6.244820081909167 3.0628234416273363 -0.487106035428574 0.11725515967044324 -0.15900781812719714
