# total energy = -381172.93393312994 ev
CRYSTAL
PRIMVEC
9.23955592597370 0.00000000000000 0.00000000000000

0.00000000000000 9.23955592597370 0.00000000000000

0.00000000000000 0.00000000000000 13.52302404628450

PRIMCOORD
 96 1
Ni 2.0842682298389823 7.719075992216631 4.100464956508302 -0.33220529749121497 0.029572571450794227 0.13454505709914247
Ni 7.4871077050898895 0.4377950991173527 8.882057028900512 -1.395015526403746 0.06601770165170566 -0.42213143032940204
Ni 8.208929520401066 3.563188484385894 3.635421483473739 0.06579170168382863 0.014152637351298207 0.011303855048593435
Ni 2.093276796713378 5.140408372755055 6.33925551702153 1.9990113677435446 0.32262562422257984 -1.1830794928189496
Ni 1.4076832795709227 9.10803069224458 10.029945251236366 0.2674302099973588 -0.28415369339962676 0.06233922435885392
Ni 5.769973223716654 3.4075574070194143 7.782175690427204 1.0984356914256244 0.030145670345444856 -1.5806466035454263
Ni 6.1762826886413125 8.265882142158784 1.302553766124516 -2.6131054738596093 -0.6335082489766186 0.16290406785780975
Ni 0.26833425467641664 1.986190345355179 13.729926282732121 0.7414837831173489 1.599301756752768 0.4795801593651741
Ni 5.522741190460168 5.384517436161751 1.6253588978792002 -0.02397656542025548 -0.6131924202374021 -1.511202906931307
Ni 2.6817163849488908 0.8390819415261938 5.574339489649975 -1.3433445803920154 -0.9548326378892719 2.1867376368513565
Ni 4.2177278545900485 6.836698416314303 13.665961762101606 -0.430795019541671 0.41080803489678286 0.3471639756835763
Ni 4.830957170952744 5.668365828929242 11.619279121173756 -0.8814775220358883 -0.20032441748779695 -0.8390622902944712
Ni 6.950769971833571 4.0772866069071645 11.035504584645812 0.7085021859850057 0.5291847097661789 0.21787939565242476
Ni 5.073495509878776 1.0367243550169696 8.813671380834716 0.9259167261858698 0.4994972100040752 -2.370250124988137
Ni 2.7555219564285536 7.350935132172103 7.720199522198093 0.33158103364365477 -0.10539183257395397 -1.2254579577851603
Ni 5.935462907088242 1.1131909185579922 10.928550258935108 0.6824471407691666 0.2972802034792558 0.7334727398874141
Ni 4.0250738772587455 4.871638935001937 3.7164246688971496 -1.5622421328963094 -0.9404676274168512 0.6972988610700185
Ni 5.593368354755429 8.082717188601844 12.06633687494914 -0.37956733171494633 0.6200122713727129 0.5232588312000471
Ni 8.72008022463215 0.7948087621497416 10.81628226470187 -0.9732162826027819 0.321530077165556 1.5731672644492454
Ni 4.889129414071917 2.8309167315004173 1.4237711940752276 1.585019535802141 1.714040834869577 1.3138686824200856
Ni 2.7711368056775054 0.3422165144689588 8.256563126210562 0.5046057348752342 1.3113559433005608 -0.8747998529053966
Ni 3.713673129189257 2.520513855453939 4.261726619160172 -0.5010298445985177 1.3967777605104914 0.20110089064250528
Ni 2.5727727828812013 5.313456012745365 10.503237799661147 -0.6476104927059556 -1.2696014850715942 -0.08321015427059218
Ni 5.084074801233836 3.871290711045988 9.881151445138661 -1.9443247748339418 0.2517099710486246 0.19629138506900387
P 0.13412601131503799 1.7674253834217821 2.568062457350363 -0.23242386912550295 1.4456035237639426 -1.1238183931647872
Ni 2.8314711048465337 3.4075666465751833 11.916921246748204 -0.9015544952914215 1.857058448216105 0.11585159445469725
P 3.900552384165178 6.799259736339893 9.845140276530499 -0.1701674342884424 0.5339541061303642 -0.7898387773819687
Ni 8.133922806671485 1.870307836905263 6.76383805138977 -1.822091959443249 0.4258525879347311 -1.615572983108966
P 6.8427041275639 2.5966200763199856 9.389413971533006 0.9139353854542775 -0.9125295062456866 0.49282802551401583
P 7.531974987902263 7.181001222475814 8.254196875978222 0.46396430720478804 0.8222598740251515 -0.8571937097878591
P 3.4340472134080215 9.094559419933946 12.872931614437322 -0.29282448170074726 -0.41129500183553036 -0.26529490882191087
Ni 8.223685090963537 7.356839208308245 0.4614067838840375 0.41453099227432477 -0.03987241071490553 -0.6082011376703977
Ni 7.930162883306312 4.609059999613788 8.2820134825752 -0.8734669930265861 -1.075794814097657 -2.097280216119472
Ni 2.457564762002394 7.30566130890591 11.944386750225979 1.5631985832723079 0.9966716854122448 -0.7600885427027297
Ni 1.3983882864677004 5.058869293097065 3.782024590898709 -0.43413976764418777 0.17725339460094633 1.258002210269769
Ni 8.566509568202072 7.760690951398453 9.976922212547041 -0.29295432241039226 1.4080651604988523 0.8437442691511727
Ni 6.882046156026645 0.9875883974394976 2.85269528840261 -0.33606092379187924 0.034339910932450535 0.2417978541412352
Ni 8.968190015686655 0.9149507058089873 4.433807801617086 -0.9978981016201783 -1.2712881287453976 1.0620494394871063
Ni 7.261791898116547 6.469804896298539 11.46856533538733 -0.7116582151154841 0.011961800347566496 0.9727306012156149
Ni 7.45723622128997 3.071607159272727 1.324279657558827 0.04726124697980893 0.15895202518859722 1.2237492026241699
Ni 4.513624628079807 9.531063753110422 4.208757169894304 0.6352589131191382 -1.2936400140780366 -0.7904360446463354
Ni 7.847431900954171 5.573133727622171 2.0877118122739438 0.8272053909558851 -0.3454469929924696 -0.0254066129985627
Ni 9.20693089719179 3.29711699691721 11.109326787325859 0.2867808466098287 -0.10785829183657554 0.4402075711048225
Ni 3.1169918572081436 1.936777201104649 0.2632349438477204 -1.0897129668406458 -1.5540256585237882 -0.09732396796415498
Ni 7.8553317211363325 7.955627099004603 2.7780211986806975 0.9927042161240646 -0.2797558214422472 1.2935410266063272
Ni 4.892104551029409 8.699947232612349 7.132475075579071 0.7384462818426055 0.5347460059040404 0.5039842992411514
Ni 0.2882344098908505 6.387619047736746 7.36001391967034 -0.9494698309154617 0.7926849885815123 -1.3106355201947686
Ni 6.0431037317925576 5.985532059798343 9.213669305213836 1.218490782438708 -1.3302172989814383 1.3100433951367243
Ni 5.689154829408617 8.147237006534052 9.624201247124748 1.6678005729551149 0.2806824470215747 -0.7376117017564522
Ni 4.868746954046362 1.7478837229711706 6.229922005700406 -0.44591824833635463 -0.2960460739618385 1.5105562744862435
Ni 1.1858600246781157 2.419580948237635 6.910345991390323 1.3798390757736234 -0.5272823505371435 -0.2231455291473705
Ni 8.465077724974263 6.129696848455977 4.752964232798746 -0.10964109476861117 0.09810352644265685 -0.4424395457591348
Ni 1.2556741080657385 4.398915543212505 8.268031262830561 -0.16412662741100123 -0.35813641553468 1.6357301747831314
Ni 2.308586164789314 0.9073410076779594 3.3590247924336327 -0.30569722389835735 0.8083687178653562 -1.4691666557958634
Ni 4.320684224519678 5.478686988555433 7.98024774326122 -1.9621381488662788 0.04330611898680284 -0.6081301752231462
Ni 4.117802058952523 7.292735170385624 5.701631001562971 -0.9499915077468865 -1.9319929927414665 -1.6741128883263878
P 7.71229415828247 8.66846806610869 12.26071680129802 0.27547004958269977 -0.052616597754451315 -0.2890557586869344
Ni 0.664883976842691 4.35538799598658 1.515430359166577 -0.38833967859093765 -0.12446016205931468 0.5257214338079268
P 0.5488065137660572 6.734333377953865 2.60640014610106 -0.4066582743944674 -0.222954496182487 0.43558601317241114
Ni 6.353996304294771 6.2884878538953215 6.695357235899557 -0.21457964185523046 -0.2312954119480146 -0.060481088104192615
P 7.195017628576798 4.377489013385096 5.987129578990737 -1.5413881722654355 -0.5015358377006588 -0.7452661329779164
P 1.33055146801456 4.862343941898715 13.071746527555135 1.1517210331123262 -0.0618424872280935 -0.7476906832590091
P 4.900383192998085 6.705746192405783 3.1945570039300537 -1.3119149011278244 3.112974722491123 -0.2779208251160375
Ni 3.38663905275928 8.357492337604558 1.8822019170461959 0.47162850861826516 0.5528476006007575 0.10713426918635742
Ni 9.054468987453943 2.3455905856426 8.859135538949742 -0.03994980092006023 1.3161803612723977 1.268551446540525
Ni 0.24115794929420184 9.635932711084154 7.847803331096069 2.251791431927896 -2.535437589563485 -0.782999128752316
Ni 1.2857119038694922 6.8720581962407765 9.309952867967375 0.9648347434073061 -0.11146889200596932 1.3911411310500041
Ni 3.4379555454981436 3.2131941118709184 7.762026067207017 -0.7852380453851637 -0.46981228134513286 0.1034817600354347
Ni 4.923703831758059 3.158024724376544 12.605067653149527 1.5292206836649662 0.6990492681022219 -1.0700419707742796
Ni 1.5770258576980205 1.5854800512262994 11.69826715948403 0.3897185612163353 -1.2415700328556747 0.40027422524499456
Ni 8.828792837805626 5.466287504713956 10.03248797698389 0.60985332856184 -0.6017551249347378 0.9089253338341958
Ni 6.030796643508768 2.543779056879301 4.425936624057807 1.134071438351363 1.3990295326591455 -0.24183436380612544
Ni 8.221375202021385 8.286052092401661 6.040058374211223 -0.7484910676731173 0.33198495395029276 0.5944758176645052
Ni 6.240996537244662 5.265705988533186 3.826231245473627 2.589667297441327 -1.4397115837595398 2.123746894951433
Ni 1.0851211481329528 2.783453133517064 4.512903942729856 1.869279158652013 -0.39844334268384285 -0.8543888933492124
Ni 3.709118028195332 2.0647912462787508 10.085119258508627 -2.1571295841769365 0.394156799493347 1.0349068176340432
Ni 0.7913245256693985 9.007153222362886 13.152290507056845 -0.01972421790180474 -0.37931793470830155 -0.8214983132687788
Ni 4.75909190618449 4.371889842589319 5.8841787527945675 0.17844844335031204 -0.18010423378618015 -0.40185699635108213
Ni 5.453352126637902 0.9539009771071427 -0.1017820223914392 -0.9122178885425386 -0.4922667536939071 0.010445363703040075
Ni 7.158502904179247 2.4316570476272092 12.65288512611882 0.8503944274778387 -0.84444643742452 -0.4446010721868278
Ni 0.7633074207122402 8.959689624379532 2.176503943210293 -0.3406698833188004 -0.8264062920933574 -1.0897201659294973
Ni 8.457824673695903 4.352782441259832 13.085270465333648 -0.7281040193763331 1.0830867197733798 0.1319119903516696
Ni 6.3479536348221 7.593066930644317 4.702888612399607 -0.6958911820892144 0.6090673423254349 -0.8768405374845093
Ni 0.016147047661224153 4.184280662707677 5.951415000122748 -0.11922488180230434 0.19818217433381352 0.4273191451779286
Ni 7.716304125486047 0.6370488911341742 0.6507493044278703 0.8647661228184784 -0.8231055098548986 -0.22076982982634238
Ni 3.4544573921008825 4.4888626186199305 0.49855626576289075 -0.3088650801033777 0.898566359197375 -2.040883325386982
Ni 1.5228728213381928 6.907177747717266 0.5969778617212863 -0.7553731395049313 0.19915585110099251 -0.479812072870322
Ni 0.36311361775082573 6.4892172029683906 11.985117483920744 -0.3189990832135861 -0.1123248122483614 0.20285155478502484
P 6.245228253786687 5.086957542633642 13.046783095779501 0.6450643292453342 -0.2996175933631808 1.0005406814493478
Ni 2.690595598042526 3.519891926054184 2.330679790543216 -0.5403844351367403 -1.5837638090181692 1.217791185268522
P 1.766695458516062 2.998319002916107 9.94362839729043 0.32253177895719287 0.3205628281562802 -0.8218757512128555
Ni 3.825878294443266 -0.2955937160605489 10.500141624523085 -1.6033162772287999 0.36972771991670517 1.2468899024066913
P 6.436228350635407 0.5027759708824153 5.221333945910009 1.6368396057972263 -0.08634612879641258 0.7243694920345654
P 1.1260800988552042 8.231418599141865 6.114191949920671 1.0484009954657363 0.1952670575695476 0.28725007293676336
P 4.717957403902634 0.9219053194360205 2.0446545584366405 -0.03660376726596277 -1.8071764757839974 0.9699864628115746
Ni 2.7605667538782153 5.970721051901261 2.146346957137124 1.1995664347303794 0.6407168509099159 0.9940471033052043
