# total energy = -340860.34464094386 ev
CRYSTAL
PRIMVEC
9.37116227650657 0.00000000000000 0.00000000000000
0.00000000000000 9.37116227650657 0.00000000000000
0.00000000000000 0.00000000000000 13.71564324326689
PRIMCOORD
 96 1
Ni 4.201644886075446 6.244042818749293 5.680580141389132 0.5500736374000462 -0.1360920898712882 -0.5576946442804137
Ni 5.8189200482533 6.2786317782092445 9.068989017113392 -1.567867963723519 -0.11463186311498323 -0.8168163344120772
Ni 8.6729824473874 6.521288650670904 12.704964317144631 -0.8233191685276015 1.4571179521614452 -1.1834348192758393
Ni 5.949244800138845 3.5992478413708637 2.301169455552015 0.1534184969648777 3.50959541014393 -1.8679550405239507
Ni 5.946208543605379 0.09629431368915724 6.874897271525409 -0.4607789674982709 -0.6067746896365163 -0.7229859814234775
Ni 0.9248315575830713 2.7121642620052486 6.68902308182064 0.6457413007077007 -0.5323129709825155 -1.0241480364556426
Ni 2.926745132694485 0.8282795369350552 2.886251403969913 -1.4272175650575871 0.2263208415515586 0.9069029040875284
Ni 4.404211926900782 2.458683697271509 3.886931273684373 -1.7235634296480316 -1.5820871926466948 -0.30438236174167577
Ni 6.264172075026718 7.007951842942432 12.052264748303193 0.37846252868654173 -0.9665820651157159 -1.184833499395579
Ni 3.4184312678732294 7.949875463153249 7.067053888329055 0.3056630282263123 0.8993834557820318 1.0124952827080627
Ni 7.612054439156555 7.4923565851381415 9.339173678362267 3.680723665683745 1.1665380435205006 -0.17406265557779055
Ni 7.934984686512267 3.5688477913876384 6.704206238720401 -0.16516638152942523 -0.9930006643185608 0.05571400573285244
Ni 8.637390773578433 4.526824212344837 9.013467692780589 -3.6586049794078344 2.7473399416968682 1.7287120637285065
Ni 5.2971056267934005 4.7409833807377595 7.120229610778133 -0.2955467657279168 -0.2419878586648542 1.311978407375908
Ni -0.059192945659383565 4.564027726041941 13.471641582634023 0.7682147713542898 -1.8285626547692573 -0.7475294750907964
Ni 5.73927454122265 2.4684953040324324 6.548053626859896 0.6495023104120298 0.2670311747867272 -1.3611553833211911
Ni 3.270348163731762 4.814921850024949 0.29254800258055413 1.699090384207332 0.2075898408009586 -0.12149362323182301
Ni 2.871295966310163 5.812669483105702 3.4221356882673013 0.12953937635443497 0.8553011207508365 -0.24250593595185332
Ni 1.4045966374031038 2.6102247602427577 0.5678005883149183 0.8232289228066403 0.6865881595207336 0.17292237132576024
Ni 0.5986982470077947 9.199369995971779 8.732613026318736 -1.5577031073753755 1.2746030520512437 0.07390533192989852
Ni 0.5140466651617813 6.5191051698922085 9.614213538716045 0.23753753620298448 -0.40720849047098256 -1.5013319276744983
Ni 8.07523349910442 2.267005946853234 2.323251662019485 0.4435626036199845 0.04138010560868357 -0.5153457470005576
Ni 7.448986846752702 6.968096290359616 3.484102497920222 1.7093742826318432 0.6343957937878945 0.6176643399658266
Ni 3.267892919250996 5.871323586942015 8.679931164114452 -0.7174406261252161 0.33556855753649306 -0.764006132589581
P 2.556687310935062 0.02704611105320144 11.553687060486453 0.7226134285754071 0.0712594096666192 1.4044309061803748
P 5.931467705558642 0.8536163480138607 4.515052158464156 0.13578510015383066 -0.45402570793483743 0.7897205066365497
P 6.225469175387161 4.3165072204294495 9.126759420359875 0.5712307310936355 -3.200280644097643 0.09211799828318329
P 2.3959250244177306 4.033563721926518 2.2004969349108965 -0.6322229545062918 -0.08918976889279477 0.5297976607598295
P 4.145464769044178 6.578134120214136 12.720806266742855 -0.23555830098942657 0.5873230086698078 0.5368010886608562
P 4.280147111324975 0.5028265727311663 8.311145009057473 -0.5323600221703669 0.5041131115095319 -0.2802222195557045
P 3.865520042426151 0.584032378258181 1.132668002879914 1.6011352104170813 -0.5824564246061259 -3.4508143354499796
P 9.12718393400483 5.97791118512611 5.039305893429184 -1.1803968037804637 0.9560264010870567 0.12247475619816973
Ni 4.382583284680904 7.50345204111229 10.698215222368805 -1.1967001689261776 -0.8527469868704153 0.9972306432395082
Ni 6.453150930748577 1.706423027618797 12.843273299173735 -1.397399196144574 0.5689205949032202 -0.7446387838065627
Ni 8.719388442306304 0.8608536965348361 10.338481609939384 -2.0010610511837212 -2.862502994724973 1.8881132606393805
Ni 5.981125493740242 7.581185831066313 0.6510277535156019 -0.07224079974328204 -1.4329732365944416 0.11528440909731759
Ni 6.5253651062019475 1.8513386789568336 8.577804239109156 -0.0772451949364089 -0.21240474569109868 0.5993424017281871
Ni 3.302969179142245 1.9716362873522275 12.817268324234325 0.3833324551843334 -1.0040929175769804 -1.100848157521859
Ni 0.4641461638807473 4.91197897631233 7.263200745972052 1.2559718101033015 1.9175541916083167 -2.0791300275730062
Ni 2.702155860839378 7.816786218436306 0.7946417504323467 0.9396759847534915 1.175576499573685 0.5629324956405852
Ni 5.732349252400947 8.50570720318254 9.230312636242928 -1.4418774810626072 2.70874151259838 -1.2180287552006248
Ni 5.707384476459113 8.046585856441437 4.71903143342404 -0.11407701905277771 1.2399322401419355 1.5027804871955666
Ni 0.9980475102692421 2.460970260833749 3.0982130348409282 1.387008339828553 -0.31792667608501374 -0.47535120888549104
Ni 1.7351643819031837 1.6457260104358906 10.452938172972711 0.2726693469091111 -0.6263410418042181 1.258228210237646
Ni 8.123523097613532 8.51426307421666 6.216875819704481 1.204896588694041 0.4596939619642083 -0.6476323470828266
Ni 8.64132666167737 1.9041264352933027 13.640248468979022 -0.168792922538419 0.07613139304693986 -0.34027804719702043
Ni 2.3323510604577433 8.18485735382198 9.837297801931417 1.5807669311733743 -0.8817207483949461 -1.2290495317911607
Ni 1.8821885447227942 3.727379741315572 11.73648938324162 -0.3068866162207683 0.9154456514512168 0.6446658082553349
Ni 4.567082724899687 0.8610045722452955 10.550237075243311 -0.009779962204899285 -0.42313673166546484 0.9300112079702176
Ni 7.94906017204704 6.3663083711941555 1.3735940216942557 -0.2649827768981307 -0.9274053949162543 -1.5546031282938129
Ni 3.646647179476644 1.6399533745574484 6.422624370076458 -0.7742028706169248 -0.2416245617881645 -0.8904915526090407
Ni 0.22882784849117796 4.544085893007322 2.11764086773097 1.9903416078836884 -0.6629322106646905 -2.4566913846015175
Ni 5.8341856713798945 1.4048028029701911 2.162078918600407 -0.8724539783810394 -2.1399222191597147 -0.044518137017033006
Ni 2.821685033939265 4.115786298545759 5.484117475582006 1.3427457704657522 -0.3837448601314037 1.2751612385475588
Ni 4.243262217140644 4.8832938490007844 10.546506415595246 0.24808394426026306 0.677927141411626 1.178887566224789
Ni 0.5770471139987803 0.5633399151361221 1.656863636639671 -0.8459837000046526 -0.7612432251324631 0.957620227936738
P 1.2508908359774393 7.597426055055502 7.637597415802447 1.1188790468816407 -2.074824201108801 -0.7222365048519626
P 8.636922215471417 1.2209593441012307 6.90471537233972 -0.531132320410853 0.3861023046199867 0.672900377620996
P 3.069552272550948 8.235705279595402 3.6312438002665863 -2.2376513929820883 -2.5298408122019977 1.7594210627765892
P 1.958460433382926 1.3920205378107833 4.814519827169129 -0.6103940315566585 0.6468926407033246 0.6788779353606695
P 6.769746272497428 0.00554116817357611 10.9215881173781 -0.16864097034158698 -0.06040729744346371 0.9873149267876932
P 3.3425248545365704 3.761603225452051 7.695326585935511 -1.5375970806541195 0.8777417091425399 -1.1841794107513477
P 5.1564913388777756 5.707206424378446 1.5299659187488435 -0.09701003626816196 -0.11741328251486231 0.6227263278697662
P 9.364883461694257 2.678371851327225 10.999053892094908 1.2017014787955111 2.5545894799015874 2.5078337118032876
Ni 6.701608552575101 2.8408396893540964 4.247171865985589 1.7452895084712137 -0.05371934390032684 1.7397595797919199
Ni 1.4904552249327914 3.9487921892051085 9.194157755589329 2.1090286149046515 0.8794705189081886 0.7028647851935702
Ni 6.937893034781339 5.5553935977051285 5.668222389874681 1.3362185108701954 0.13651709322384875 -0.30133971826061007
Ni 7.848620056227001 9.080374979113891 3.5968178990278763 -0.9275576042234025 2.12522142261443 -0.7341389127165034
Ni 1.876846982302807 6.525233909931982 5.7064342406180835 -1.185945758623151 0.6065821140097359 -0.08321092560154056
Ni 0.3789979104412965 6.9063122183684325 2.705300822853672 1.153288377599446 0.7938674389253876 0.8865829615832537
Ni 0.9163947003081337 0.05416625428731147 13.156812704948624 0.7706251805679954 0.0715273186160252 -0.2539609718663304
Ni 4.854421298446432 9.080253154006066 12.885435094759288 -1.4012244834279353 0.12047598060058605 -0.10832777527382634
Ni 1.5580306751266986 0.20956636182794725 6.648698971130808 -0.2574389031126018 0.23682894017173403 -0.684327388511015
Ni 9.063553743072001 2.510168862070473 8.900423363881808 0.8804372536968321 -2.7519622709602283 -3.3729019392432167
Ni 2.386516377628841 1.8380409998797076 8.422598114624824 -0.7562879380097168 -1.9367438771628904 -2.388628627495325
Ni 0.63190777140069 8.867330979015668 4.464140508788182 1.4930352348833447 -0.45581468151446014 -0.3974143871986962
Ni 4.700893549101435 8.133006713699544 2.448749328286547 0.6939163177510308 0.24113193842246214 0.012775040277481222
Ni 4.031830056930557 2.841373845596095 9.413923690290808 2.2885564073620714 0.7417154395121807 1.6781070970874454
Ni 7.397258031738089 8.760162368778873 13.041560530249582 1.8678483397427574 1.8619278604932643 -0.8456067762812082
Ni 7.327499100765486 2.8779026356190944 10.594771649082793 -1.748013592270596 0.7136189383862807 0.7154215388126582
Ni 0.9197373938435889 4.40699516205646 4.399936802732364 -0.41962383341619985 -0.15541495856961624 -0.028360039199931804
Ni 7.944861891408173 4.807237497069881 3.375131813203843 -1.7362705928020548 -1.1107741583863193 1.7345173575563742
Ni 6.192660736733872 4.704229682823392 13.050626192504136 -0.3530142638167662 0.06517875069017807 0.1874953840439287
Ni 3.9011679432079602 2.834467299098673 1.2245410022712642 0.2516269244165151 -1.2111968198804561 1.1208829646855472
Ni 1.6787874704669687 6.1700574936514005 13.215159434666736 0.30117593898923617 -0.6220475566351867 -2.457050053492517
Ni 0.4886105197642883 8.304311557624745 11.143342612685757 -1.1489565829933115 -0.07556369346892793 0.9298983365414372
Ni 8.817954325698278 1.6673921373043297 4.65997155826705 -0.056043878268445424 0.011611873207315486 1.1932883150311513
Ni 5.601406003814141 5.958156775334297 3.801427853199804 -2.7134535733620693 -2.4045355285335686 -2.1499693189830715
P 2.114040467236656 5.912200596198128 10.907927774326144 0.7707604205942791 -0.4982178290710194 -0.27555798131081577
P 7.625989357259223 3.847836659467352 0.6998889929152735 -0.3562996194362573 -1.039040894407075 1.3970672667264519
P 5.0276191171239795 4.024867283460294 5.011010606462676 0.5296971306262231 2.7958132067069075 0.898306163557453
P 4.89060335547024 3.3094071675326506 11.90944355170352 -0.21795395764410205 -1.4051801256415735 0.24808754380468884
P 6.607419001902662 7.220171180772307 6.963130511541457 -1.5397187549828129 0.3205402024484609 1.3349967226479524
P 7.251021046538267 -0.04840392668722362 1.4326267204810397 0.7925862582201187 0.10024422693474348 -0.06305090571389788
P 0.48428479132031277 7.516224935109557 0.5543604675732595 -0.6635677873661605 1.2072640604849532 1.2107687312041018
P 7.963444905932445 5.886336188690822 10.637729056334058 0.07016591949212432 0.30634617033626593 1.1664508831233331
