# total energy = -381171.5140286978 ev
CRYSTAL
PRIMVEC
9.23036622613232 0.00000000000000 0.00000000000000
0.00000000000000 9.23036622613232 0.00000000000000
0.00000000000000 0.00000000000000 13.50957399165665
PRIMCOORD
 96 1
Ni 4.597811489647932 9.00352060049696 4.876551007484142 -0.5208157689761933 0.029740721597542326 -1.0340128450648645
Ni 4.868501205228207 0.5143843025311396 8.875533267506967 -0.6336293479355152 0.2589561110880766 0.9492543724705459
Ni 2.1720251327266307 1.8454270898166922 6.487634794222791 0.7032915883183437 0.4811906983854035 -0.3897938945389609
Ni 2.475150354702223 0.09979041069733029 8.90387602958365 0.16971183480826255 0.1867752180484525 1.3731668059597706
Ni 8.501702518343336 2.519345347479907 9.566534163669276 -0.7430166748221075 0.8596848516408292 0.5780066163648884
Ni 1.2656216446767155 1.468846614598659 10.532752269972729 -4.479808130033697 -0.8398374778975988 0.6872373630689584
Ni 6.015124970437525 1.5636147831133789 5.17467983230214 -0.2017405811090332 0.5577314110556201 -0.4919533362185462
Ni 7.9198940837646035 7.580188921025027 10.780234999161683 -1.4144281266024028 -0.46123636675066365 0.839094429083987
Ni 7.1750496931641035 9.056872116423236 12.73519145892377 -0.018780108820980558 -0.1875684033737092 0.2835399710750278
Ni 6.276095110538497 7.509087411132274 1.0412785202067225 1.1818890720552742 0.4598518276983113 0.3225757448212509
Ni 8.623035680428266 7.450474586541988 3.5401158403362833 -1.4496504401398065 0.17139050806226613 -1.2763742850190534
Ni 9.339469004243112 1.092072301693004 0.6949745687585474 -1.8055219708997097 2.5834423995775375 0.15662929059269154
Ni 4.306048848313386 4.195967502476574 2.616763554095394 -0.025165957742666337 -0.4527082746749945 1.6306656157760304
Ni 0.44478918838218795 0.21858799122085237 3.0030294524382444 -1.271324638410288 1.349529369046489 0.8993112077831995
Ni 0.5514183773061234 7.7754480850223375 9.5243846200143 1.579412731138325 0.32541655670415565 0.7762615529181663
Ni 0.6912058102892222 6.537489847479021 5.079261846015585 0.5641686820405316 -1.4214647217342098 1.126069136872177
Ni 1.5471662707637899 3.3665544978766713 8.918128637843472 1.0058510379186676 0.1899998956333373 -0.9992492163314339
Ni 7.249067998737255 3.702705969676523 5.49812662823332 0.6976775845656759 0.15975266671302166 -0.5753339546287317
Ni 3.620657245616199 4.730101096266512 10.2331373562163 -0.223214434712093 -0.17091279709489918 -0.8337023115341384
Ni 4.271711886506163 9.18554341953955 2.459269509866383 -0.46330584768518274 0.9433112675132335 -0.4948368284139284
Ni 6.2631541372982475 2.1159414284415 8.086411733870696 0.797517119862833 1.629241224624678 0.4168010192554241
Ni 3.575843818311342 8.909961609938355 6.966940936550708 -0.49642319906444177 -1.2904952978014679 -0.37738935022702097
Ni 7.004204847441015 0.8377591016069162 10.51740586333276 -0.11817150083712552 -0.4150788943579948 -0.0015552603022618375
Ni 0.6938955389641214 1.2867776437256822 8.1295212355977 -0.8095822785574831 -1.0573965140961272 -0.004412784355714981
P 6.372450902018497 6.718829619431898 12.342779059810104 -0.025749598160278237 1.0887621728916024 -0.37401272044530426
Ni 6.4554595841508515 9.301901414308865 6.907310002582106 -1.0189286970382325 -1.2444548106026376 0.1906706964481168
P 0.8917816651470061 2.690891701024864 4.67448814065132 0.9158228322849776 -0.15912968841704206 0.06540912153342929
Ni 5.355892225203152 3.530605794166933 0.6365334289772968 -0.9387827835152606 -0.28020036517883357 0.18152065451773255
P 8.135016995560072 6.414679826821735 1.4919299140845468 0.6773129048663948 -0.29777154129337746 0.8897541602223837
P 8.863819009918378 1.7397024767683233 12.17915051428618 -0.08123349016019558 -0.561564154538149 -0.8433017822971154
P 1.7351057544618727 3.890580840812065 10.910061944110863 -0.6981311271633267 0.6203845671104671 0.9986861447391122
Ni 2.5125702587792342 5.683570220944125 8.109580875761102 -0.09931245914909348 0.2389326167782982 0.2472671047859225
Ni 1.9912945649348497 5.099638802167635 12.779341222907675 -0.5183732209729718 0.7905903108360126 -2.178997330784305
Ni 1.7994875578504157 4.202511832025316 6.5572908287878535 -0.4797768487570124 -0.43002394570360136 -1.8521468698471006
Ni 5.131317418544621 7.289044714217653 3.1795454350791714 0.2327012911566057 -0.8773827831412243 0.3340377227142634
Ni 5.492584716440563 1.0737038731993553 0.8484580189270109 -0.15762302196452854 0.22787687318476882 0.4212734532044809
Ni 1.0372531575604511 5.583180759488384 1.4082381848624794 -0.9905020662664231 0.3577111550718033 0.8317608715370514
Ni 5.163697542743475 5.354867654568582 4.582609999755374 0.049004712033476894 -1.172601218995445 -0.16701191937859622
Ni 8.707401226373971 4.830878233097498 3.3048605770898116 -0.5769108121975484 0.3822482209812191 0.12255163218269216
Ni 6.731945969627614 5.314170970534161 7.622831366228523 0.30779318719543763 0.25098517706745804 -0.48576237691648605
Ni 5.727036014801709 6.2607727028503275 10.150282821197436 1.205858181276362 -0.8994693306276186 -0.7494801710592641
Ni 7.348959020424826 5.963287234547912 5.16162994074218 0.7111162265690849 1.246355627169776 -0.08068995895189975
Ni 8.338934242937805 8.047743884300047 6.203461359876928 -1.187079100896646 -0.7358232423974618 -1.2144497796001148
Ni 8.86791729245666 6.210790270542233 12.748904090768074 0.3443550454798715 1.2732293116321687 0.020563425973648457
Ni 4.773760727811719 1.2542129122052834 12.001270283539041 0.61653973944308 0.5900548057786741 0.9257586033414509
Ni 7.599074250018999 4.624957996281009 0.3042264046486035 0.1643433714074976 -1.0162323811529919 0.7295476938013952
Ni 5.366811748272492 7.252474003819745 6.163580640203732 0.9567203418302879 -0.4396293300038493 -3.0306125180431223
Ni 4.195376759047632 3.4741251841404823 8.314602074921671 -1.4634570070055957 -0.23615813935695457 1.2000469739112234
Ni 4.741159074827011 8.403288355228117 13.189640225405757 -1.5996470559073288 -0.2444674305535983 0.36103893389345565
Ni 5.9458787641262925 4.609524824199913 12.041163925724744 0.20554812778058149 -0.3790186583003279 -0.37412790586692984
Ni 2.269285500082198 7.27575298706647 0.07156856641625922 1.0714771605589095 1.1600732617317633 1.9843095427569954
Ni 2.887313891147903 4.195967502476574 1.014011095778035 -1.1325264624617464 -0.9117016110277525 0.21757883369287045
Ni 8.08515455801098 1.7216478807212996 6.648952979117592 0.4116235888195427 -0.6896768257483864 -1.267263580967037
Ni 3.0952001959388378 6.109754683461087 5.572779982992582 0.24526087298917115 0.7112123858273172 0.3170645851950346
Ni 5.196963782085742 3.5844095980309936 6.357510631485925 0.3977810265094956 0.48163035702598345 -0.894377260816692
Ni 5.621163715896105 2.7778509798382642 10.341565543488686 -0.6710874927819732 0.36571859875731205 0.4980334809743551
P 2.2195430572921104 8.113694849921714 5.1968631710955 0.3733110663925893 0.8956396724688832 0.06526925352145534
Ni 9.335223035847596 8.244341451378553 0.9441270711708667 -0.5216434070838113 -3.640412110548892 1.0562724277940132
P 6.721127980585123 8.316559835566647 4.577340383761896 0.41876919872538854 0.12491756131170745 -0.2089090738330144
Ni 1.6912892066933545 6.9489334153706785 11.539864590144658 -0.08087893503425427 -0.5704216049287789 -3.223827578179648
P 3.381655376778988 2.1054280414795574 1.1444869354624438 1.0686152656300822 -0.8803801752066516 -0.1921123139906498
P 9.471370935486451 5.840606439015707 7.183162261909364 -0.1444530602414738 0.1835698237372774 0.3794148652974821
P 4.276954734438019 1.6361469997480989 6.835776511556939 1.2971593400852046 0.7729111483886947 0.08359916217889474
Ni 7.300831891698252 0.08324036432089187 2.3020311467777095 -0.1631390666867513 0.005617346186777422 0.7054050351169207
Ni 3.6502313385275813 3.5997412360852397 12.3453727926778 1.0803096712488747 -0.3029433153023041 0.7286712047337128
Ni 6.263855645120117 5.27314199332096 2.033191196559308 1.1676778135518988 0.17905650924795616 1.7921370649523716
Ni 2.1244149045003793 0.2438921167849172 1.5538573631331596 1.5162013885871628 0.6929058742086455 -0.7206797018878041
Ni 1.222746594248073 7.974593233138154 7.340940601413554 0.6140213438966006 -0.9413914247827013 -0.4435240370725652
Ni 0.6281531796157974 3.431397819569075 -0.06061950617547214 -0.30216118572064093 -0.6206252223663634 1.6188066595549153
Ni 4.070000696620882 6.2664401476217355 11.790656405572289 -0.8724280102391103 1.4074910331629373 0.36572168408110567
Ni 0.6532007010029157 2.92997664315677 2.4016378731901034 0.5694798098407999 -0.2887739657804575 0.18187546675399
Ni 2.73110840602327 9.166131959679177 11.386477135783398 0.9683489272081516 -1.7629388461218605 0.0197373305279273
Ni 0.607913755918298 0.35551216464680047 5.633532406439567 -0.018567221479226088 0.8426700622503875 -1.014389157296666
Ni 8.884688867618953 3.6561387728169956 7.4413429853818025 -0.45477672716824896 1.6734485152695115 0.45211589250663425
Ni 2.0569870803063566 1.5222719734535533 12.976296928189978 0.8247708133724635 0.2607116603266026 -0.4561250136660273
Ni 3.344733912470146 7.1775049705406415 9.626787224311482 0.13097765146285828 0.6719290148466622 0.5183341402049202
Ni 6.945758169440118 2.3381624917503423 13.102341269120718 1.363134361424433 -0.3963972587880915 -1.7147771988149694
Ni 2.0804875923389345 4.853834153531519 3.865399479116827 -0.4858899036332857 -0.9061511135231684 -0.48157353564611904
Ni 1.938339954749893 7.526062054348263 2.9420878064866782 -1.1727158901964385 1.6177129122701044 1.0403765824993632
Ni 3.638619538002451 2.999656676673632 4.673205119766588 -0.24393984018490245 -0.24867658353893946 0.12408812343187661
Ni 2.473304281486781 0.8093877253953944 4.114705205606028 0.2380712972192674 0.12102079736046253 -0.43093437333301265
Ni 5.316497022785618 7.544485865038377 8.22769540919491 -0.3104558216292653 -0.32727160763502344 2.897481310572371
Ni 3.1795011293220012 2.213164874332758 10.639734981917425 2.888152576972278 0.4537976510844313 -1.926946174346178
Ni 8.561699897845203 4.083837015370621 11.765392893618964 -0.7213088508313706 -1.0332471705434334 -1.7833022402695613
Ni 5.066797159664921 8.468620886322613 10.9725302926116 0.80778867699217 -0.7302660600246584 -1.4089303367126251
Ni 8.123552880892177 2.031215898218785 4.044887639634616 1.1226835082293953 -0.5761626211776142 0.558309137935961
Ni 4.673703559534757 5.974852883242656 0.4008997207216598 -1.0407915585495946 -0.8271809654758528 1.262414994625484
Ni 9.205988680400573 5.168626558228706 9.803722265572315 -0.149706081110297 0.7136780737589903 -0.9372756028421149
P 5.8358804915841755 3.2296404778534082 3.726358782749375 1.1823138182975188 0.13028139672678207 0.5839852025458265
Ni 7.80227152884271 7.483657752589559 8.353833899859639 -0.3886027024443372 -0.44002810810416476 0.28855953577680626
P 3.2005740550762725 6.11007774627379 2.4112965282532968 1.916742237229983 -1.744028639480919 -1.3266907738854183
Ni 0.3671627327094555 8.59830752970742 12.1623447867694 -0.15484828743286883 2.1609561570118783 -0.2993473704209296
P 4.5875842440343835 5.542401002159267 7.110871880865867 -1.0196540052400311 -0.7482745807869371 0.8129807627160709
P 6.9061691293349625 4.183654194129575 9.410755121457411 0.810711764176236 0.13157054785185085 0.7889052098241058
P 7.943957648127891 0.44583960404177453 8.561165459649333 -0.18030657960497337 0.05968558878609075 0.22782133735648508
Ni 7.327452267464927 2.6066830713024727 2.0126702466964534 -0.8320508919736446 0.7862248347784653 -0.5675766792808161
