# total energy = -340898.6901675632 ev
CRYSTAL
PRIMVEC
9.01259874681778 0.00000000000000 0.00000000000000

0.00000000000000 9.01259874681778 0.00000000000000

0.00000000000000 0.00000000000000 13.19084927341294

PRIMCOORD
 96 1
Ni 6.322689369434204 2.1048202889880714 11.40007284901301 0.7879089073491075 -0.08095735368067347 0.07513097680688352
Ni 4.582942409637625 0.34193888999082106 5.950114854475161 -0.11992782140659991 -0.4673671622387499 -0.017128946370802756
Ni 2.851153574354739 1.6641492832157834 4.805281413179935 0.13879329085253517 -0.45005900997760556 -0.20925103055346542
Ni 3.378534790711651 4.252792899801232 4.979439966169874 0.3912501673695133 0.40578075688552045 -0.7316076616542174
Ni 5.171023477183337 4.563321982608967 2.5892186203725083 -0.044528164319362025 0.19126307861647704 -0.2124191438688019
Ni 7.278610633924187 6.239755437639202 2.6182382864219242 -0.6064286191510072 -1.3048669931421075 -1.1357367418689277
Ni 5.110368688987254 4.481541663427501 11.498621107784196 -0.14216272154540033 0.5186403585914294 -0.0438859027496728
Ni 5.517251462820892 7.8074969542378225 12.317047971418042 -0.04715686019146072 0.3349476361230425 1.0366783077121693
Ni 1.9077508092413316 6.5302765516809185 0.4636513295378713 0.1633216150112026 -0.1396828925463401 -0.20168453106011716
Ni 2.571294364389689 1.6724408738755747 0.3623226841160933 0.8879636439808642 -0.9504764178031049 -0.090619816471102
Ni 0.6744307741886058 0.019148166864992405 4.556870764571707 -0.771056097457827 -0.6813243400186331 0.40090003175445155
Ni 8.632510224887076 2.3543881552492523 1.342590582310817 0.008107459598482813 0.6185667971754379 0.6699950310487429
Ni 6.930535065585266 0.5432136482178423 4.58714408307849 -0.44906604993671695 0.7992353881055204 0.483149107663355
Ni 0.7067256185486392 7.416728706599518 2.4028849480104895 1.216849133070227 -0.6876117156892416 0.5709173136182748
Ni 7.640142011888183 3.760921321704731 3.8647996312543946 0.305838377461912 0.38009826451775186 -0.8032373101760618
Ni 7.63683438822281 3.9039873109803076 12.576155673237254 0.5423626419090336 -0.2051246670899177 0.018702461505509724
Ni 8.054523267709806 8.643208179357917 6.740207009548878 -0.03781115731050262 0.3579147864421771 0.3517971035802135
Ni 6.8220053539274295 0.6866221162380622 0.2985468330444818 -0.18129362610859098 -0.20706250754257888 0.636048241789653
Ni 1.8396876650426952 6.43626613627626 9.282004941426212 0.34232901618877815 0.3671494176665677 -0.5903360844645187
Ni 0.14823381328027682 4.921933278644949 1.4796172293025605 -0.39418251052495984 -0.7203506006831594 -0.1149375672808601
Ni 6.430137569266849 1.754185142662867 6.791216514783974 0.43684122573575085 0.20229902471566452 0.6569453969536363
Ni 3.391251567256179 4.151563392963429 0.32272042485719127 -0.7061244297814485 0.6630862197440516 0.4856194235807185
Ni 5.940492103010532 5.401899214065814 4.796364348181242 0.15508611447528775 1.0157289591540117 0.18959314711322187
Ni 5.176881666236452 2.8685839399373876 9.429795334858163 0.23349961868818495 -0.3474275137576081 -0.9457371033459068
P 0.31428192884114475 5.501686705136696 12.509897752526832 -0.7316336297961463 0.5658247295867158 -0.43106035738791565
P 4.023413254276935 6.062513674687615 12.654706778360671 -1.1368875676439196 0.5769668622464644 -0.48258372207818834
P 2.4184497056946848 8.592368110975434 1.38792755802279 -0.5624308734138186 -0.4825526117299367 0.0021527846769446796
P 6.243027010910402 7.78390197125159 5.846843994067313 -0.08769904327988122 -0.7217130282483247 -0.3020282596872024
P 4.778461722434926 1.07548239676476 12.613195650730308 -0.3422133165465203 -0.27615781967834374 0.34375906376708537
P 3.888422553296112 6.135524735486498 8.15364653026805 0.0014408462115846152 0.04240417599782375 -0.10254253605061694
P 4.7406628841445295 1.0458399601560053 3.724594240756447 0.17367287633853962 0.6127324498818479 0.22986073638401705
P 0.21087227441572998 5.5597458649523235 3.6166404341455247 0.4284689425116556 -0.21421120277221817 0.17943189030950388
Ni 1.5946801736443998 1.2365465453312097 2.613713961953212 -0.25692313981844783 0.03309164034764624 -0.30721674586667735
Ni 1.8621110102183052 6.438239895357232 4.746700423908654 -0.061941988920435266 -0.131268957451032 -0.22577242524725633
Ni 5.946034851114631 5.609188980560602 9.14550553144925 -0.18777717695040563 0.3499788194245521 0.3026337544816852
Ni 8.6284725807397 2.11751002773697 10.248010402426242 0.07941443467358582 1.41360280248763 -0.8515681360709657
Ni 2.267065087963687 5.23039847638628 6.882879148268114 0.3447787632808514 -0.6518098754992839 1.427476732256245
Ni 0.6677452285892217 8.9453915959146 9.016763265038463 -0.08604916638128406 -0.2156006269205771 0.2609597717816667
Ni 1.4733075090624301 0.9910073106188625 11.280892949656613 -0.00969717268310588 0.6385193290379648 0.8161558180099427
Ni 4.056958146054917 6.9348971632802 1.6206013083146458 0.3321060529091894 -0.3849046847674597 0.0215926385691112
Ni 5.51965782663194 7.711963409679355 7.946800183621591 -0.03491403826836567 0.7509726964443905 0.38566521708256807
Ni 5.296217483547646 2.9183424964946796 4.874704558498747 0.2430954899067362 -0.6273998220860356 -0.28878245042088974
Ni 0.9442048863837567 7.203968292788977 6.966971198975924 -0.9672680354391471 0.4819735992980151 0.19881569415275438
Ni 5.114388307937544 4.574894159138502 6.980518035846285 0.27913978512480314 0.22999031998334585 0.2930941904223662
Ni 8.124470045003982 7.110255293136246 9.192214224659507 -0.4685159311312125 0.2565811830979968 0.047621715643021215
Ni 4.677818034502436 0.40542453538933987 10.467347309393793 -0.7043660523294449 -0.44762854615924197 -0.4620434360329914
Ni 7.944641666270482 7.022184180171592 4.669877033925977 0.7281541558879782 0.9033789500946701 0.976123171836932
Ni 7.307568113043655 6.0653526432287395 6.9852145009471736 0.0052715328115844695 -0.27993117067784695 0.0527801199155091
Ni 2.3821649839595542 5.105691150343306 2.646321543482696 0.020230211003945803 0.42057025648986923 -0.26176992638778784
Ni 2.2083660336514894 5.255111021591874 11.478347267361151 0.8099324628080502 0.2238207008375242 0.023731282178668805
Ni 1.2101756819936555 3.303531945634711 3.873611248850132 -0.7751323244097296 0.6051448673425772 0.12380118831907712
Ni 3.795160183570544 2.7434349965657954 2.5173152079345926 -0.6582774855014986 -0.7664764485069445 0.28392357966669163
Ni 0.9704675985387919 3.3420698170056546 8.190818091699837 -0.014050821666111284 -0.21608245165300205 0.140456537487571
Ni 3.640810420918817 2.80944326829657 7.137422870185025 0.08474947373325403 -0.4081903947682777 0.02784479012641011
Ni 3.9937798302667233 6.8489349983746655 5.981126304802636 0.8445063441281778 -0.03457773797486948 -0.34685647174548656
Ni 0.6522922271269624 7.330252823577019 11.247467925439256 0.21227156254734408 0.3334941915059676 0.44820653014989903
P 0.2105559322068618 5.440049543699398 8.12245032167044 -0.39224724117545995 0.2949708386197888 -0.6294700743515029
P 8.474167881080689 1.4447375716803224 7.939466632186948 -0.08821094991929325 0.7097710253951003 0.09083630335728227
P 1.9086881194898295 3.2926627517915494 10.366081752161818 -0.8609205238201431 -0.5471724045928512 -0.24335311444349703
P 4.057345687792277 5.990232634370737 3.7673725397419906 -0.549119758127209 1.298727198792957 0.25685526269498987
P 6.882885457087095 4.092341607935723 10.380050378644004 0.49076137279297416 -0.7834274745389862 -0.04270113841295227
P 6.21829644050772 7.663746007472959 10.30087920674081 0.7086770209999731 0.5426205235561107 -1.6539078741334226
P 2.376622235855454 8.424679702479693 5.8173223262790374 0.10558697930389557 0.3766131341826288 -0.7512740297348932
P 6.98825174665625 4.0970281591782145 1.530310392328788 0.5875240689370205 -0.3068177106560458 0.5523295233137585
Ni 5.378340281473755 3.017201689915607 0.38691806554062697 0.424844715495507 -0.6697721164046594 0.010690132723994493
Ni 1.4159783697288064 1.0942826773259828 6.859347253471685 0.00761355068119979 0.3234542907714623 0.4702653097221514
Ni 6.782268806950233 0.7505250449491336 9.16150649890294 -0.25603970877223003 -0.5311875991288207 -0.12818903297412762
Ni 2.679094055565522 1.6456283932094011 9.093296449348049 0.5133901659360837 -0.5613638656018848 0.5277819158813813
Ni 6.345590382332606 2.174361499347801 2.4925557972165717 0.30329838464887765 -0.8725467952051618 0.47034218570667385
Ni 4.050333886125627 6.84396004397879 10.404453791719567 0.18092544413589487 0.3574962108475198 0.10343445173726702
Ni 8.248348211980975 7.205599573125306 0.30916187160872355 -0.8047522041586915 -0.39187134589327993 0.08251132843135467
Ni 7.45406790236421 3.7113249919212175 8.203955756596336 0.4263974046946076 -0.20579495368406495 0.34988497415916514
Ni 3.0772706592063788 8.304361511927285 12.417337464227783 0.270911740788056 0.2880892810086071 -0.06102513353312071
Ni -0.004248538953288817 4.858493597499001 10.291908967410711 0.19635823375119732 -0.9270076452572035 -0.15466856732189493
Ni 8.578912301350359 2.242010064013448 5.648268509103995 0.5967880107374496 -0.03458365151214044 0.5636503476432163
Ni 3.6827099915463934 2.620566240625646 11.544854837051222 -0.7489572086762585 -0.14174286039916234 -0.7227898062522713
Ni 1.0660462060899756 3.3030813157075483 12.458664734847863 -0.13729870858487964 0.06669647288628514 0.1563996910803887
Ni 2.995138848681727 8.37990511291682 7.920642918869512 0.8970594356345454 0.0038828799941739577 0.6965470705056584
Ni 5.435435093245253 7.9556550616903365 3.5807090062732887 -0.0839272349422748 -1.036121920988067 0.17011266979110704
Ni 2.8835538661177282 8.317655094778582 3.6046365541457677 1.2388220377968922 0.04683315830345483 -0.12094057894183043
Ni 3.519401705942674 4.50487528105598 9.548855366653934 -0.03739489570869044 -0.17536106267423993 -0.8437229289949341
Ni 7.202318987255563 6.119329095904273 11.475207278028682 0.493924343901988 -0.16174012945669564 -0.4880794550854368
Ni 0.4790403415504735 9.130212954241061 0.417468070822687 0.5759682457786209 -0.023652606421933457 -0.00824244251445032
Ni 4.514077144168639 0.3592638081705137 1.5972667894263128 0.2977959667734097 0.2800162741924855 -0.5363732570948182
Ni 5.976488421592278 5.599942054455226 0.33675304078903406 0.0005587007169474249 0.9725359687063057 0.7442420625887762
Ni 7.924381344745253 8.997457377698964 11.282317841486304 -0.2318137463453298 -0.9889226375944453 -0.21942797108646722
Ni 0.09174554939073859 4.785915141430195 5.7600743003323025 -0.11598246360560671 -0.13425503666254943 0.19234191350295263
Ni 7.862942460475907 8.62877900909017 2.567281955518234 -0.8231273642317694 1.4426400702602447 -0.4256049907002992
P 8.588168240054278 1.6278465362835657 3.5213763662835005 -0.6371479026117349 -0.15792512658597962 -0.384281449361164
P 1.7744725019837264 3.2584329025242798 1.6114598296122256 0.21448039727320484 0.017574518548653602 -0.17649054829299282
P 4.755587747332154 1.138624662158781 8.101265307534673 -0.297708549265926 -0.611194673081083 0.497627246674872
P 8.538211406329035 1.6992894049359213 12.454838886766252 -0.5888024214288118 0.09254505851827287 -0.715057213494704
P 6.226074313050546 7.731376546941519 1.306483408766988 0.47862936541613044 -0.007870918107644509 0.5259021823601653
P 1.8133258143036841 3.183285855870648 6.084569305842661 -0.9740385213937612 -0.1901970992458079 -0.5533854753820986
P 7.029322158217847 3.8011265238061767 6.031568016329507 -0.8431570291891349 0.7846783162269518 -0.38719913722859123
P 2.499247651634936 8.514553335153 10.200747434405576 -0.15153902055397772 -0.6315580672287833 -0.21832779604375305
