# total energy = -381173.5732588795 ev
CRYSTAL
PRIMVEC
9.20706623278684 0.00000000000000 0.00000000000000
0.00000000000000 9.20706623278684 0.00000000000000
0.00000000000000 0.00000000000000 13.47547209619664
PRIMCOORD
 96 1
Ni 8.474147090644816 6.201714203028606 4.084227035937541 -0.7953422236987012 -0.33221506768322784 0.009865579940170106
Ni 6.71076369747954 1.5387954223547795 12.990098994539835 -2.480558935247734 0.2238232719406855 -0.5551135138167987
Ni 7.626093411171848 7.8372390650314445 6.212125553719072 -1.0920357014365514 0.2361051746318321 -0.3865720451675536
Ni 5.96849921099688 0.6383268345463412 3.4580756260048107 0.3203561114621128 -0.3060713194083245 -0.19432474826093632
Ni 6.20547989318814 2.6156999443836355 4.752502616085177 -0.23039141207650643 0.7111614779847236 1.0326401330870538
Ni 7.78804570923099 7.138312240115833 12.659195186540678 0.4227677783618203 -0.8175547552399983 -0.03489526921528829
Ni 8.675118936127191 3.7016365985555284 8.132016185871736 1.654294310938564 -0.9854691318282061 -1.1715979745419114
Ni 4.450640657646448 6.833475478521738 10.413346782461474 -1.8577215357214005 3.154847965686141 2.0245128544487585
Ni 4.929408110692236 3.2660226657486953 6.938911120162104 1.252775157542875 0.3336520572400706 -2.246072527166248
Ni 9.348947298023518 0.29863856449043363 6.91825322526982 -0.7638595797093877 -0.08895502717416938 -0.40922037869468875
Ni 4.064312151304117 3.6855702676792803 3.6570412517175943 0.6423412738872164 -0.8646933605990141 0.47006579211683563
Ni 3.3043424761251674 6.886139898356774 1.1487224021056457 -1.1506699661399924 -0.6024074138067561 -1.8748389121279776
Ni -0.38430571385321305 2.580805162709721 5.917740653907621 -0.1305899291061364 -0.1798008436131484 0.1027471958622553
Ni 8.266849990542397 2.2206983814880514 3.503259304386007 -0.46770294831161385 -1.6047470961380557 1.897785236511506
Ni 3.774427665551298 0.408190685520355 0.28396710417450166 0.48000156317330883 0.5379192614256993 1.4442048436442032
Ni 0.6059538683606817 1.4461447131240148 2.17092590121074 1.9046595950338356 -0.04960197929784361 -0.8550378397871211
Ni 0.8417026450669893 6.842562853063202 2.2101120965358967 0.09095020322732723 -0.06335686699009088 1.3519145814492137
Ni 0.9939764749214829 7.3603866817978405 7.809143701897421 -0.1610094219382582 -1.0680349676465801 -0.3246796785381312
Ni 8.730775652543764 8.82087600438042 3.5351553445319013 -1.3127988463946747 -0.14452813645378337 -0.8743393683292102
Ni 8.968041753793571 5.971141639055036 9.354255171805843 0.2656774889723102 -0.9400475091602972 -0.6752231122169017
Ni 7.604668567648049 4.553281033926342 12.057569560096859 -0.007866290121954193 0.6044768947412751 -0.3288608064990143
Ni 6.621565638150548 6.614835272608692 10.55099794945198 1.883335379634763 0.0853300288270724 0.010630740240968788
Ni 6.033022332361204 9.228703010777789 9.357004401834294 0.5257538297077591 0.21154908255902274 1.459666943835544
Ni 0.398556411234449 1.9492188214782808 11.262071657075348 -0.2170255322925617 -1.0666170042531309 0.3942935821815274
P 8.452427620996067 1.1340251620037805 8.804954224446725 -0.8032524796847134 0.8460816590350977 0.0628318477245563
Ni 4.816511062437478 8.222628450600494 7.569509543168318 0.8562909954679317 -1.130668326207085 -0.02328545289050183
P 8.014769719447385 4.05411072172768 4.464086657423912 -1.0505887471456745 1.4017667290846503 1.3127299408299522
Ni 6.239214584495058 8.320748157275666 0.4276829658058019 1.3045638600793918 0.5607897382659698 2.018585947441362
P 1.091396444549896 3.2337334838673186 0.9115548164663696 1.218684900727385 -0.1807647501883145 1.1164292997895675
P 5.414510025424475 3.0848736342356977 9.098274787381788 -0.2057342756494586 0.0866196941727734 1.0532480391453927
P 3.7970678418405206 4.6166072366580515 5.500660545773504 -0.6730338178750667 0.2922112735967806 1.0685432747415662
Ni -0.036252823968611306 5.473729876539677 0.44114922112935506 0.8659017790848184 -0.5612332535612915 -0.6385545531512744
Ni 6.699098344344751 1.6341345949757242 7.262161093859013 1.3924919886509435 -0.204977342878776 0.83333361534081
Ni 3.2566774933478975 6.582813095653053 8.229659887213783 -0.755536404555673 -0.4761371951218962 0.4276389904111925
Ni 4.7856121475832145 1.8347197436690998 10.973373962182098 0.8967290488783202 0.027678439751874916 -0.7173097569743065
Ni 7.158107432885995 2.2577384096342668 10.948888689785369 0.7136986425842805 0.13633891577477167 -1.7051005949571538
Ni 7.5563498831560425 1.281181704350527 1.5791499944066965 -0.6653490476362993 -1.7639045524692396 0.3219298837071359
Ni 1.095705351627308 7.485252916378744 13.440139479696235 0.9816016784529997 1.0201342873105594 -1.323714979086546
Ni 2.0168263100881885 7.170555386665185 10.078831042311743 0.9345170662603712 0.142562013866348 0.21397980348770243
Ni 2.7341856819460633 1.789706396016391 6.303502925666063 0.33374487406419295 0.7954155001387978 -0.9323604249286845
Ni 2.575575548991837 1.9315044257155864 10.202037242819873 0.14970556688966474 -0.24621629492390498 0.2278143953779496
Ni 1.2907846746106568 4.004401770208561 12.457912142213825 0.23894572940442074 -1.7649101109156184 -0.5742854587595593
Ni 1.6982433983518361 3.138781008035372 4.003792262412568 0.34395189650418184 -1.2895100510700628 -0.13741955043346013
Ni 3.324119254762521 4.7731826079368345 -0.0808398844467812 0.22287582042575163 1.8732965073415222 -0.09840717372600472
Ni 2.579773971272392 8.933312699314941 7.382052750461443 0.6575832876479513 -0.2483140579931982 -0.642184436594378
Ni 9.253377948742456 7.917690411275946 10.853859795302263 -1.1170286239364633 1.360526491487941 0.881590650574985
Ni 1.1191925780257657 0.14571287433448538 9.224877474686624 0.0038000904723805517 -0.9094750356900788 1.681227387883982
Ni 0.5884337416991273 5.790545031526323 11.455337187976966 -0.36203163682402806 0.24815747781067587 0.5789586958655125
Ni 8.65174219452559 0.4019041005792076 12.938151805177727 0.7706609189019373 -0.9695367768686658 0.5900455498072935
Ni 5.709624124895179 3.9476770340890392 13.752797644201145 -0.5421330423967309 -0.2709760183670881 -0.9499655396049576
Ni 0.6326755371871199 7.726892374170795 5.286104594517595 1.8481560035201525 -0.3151421713613411 0.21982957740026013
Ni 5.207581207978243 7.942678389498375 5.123051131316448 -0.4510951645516038 -1.15407179273269 -1.2984662318220863
Ni 1.2208017628683292 2.0565548016245843 8.09955391114195 0.021585439480259597 0.9847528224874719 -0.7649893224384567
Ni 1.0564924558095772 1.0154565608437103 4.688467469240303 0.09236405285571835 -0.6592930712502064 -0.32748603763867473
Ni 5.462948401779742 5.878389652093819 6.240626027774903 -1.5514429853982763 1.1137466107510818 2.313639061362312
Ni 1.5963303803179165 4.0701770526039285 6.406994034881753 0.1457280702991555 -0.4386713369659542 -1.462502099291494
P 5.309236428152831 1.8098790785091472 1.2079625087669381 -0.5468497311461098 -0.14290139948363775 0.3104043995660396
Ni 3.317039020697286 6.5420349985465185 3.403190461752954 0.9521517486229989 0.981718149426206 1.5782544491641657
P 6.9440431389761 6.101182244955396 7.929493870406806 0.19461939668321965 0.9042225290418878 0.9632779404431475
Ni 3.5876162881993934 1.2026362208518036 3.760343616071987 0.7495881573920381 0.0478464300593176 0.7171274657601714
P 3.3334091847648897 6.886020206493512 12.34180735202366 -0.9527269044001785 0.049756502597836885 -0.0008996289961339346
P 8.505819399077078 8.049471152726799 1.188411303256501 -0.6228502550421402 0.18004561263410282 0.4715740012312459
P 7.4029509497868915 0.6518860812405821 5.308742929393537 -0.014619035464755467 0.23410742747551294 -0.4999240131288487
Ni 4.997245775962262 5.420807658845309 8.995228379473447 1.8635720809649068 -3.130746958872879 -2.2249228896718263
Ni 0.9383197585049101 3.660886122648208 9.891104482559207 0.32275777892506996 1.527688563291156 0.7538446186755469
Ni 4.28367050839673 1.3089410095607779 8.195647142501443 0.08322455244829538 -0.44513431898247857 1.3865715094014506
Ni 8.74181492516303 5.779588622504698 6.632506395159285 2.4641776656762335 0.9270644666370679 -0.18748201430749
Ni 4.976842916809388 0.7257341194596139 5.947776866639761 -0.5221735685556683 1.7381436414550517 -0.4468330468411401
Ni 4.666748920298193 8.226624317420145 2.102631565447039 0.41259700847640557 1.6840646002224609 1.5046031422266024
Ni 3.0776368800415823 2.400503181305959 1.9064289803623136 -0.2663925127614638 -0.3894627364517873 -1.7441759636920606
Ni 7.221645398145014 4.338240790977546 9.557627299499929 -1.9663570720436327 0.2168355277689427 1.3893866102527428
Ni 6.063967282547491 5.3445547348813625 4.2100342327050075 0.2827969222614162 -0.960688068228784 -1.3579613018639258
Ni 4.994538898439272 8.731254419996809 12.132304238810665 0.21977121335849892 -0.4125209038228315 -2.5693838646019427
Ni 9.148822502650379 4.195871923161256 2.655045421957595 0.48820569625065596 1.2456693997360289 -1.3398152270825185
Ni 5.314585733733977 6.256892151992134 13.041669614885992 0.5973878491049776 0.20288883578086347 -0.156412289485879
Ni 1.6242646197898571 1.0696861819675505 13.470392058488885 -0.5254203576277403 1.5520266258158883 0.7340057295727487
Ni 7.1375388465378355 4.35511734369741 6.622885010766345 -1.4977056437758205 -2.4286079961017397 -1.2831733102187577
Ni 2.359476493406497 9.090891640831838 11.702827736469223 -0.06370756546129028 -0.890512378544647 -0.6253449964395359
Ni 8.051367808406173 8.008932439346788 8.74543330226009 -0.6279528663760282 0.6105264433694647 -0.6852211039698779
Ni 8.210079219090852 3.2679377355608783 0.4047941987236513 -0.2109919245039721 -0.4244022286414497 0.13598821730357225
Ni 5.213280382082769 4.321649657316228 11.424006461708322 0.2209078980661034 0.07508701094282552 -0.8515557947757914
Ni 2.27061909553448 8.84692279523939 2.558816846721953 -0.23176849492969118 -0.4850021017116938 -0.021498279083092008
Ni 2.536463930904558 4.805609895814281 2.186799804399129 -1.389809299612458 -1.0026538711376087 -1.0651620169741591
Ni 2.977694174218274 4.930779963586541 10.648183138887072 -0.517896024226237 -0.5225916299296935 0.37898214863543767
Ni 3.5129193584578458 2.769632887604261 12.681227696447188 -0.041389361580064205 -1.8652651523966133 -0.3713955945374313
Ni 6.400642079769131 3.462289700298254 2.3717366230310306 0.1937969007819243 -0.7180363507276859 1.4477822765828163
Ni 2.962723484244189 6.596678937658572 6.023226013706575 -0.324443394157609 0.6315745222890156 -1.450458537863399
Ni 6.541436539230212 7.414349297995944 3.1840788540399876 0.5298051169589971 0.5596849352375651 -0.557399224527182
P 4.85467435268507 5.152384844881907 2.2934176333658636 0.35493384943698225 0.9351454438729895 -1.31271014333561
Ni 3.1804798117823796 3.4000591384687064 8.170232877104475 -1.4535348627958775 1.2786733654658753 2.1432091174411028
P 7.369299122077615 8.994134579984566 11.324652087428275 -1.2845005136706136 -0.1386667925769999 -0.5478964272430693
Ni 1.4404271248866796 5.300784341193291 4.284068253665414 0.14522850495491763 1.7814219925277126 0.8674534398426546
P 2.8073818598636406 8.970978807976678 5.112567044801386 0.051308163355672926 -1.2090928861635757 0.49585729925864275
P 1.618685137548593 4.9798720416565425 8.245251133463547 -0.5914159477922589 1.7174807137890615 1.4071233654108735
P 3.8841574829628303 9.14370337372935 10.151625792134073 0.07160162349738636 0.12338801204105847 -1.0159233345530052
Ni 7.246789896496322 5.580448983236864 1.6081227909690905 -1.1376221318170987 0.6701842642414135 0.0362281290940989
