# total energy = -381168.90070140595 ev
CRYSTAL
PRIMVEC
9.29680078013399 0.00000000000000 0.00000000000000

0.00000000000000 9.29680078013399 0.00000000000000

0.00000000000000 0.00000000000000 13.60680767674895

PRIMCOORD
 96 1
Ni 2.2563056082961936 8.430924456652992 5.559156705324043 -0.8884248998879989 -1.2440542327301092 1.6730584789199443
Ni 7.0268193695419745 -0.059109058033462294 8.337026770881055 1.29755014776572 3.699838789246641 0.9499388001320801
Ni 2.1550634500727894 5.906843101496493 5.97200065798176 0.8246880238506701 0.17526721740885298 0.6858577091126123
Ni 1.5558846532409798 1.3812256609046074 11.191775799083855 0.04294822142675184 -2.290623317193429 -1.559645575813727
Ni 2.380538754332865 9.206556528331468 9.278617888921117 -0.4177243024006419 0.24085657327388843 0.9743249422859285
Ni 7.547886447972219 3.6459262801168464 7.3875714892375814 0.6466794962512541 0.15408158447017334 -0.41872369019943373
Ni 0.019309454786961496 7.040420588778049 0.84349313776993 0.4031037242739896 -0.1183476214036736 0.8824895082401706
Ni 0.8174509400091035 4.363425457821867 4.353293804559069 -1.3159733874679143 -0.15074146435334684 0.3657977887346797
Ni 7.011024105371033 7.435767033080185 7.303249508054269 -2.2324986451365554 -1.7857041648428345 -2.0153630696286906
Ni 5.279281172519959 1.7228458947041678 8.278871564586227 -0.29330142133716586 1.6354380974640093 -0.11992962117881281
Ni 7.180197985370232 2.428547432483982 9.40569213721243 0.6755303590446753 0.10019074798898875 0.43300951069448657
Ni 9.235218564493339 5.840324493407563 5.793886974553026 -2.0194737493629544 0.45234754890146617 0.7635294500634785
Ni 5.122927580508829 0.3914176163806296 0.46546756261251554 -0.6888738702311168 0.4834638106902965 0.22360909904735038
Ni 7.375672514186145 9.204873807428031 0.6988739674401196 1.2402364016459155 -3.208120966077668 0.08727558258921744
Ni 8.043954429665757 5.949013388888721 3.456632264320852 0.2208960709915615 -1.080215825983488 -0.15883658265665548
Ni 8.380991340783579 3.3212076297562345 3.0017704918002797 1.2884268453082133 0.5291811102217531 -0.43352733087116946
Ni 6.5370732122370425 4.72744168419812 2.134295327276163 -0.7654894020033268 0.6698420504106464 -0.86960416763707
Ni 5.840947379045852 2.079024918198664 11.67104818086496 -0.272381383355047 -0.5923569715492896 -0.967035864823683
Ni 2.95932037071085 8.225186260006165 0.35077665268240993 -0.5256514998019399 -0.37390756232600764 0.049414288767069735
Ni 4.716713176338634 1.7335558089625114 4.138510750636251 -0.6184037892350124 -0.3282645676759121 -0.16087341058102617
Ni 3.521516494869317 8.66698881676398 11.662952526927315 -0.36422093116586307 2.9451115108558246 -1.2392159308012012
Ni 3.4417871331683143 9.033292056080818 3.839419660730978 0.4420258552604839 -0.3944352499657142 -0.8680432509078535
Ni 5.630867576532146 6.6084168598225705 3.9879788151429807 0.46420650512258116 0.040647598318033225 -0.7482653248155564
Ni 5.094116795537815 4.13046622910175 7.136607146850682 1.3910681117202237 -0.8608788719489304 2.7521993266716986
P 7.043934779394068 6.536097048177037 11.11963262664918 -0.3571974486601784 -0.37379160557343366 -0.7307617687141544
Ni 1.4247904683825572 2.6459438170474425 6.093196539271729 0.14891598110883386 -0.04694371573939012 -0.816602161518742
P 2.630604096104502 7.32383355419958 7.778712060961181 -0.3226937584563539 0.12109124558708176 -1.8739657654944049
Ni 4.165208372837367 5.217838617543056 2.2574509741266 -0.5053806653680457 -0.567994483544525 0.18771238515074123
P 7.299178439084018 9.180395331523327 5.956189589249846 -0.5292317609540305 -1.540042971091451 -0.5732567603847288
P 7.091069558291465 1.6078816588372609 13.324575271148067 -0.608737726900158 1.7084854522689867 -0.12458228945947578
P 0.8089053209238002 8.607015156277372 11.119183591181578 1.4388577203996769 0.9654397239811566 -1.6773812746650145
Ni 3.1587925237724996 4.366316762799597 12.548483937521357 0.8297890925226613 0.2330147086319664 -0.7726296125925338
Ni 4.649571682611413 6.752052428651918 6.608731091681887 -0.41295336337455973 0.3497289081972751 0.8006212127094534
Ni 0.7053426812777548 3.0948119422395823 9.627823382306946 0.22976200602262362 0.8922224192572182 0.5227975752929125
Ni 1.370943399472552 2.092905041451882 3.245482400061368 0.15573891756793823 -0.17576781119435536 -0.2740605708296829
Ni 6.759833850730247 5.484433670730782 5.706082411875637 0.41213009614231605 -0.32847899767956334 0.6436489369550463
Ni 8.170483885443584 4.72304429752781 10.118430423344796 -0.6387841526635772 0.1984256578031873 -0.6396868669835047
Ni 8.218436782791272 2.7838804471264735 11.60687887428044 0.37617527531426187 -0.9685615574395899 -0.01780154695779515
Ni 4.328813469294251 2.98126082005954 2.208697622249708 0.6936640925309085 -0.20277750701397979 -0.372408609182978
Ni 7.523770547289803 6.269167310168738 13.235259978377812 -2.8732345222098647 -1.5029134132290052 1.9517202959670645
Ni 0.2855456514726289 0.5672489352690656 4.899240050998648 0.3154442759827922 -0.14714063437596592 0.015130427883535231
Ni 6.607793974184281 2.2029605666170484 2.21468476181774 -1.3146351282724649 -0.5988050411674785 -1.877294829867638
Ni 5.099666985478989 5.5711449296609645 13.773898939568209 0.31288628544762886 -0.5075951565208613 -0.5323363680212831
Ni 2.8939545658927823 2.4706898294744954 8.04605922531514 -0.08390538056540388 0.07237372577672052 0.44017106143993223
Ni 1.2354146407415336 6.139095773373177 9.150877060028826 -0.7074848004640848 0.6732109668828793 0.651092023496653
Ni 3.2856752579720423 0.8621806365986595 1.9496785318476795 -0.7581486453675395 0.5046257894798922 -1.1197822754222004
Ni 3.5803001648827775 7.224032400064755 9.619305653623357 0.9658009639753175 -1.2631377317241212 0.8429783375194255
Ni 8.199861775249458 5.780434504126097 8.072660160790312 1.1549804205898884 -0.4019832375163013 -0.5395429130720515
Ni 7.415379149426932 0.2871419121307518 11.730931662386025 0.46826164902856127 0.4636532037222724 -1.0131187752246746
Ni 6.180327083907686 2.1144271347748553 6.14525583343184 -0.83181409337249 -0.02801396871442272 0.7378027347213358
Ni 3.238503291872359 6.5904461443179025 3.8610272846192086 -0.5361025199319348 0.49445219138100005 0.8612174862352716
Ni 8.061618350751568 8.136922435380546 4.018756803114918 -1.4537176682306447 1.1123224767100457 0.3202512104531323
Ni 3.827204594460112 0.8649678174099888 6.297992040340607 -0.4876487953059214 -0.7970052132234209 0.48259426360114954
Ni 5.231848896004274 8.678247242256042 5.235681966879895 1.3883268015296606 -0.24913501123259676 0.235545188363304
Ni 5.748853272584782 4.3570013686269755 11.316250661935383 0.01653090777548766 1.3125481638364491 -0.44632628240805067
Ni -0.15792382162765345 8.078361888580801 6.976618505816103 1.1305510839029302 0.19720104136746683 -0.21603771445799566
P 2.8097720367180417 5.985996061562065 0.2605800232179797 0.9331088730589349 0.3782884650025227 2.5408731587567592
Ni 1.494181787848075 0.573117075789783 7.327727983958972 -0.49007694513143985 0.2513513021576252 -0.9509194188777944
P 7.044027747399782 7.261637958376387 1.7961530265703924 -0.2820836982444755 -0.7420617671080059 0.699147484242983
Ni 2.1352984520578255 3.2967291538515306 1.150999691552506 0.08515442248115657 -0.2796802310093054 0.489111495894377
P 4.76667418260976 4.033091539916081 9.328854080489158 0.34815847838636166 -0.4176122023028098 0.49948358315732044
P 0.20445337880784778 4.534170497117647 1.1486503900480933 -1.2302569218357005 0.17348158626333995 -0.8940779844087183
P 3.7526349570762805 2.8727950477920965 5.904946554179912 -0.6222313905112187 0.8964146029616948 -0.5940981226101123
Ni 8.815588877098499 2.57445142065277 0.6990236459293205 1.1651558184609934 -0.06692324418511054 -0.5818481015981657
Ni 0.7862499476111634 7.081958693731416 3.8746740581780825 1.2362846160870193 -0.1497662449242711 0.20972411353514203
Ni 1.3529354967655973 3.0054603919470995 12.524168155626654 -1.2651447348518212 0.9125583026010929 0.7067070417577958
Ni 6.162904879636734 3.624255437984729 4.210830562281785 -0.6378343871557982 0.8381541766579048 -0.4490295402718267
Ni 6.897119704769274 3.6765592379998693 13.59642580569885 -1.2403297326906704 1.4397277817094558 -0.5954628641681229
Ni 4.498675312535741 7.402828468655436 1.8782698066581507 0.7665052448623508 0.9469390940738079 -0.2669645832148499
Ni 8.688278490072667 0.9017617650317304 2.216848127310723 1.5207021046709939 -0.9279926348782921 2.0993779791887652
Ni 3.6547861310614658 2.4591246095635753 10.791558760962321 0.004016320248244696 0.72751780785556 -0.5411064009044294
Ni 0.6211545740226713 0.594641958152928 13.271032207616749 -0.05023421356520381 -0.5284282912161286 0.10839256707349074
Ni -0.07884802500682611 1.0218950220163798 9.222639993320128 -0.2223896248179525 -1.5481653430882691 0.19323537185149947
Ni 5.94592685109899 6.139969672626896 9.090054601650039 -0.2910817879780277 -0.7907114097949093 0.42965807772375036
Ni 4.323607260974223 2.4778204755128193 -0.17680004550798406 -0.03871001497568818 1.6069104223379616 0.14957675462128434
Ni 8.43267225516043 1.3150510344368211 6.83203280396835 1.0973668838414778 1.9248160153770526 1.3568629265934244
Ni 8.609571776434528 7.779200142991184 12.170799554944917 0.9765489465204409 -0.448864218338556 0.17579095112280693
Ni 7.1571233263518215 1.2796674114617728 4.30006404320701 1.42595155386097 -0.24800475428289542 -0.658440493441924
Ni 5.888240203552964 9.210805166192635 2.7314576480640187 -0.0458841641266242 -0.6231487601191655 0.4121707195722643
Ni 5.574398809860983 7.849232941696133 12.899851866720114 0.9551020895005744 -0.6919442816263245 -0.5299588689280422
Ni 9.056896632731803 4.906860638427089 12.204693830468413 1.113555063565566 0.04141224439819965 1.3558727947660134
Ni 2.9010201343271067 3.9537526438390818 3.8419632653673346 0.8463917340763488 -1.0848188719731382 -0.11357282572284956
Ni 0.8580575055452087 4.333638508790848 7.661163314535402 -0.7102189115657963 -0.21432381709068252 -0.8131136887495094
Ni 8.466317376428611 7.715935415102271 9.541270168986477 0.11901070890896921 0.06711170604683281 0.9331307274358058
Ni 3.041011357332434 4.88416714823211 8.312221977276293 0.8092290089831226 0.7464691521470822 -0.01691940146315796
Ni 5.9802878260111765 8.410936335424312 10.223038953055134 -0.4387520696052185 -1.079382017228283 1.1844432059356957
Ni 1.7787940405433273 6.636874366371867 12.148198103075595 -2.8972473401846943 0.6170146221969696 -1.172507116619742
Ni 3.9309754824389582 6.574660176947532 11.926475917206224 2.5179044657757284 -2.031788047953933 -0.4958575563689589
P 2.9361248532850106 0.9701304364343857 13.170260467502262 -1.3959647776908926 0.15264716601649195 0.19949317983575318
Ni 4.788651819160736 8.74511912876669 8.120039445542739 -0.8144403779807329 -1.2499837108406666 -1.2279809813173304
P 8.091451783785443 3.372888544133085 5.099667915159046 0.6321064835330856 0.3603437075986439 2.088178768038836
Ni 4.30749590558385 4.916241110203711 5.355938871312145 -0.31716665799053767 1.0364687628045248 -2.788439797060972
P 4.4490303974840435 0.6188238661194014 9.866295613765947 -0.8135451198599731 -0.049360552710998866 1.6087456757744873
P 1.2892338192498245 9.034640092163682 3.1432129453748154 0.21430427670665672 0.9145894740985087 -0.3904364132189663
P 1.622347480526482 4.682584621440735 10.889895669007139 -0.2356863419268586 -0.03138905583424271 0.2762251825811694
Ni 1.6129856023510025 5.441779949708838 2.3162597455016036 1.1216342410292746 0.874810394428358 0.0073839511688969595
