# total energy = -340855.1176226801 ev
CRYSTAL
PRIMVEC
9.42962816116235 0.00000000000000 0.00000000000000

0.00000000000000 9.42962816116235 0.00000000000000

0.00000000000000 0.00000000000000 13.80121397528174

PRIMCOORD
 96 1
Ni 5.816251303460082 3.862432322975248 4.535492786941764 -1.737242726907337 -0.32265339213672173 2.9551490975974852
Ni 1.2689073596907448 2.885862299351061 2.725408687430058 -4.005282759483611 0.005526843355500158 -2.505231755404066
Ni 0.12460405111015761 7.174494961515275 6.14820627979985 0.0359753896533445 -0.5232467470151893 -0.7573821995151602
Ni 9.370796833328138 2.0587613136596215 0.2997075335334836 1.5302828063808935 1.5379981727472802 -2.117248945931915
Ni 5.431315017642747 4.754758047508452 9.747797143981497 0.7818351903512019 2.634653118123398 -0.04386841924817607
Ni 5.9858903162927195 9.380075587559784 1.1556518662206137 0.3443110796158135 -3.2522462385316566 0.48672859748449726
Ni 1.1223803657826663 3.51632724643222 9.854632946515748 -2.5379531568964873 0.1385420940736775 0.683579711711713
Ni 1.931272739257329 4.1801447887545695 12.034037867406166 -0.9596398294699279 -0.7639567674088843 0.9497390254164482
Ni 4.540658337315845 3.419466104696987 2.5843188171906455 -0.7522867872701238 0.21546101601891923 -0.864127460793215
Ni 3.8594902789505796 5.518906834774619 1.1200899090724359 1.2805201888666269 0.0939203415992447 -1.2816334765354638
Ni 6.946382823692355 9.3113430269963 3.2960615023045787 -0.48570452709535705 -1.0466302767185587 -1.0487956598009938
Ni 4.942256776311351 3.3358535907010456 11.790004745188217 2.4036112169470862 -1.7816029981902672 -1.7524196917580916
Ni 2.5350235494093685 6.98513859594039 -0.2065569505280809 -0.35325363352108197 0.573588946913167 -0.08846831734573796
Ni 1.0289987568843009 8.017154833875633 8.220348235994742 1.2554097669522442 -0.11996767350559984 0.9891326967227224
Ni 7.070674754106307 1.5960871722673968 13.720476909004217 0.12434549085832135 0.6872052242794423 -1.3192523153295022
Ni 2.8801102260977034 9.431985691264268 9.409143359708638 -2.6002383880889544 -1.7695190704425396 2.9925725325512653
Ni 6.427677831035456 2.1049759218804525 3.101630110787142 -0.3050549623286682 -0.6612411961155128 0.41384425061994534
Ni 6.517966521856605 4.755776447363145 2.6721906942825564 -1.1167548014497863 1.0601974738800322 -1.9682540319560293
Ni 5.884286071530537 8.05985219074646 11.540658027432125 -1.451182817623933 0.3008869469939076 0.04383859445150515
Ni 8.743585108005027 5.870358510554784 8.399183965292952 0.6589940519525489 -1.9887539516815944 -1.5185650037233331
Ni 0.13021373697642416 5.492117260819224 4.237952181987988 1.095695666786642 1.1199545393340067 -0.24264786084635628
Ni 8.04955503666012 3.7449580138107685 4.1471957816039415 0.8849937627192629 -1.2899535663653847 -0.20631765895675436
Ni 6.860130013776841 5.725660864533839 12.962969408938608 0.08701204451518561 0.14042619847026783 -0.5703012773008307
Ni 3.2473282403690398 9.559285673100876 12.164390219918369 0.35471633410953746 -1.3598451491502 -0.8000447713806931
P 3.066185081029688 2.6402770603175334 10.757467048808858 -0.0033707162444458075 -0.2664223375581347 -0.13310909598356432
P 0.3527850252195504 9.281337949795997 6.349496782931209 -0.4882807724629656 0.5522050819207522 -0.059702300956639115
P 0.7971543721864991 9.175245201970538 10.397793680127705 0.13459365094889078 -0.1675189409220018 -0.3060996015430987
P 7.556338329255395 8.130300943657668 12.946243134288107 0.01499930162230965 -0.8401064152882693 1.5070505753258303
P 5.356679509773358 0.7764506803257244 12.56659875586386 0.18219505487693782 -0.3736609935328403 1.039492380122197
P 5.435058580071572 5.696570461277103 5.635160007076294 -0.46128521771072817 1.0141058217282923 -0.2511247879691159
P 2.9406767285670763 3.8874396971849285 3.9081037846069093 0.4878501126834502 -1.5353931310242652 2.360352149148135
P 9.16809754373112 4.27376213836004 5.9602615295791095 -0.08720564858323046 -0.21528129590794534 1.4308615895680776
Ni 1.7189552288104346 3.3763821330665085 6.3259660885108335 -0.31932972708012747 -1.1579559582784444 0.449831981568464
Ni 8.750195277432246 0.39068458721937976 8.626834994292773 1.9241439290106925 2.1812678719860368 1.406393172113068
Ni 5.168134092230914 7.2425391592140125 13.695759024382863 -0.5374587768495132 0.37983189823024266 0.6881920136727439
Ni 7.072919005637945 1.6341828705355377 7.449136657143716 -0.8134774998468313 -2.4593853864939126 1.0661644900967444
Ni 1.855430238967563 1.9377414642602857 4.470448154000228 1.0621450845247062 -0.9139551829486195 2.105865643795638
Ni 7.418788341473868 8.91973999398204 5.467474813224143 -0.7109059103304917 -0.8023929598978955 2.236139584323252
Ni 4.847856767558292 1.7122224742155205 0.9102014708715495 -0.18128694124037167 1.0312900468170627 -0.8578663103748516
Ni 8.69326861148057 0.9271946040024941 4.390180329156689 1.2281005376143301 4.2845721828124015 -0.3349196110985845
Ni 5.16270262633922 2.769849582570632 9.137301320717773 -0.3975025760371283 -1.851063664085251 -1.7536867313959732
Ni 8.489070010986367 8.803189788389412 1.0745250022403856 -0.0380276441966829 0.25690694186853175 0.5717076707300541
Ni 0.5232915638543322 9.058430966785954 12.88869128398119 0.3117177190608244 -0.04990974034624953 -0.8270876344310981
Ni 8.155883525192683 8.395226350302075 10.92744269937124 1.5008974112402411 0.5096582096974772 -0.9845242514164334
Ni 3.556638907347146 6.690990771243267 8.207126954177475 0.1652201175854961 0.11799975114595163 0.22523583601749597
Ni 7.278909235506146 6.877838855694555 3.258260008438905 1.64092637427209 0.8296276272441325 1.3523107884463679
Ni 4.910035736464262 0.9648961438083553 10.551897380362131 -1.141105462380009 -0.4342135583049167 -1.0500053638383788
Ni 2.975462627307465 1.5985954533909923 2.20417844031865 2.3659209014851643 0.4445236819816732 0.06487818873062375
Ni 2.0964798267963944 4.828629755486822 2.3793979071698717 -1.38466683617957 4.131465560660988 -1.7697206449303846
Ni 5.689243640100284 8.059144968625146 6.833794947904746 -0.4479098248450867 -0.9577883780834859 2.202770264834187
Ni 8.708752061123217 5.375859373703407 2.0812509771174224 -0.04203702246639212 -1.2947263051636797 -0.47041340526424147
Ni 1.2371200827447295 6.3645087511596445 11.51799674473955 0.2859367534419785 0.7494688582053545 -0.7921550842199712
Ni 4.570408814552475 1.363250790674098 5.040148576418045 0.1330036807539516 -0.10619864474596548 -0.251050997308387
Ni 7.599658041592979 5.9047860834203725 5.510506921899059 -0.7128622627259142 0.045387426995863775 0.9472111167882721
Ni 3.7850905117882947 3.3524308772246574 13.595534334238657 -1.3672684381974645 1.5523791240593006 1.9869796333899912
Ni 7.4884261463526345 3.385481724360755 11.338704621432386 0.521604583426076 2.1745927739587065 0.6933033667573801
P 6.706304487576797 1.7742977172103644 5.422138103396571 0.3193143004611597 0.3846779134686343 -1.8724858385147687
P 5.6407187729498265 6.879187292539195 2.1020489652610386 -1.731494254459334 -0.1127269327827865 -1.6733482422462214
P 1.5610749624481874 3.8573308940734994 0.44888708187790555 0.19069229371467158 -0.5192371116351638 -0.4902607790074718
P 4.5092293862446295 0.16525895049462827 2.961823612957208 0.14077175473514464 -0.1079469948956399 -0.22025689474566584
P 8.979627563214951 1.3066824505972228 2.051440150259774 -3.0735923640387584 -0.5455770350812733 3.266450812166813
P 3.3394179901924708 7.8483739172168585 6.441206518734788 0.15860595470308816 0.8970149555498552 -1.0192097186137608
P 8.676776191611516 5.567299687129097 11.67274920339993 -0.27371090079974797 -0.05259268649505136 -0.9271652538809902
P 6.556703434848071 -0.12633721678879234 8.765799426316928 -1.1101627500545657 0.3295830293770195 0.566576777261392
Ni 9.25260587241406 2.652648732626395 7.65498167073634 0.45706320920958055 0.7257026090236921 0.31153439940542477
Ni 9.289909481906328 6.651424050962792 0.10759111575981622 0.07615376164444303 2.3870671965454764 -1.0751625798302966
Ni 7.300701106470916 6.323801045856783 10.13370751040059 -0.3970024964722582 -0.044779103987903524 2.069921107380229
Ni 2.2531531007382646 6.463859314761905 4.560307796734447 -0.2889919953285346 0.8674287572523062 0.9336374918688953
Ni 9.205627464302209 8.3128868361245 4.051180477525802 1.444884643320047 -2.957410897048468 -1.344565083062678
Ni 7.783271763542788 3.195323840381714 1.614093047476064 0.4591344899163125 0.14636904631726405 -0.5798650097298658
Ni 4.247274312509742 0.5962429401121646 7.985299663605971 3.2097320193185306 0.18969419146746042 -2.031345818210192
Ni 3.8513430801130366 5.1928774368486375 11.437217834043011 0.0467987055210936 1.237677639779804 -0.35635901191928304
Ni 2.3218102242754752 2.048605603997545 8.529564606690005 0.2132609230438069 0.22229860776604296 -0.30271705822411094
Ni 2.3898921404873503 0.805195959187259 6.388471322555437 -0.39352765054978034 -0.8141981800629396 1.3184347045242133
Ni 3.4291691922014222 4.717671319466721 5.834904994131874 2.2537272154980283 0.4460720003053995 0.027725748050042572
Ni 3.022950235346662 4.3105188294118255 9.02963759682017 1.5729296945171427 0.7740092665488799 -0.6432067072113051
Ni 2.856790755350893 7.820594232291625 2.589825720108614 -0.12151367783648104 -1.2864170139670361 -1.8060325919875415
Ni 7.019292709585738 3.8240537358585813 7.413833071810524 -0.40846961657159325 3.8704911335913024 -1.6382452278955013
Ni 1.606488052264862 5.606668385215604 7.105196623254738 -0.47540083117650384 0.39034385350516 -0.6078663800387982
Ni 5.201712998550926 7.833550541554106 4.608957134978256 -0.5030641014197271 -0.09938162182413209 -1.132973577301494
Ni 9.024531453104279 4.5599985049267255 13.461165903040216 0.08429053181896451 -3.2015605392513313 0.5565839277147383
Ni 4.184095803005647 5.841022936962658 3.3764943456430903 0.9967585886990963 -0.2240590421005754 1.2170319385049941
Ni 2.712913486990673 9.044116791050548 4.4165814024267736 0.4886780079013842 -0.12012193969527699 1.2801203823250469
Ni 1.2480961700675304 0.43218721018659945 2.6912781478554204 -0.7886403861984934 -2.543405181149994 0.2546001481122261
Ni 7.228696464892817 1.2478604293604256 10.747281164336272 0.5895308149544041 -1.0285510506193447 -0.7247194191748164
Ni 1.9822210208768252 1.851432076575065 13.054030386316233 0.16075256873244573 0.3729189731604933 -0.5866483512002864
Ni 8.109678346600138 7.9515529099025 7.934925646348982 -2.6972947042140194 -1.4748739905932857 -1.1783445492371256
Ni 2.6795326028646294 9.309447671711176 0.6340406621265247 0.004167244003812178 -0.12874979057360408 0.11539830896736254
P 6.117235608663246 3.7941429549411203 13.800095975421803 0.04303898136834523 -0.7260833894018786 0.43681757158666706
P 9.171190461808337 1.5954742464289242 12.031677631446632 -0.3344814951199014 -0.14857402438838285 -1.1125433344716
P 6.471186135938723 6.154633514438356 8.199701121903672 -0.7028020502764347 -0.3279154118666095 -0.9555882851083736
P 1.2917082008819238 5.760823948405595 9.185038813906502 1.0409656222336137 0.12857598399990114 1.4181060896746223
P 3.8599429011082207 2.617297056188954 6.958531013810882 -0.1993060035256116 -0.029621679521174792 0.28456944078080665
P 0.7224915183950855 6.865627487066526 2.0348232592973683 1.3308047960537919 1.8206709107260062 1.1066861043598748
P 7.629361370688187 3.0326816117359496 9.192354319529379 0.4283059345712302 -0.8721287338311366 1.3647572417398368
P 3.471489363940881 7.219408281032886 11.590549247720961 0.4307117157992453 1.7172611415790875 0.8266569746515828
