# total energy = -340872.9849513459 ev
CRYSTAL
PRIMVEC
9.20014381773099 0.00000000000000 0.00000000000000

0.00000000000000 9.20014381773099 0.00000000000000

0.00000000000000 0.00000000000000 13.46534044203591

PRIMCOORD
 96 1
Ni 6.194751163522968 8.982210704320357 1.9057361680634135 -1.0776992302092214 1.3249671063260924 -0.8018404298285352
Ni 7.674971484925149 7.482559679405851 4.835403250177258 -1.3850758986925307 -0.34940314942674017 -0.48264568566437516
Ni 5.224329205295468 4.4083408593586295 6.287721375740341 -0.47379440592133243 -0.26953440082455515 -0.4185079746442018
Ni 8.599595127771801 3.3583192577653 0.2223895537790311 0.5768881864897291 -1.0764892690615202 1.9811311450290137
Ni 7.835523192781956 3.5090544122851512 3.33889315432483 1.3133549760084606 -3.0910318996714445 0.7103153279343445
Ni 3.119658329823439 4.239242217996639 10.935310132209434 -0.5305967596223572 -0.8097982512230312 0.04959272332646298
Ni 3.369138626766481 7.7523354933698165 4.4688097238970315 -0.8812216972713404 1.7585710560714682 2.4290571678240167
Ni 3.9629711025744827 7.218000346924599 0.34319664081517387 -0.7348055997662248 -1.3450744185989285 -0.14487369271866019
Ni 2.7694916601347153 5.210354187002276 1.567634566834 0.03471092111862409 0.9858913069672892 -0.717658655673293
Ni 1.62780902677373 8.217743163151047 13.413256598337162 0.7626017960428867 0.8202441291467035 -0.24395063881817988
Ni 0.6505909223887706 7.669405397981514 2.0690837995932294 0.3269139671852886 -0.8569198873011823 0.6549314518474012
Ni 3.0036169172282925 3.059848195574565 3.1908416817247445 -2.5766194631184334 -2.0151998045779487 0.5283550147760321
Ni 3.4633848989162215 5.199056410528254 4.197577527184014 0.03517346257733942 1.0898446073225037 1.371663996161999
Ni 0.7939144411370644 3.0045645320302667 11.447935699545733 1.2927876933800704 -0.06018669679222537 0.08449287763775772
Ni 7.527364379266183 7.221717204982828 2.2405109973278385 0.23760309933359725 -0.0478662275536595 0.37651620359344834
Ni 2.0814957134703493 1.7609719068103706 5.378568694553881 -0.42803365474644994 0.13166799266166357 -0.1636635717316536
Ni 8.236851861633575 9.01016994105045 8.999452693644432 -0.9528212638861976 -0.8392895758139287 0.078505035485439
Ni 4.074099638429297 1.010488584077961 4.379750492770135 1.30616385757666 -0.9332996489135023 -1.9413173554661858
Ni 4.259224930131472 8.167896784538465 9.248587985198407 0.7427713915805207 -0.2064433859013412 -0.8954823209554126
Ni 6.443891055148796 4.542929761670086 8.522604645161698 -0.29801528187306736 -0.18834539074904982 0.7928595664861635
Ni 4.101819671422969 8.706031590335288 6.434884114458186 -0.27044020046827616 1.3083914613555983 1.2759359119300542
Ni 4.831529069661615 5.258498539028788 12.279205484182368 -0.731444910824108 1.0277581224044041 -0.8505852033324061
Ni 5.129926530702682 6.8005622264394185 5.34898563245924 2.23310002616598 -1.0102473672141503 0.5016659355206199
Ni 0.696035032236842 1.2963278489569434 9.288190003791588 0.5872391907067499 0.9011266637253836 2.256466983026695
P 8.01352757325376 1.0147298503275735 10.800737790156651 1.0060690674667447 -0.11119558373992462 0.31642798005230016
P 5.253548861713622 3.892415200474096 10.450612521114616 0.7147098574576143 -0.7086356262390763 -0.2381335179157705
P 5.226049632168954 5.4287471983543405 0.9251830115841279 -0.028753675093924673 0.5934684594459134 0.20501899474998886
P 5.867299648650498 2.6103383741215986 5.044224432015013 0.6322707770250917 0.5216578052615145 -0.6783940537457155
P 5.2100597824036035 7.48415130426742 11.242320767790385 0.9966434032774706 -0.5031880285921011 0.16297785851853866
P 1.5355591858087307 3.3240855230260205 0.2930273371584234 0.608835685930603 -0.6609748298280036 0.09488064862998498
P 6.8554042830857105 2.301517150258816 1.7120234622237365 -0.5933687006432555 -0.12676978402909778 -0.1958607252894885
P 8.250790079351933 0.28002661408396046 5.224780932351553 0.08741262238771397 0.6258016243609803 0.8351043340879875
Ni 8.35728174277767 0.30179231406949897 2.760165474457422 -0.3489799458463926 0.9602566371183203 0.9336236079118243
Ni 0.3097513583917111 6.353748047093039 -0.02266455402585772 -0.6556454471952902 -0.6727916199572735 0.2586833170426641
Ni 0.34894489060423656 1.0824429080220377 7.089474339317037 -0.8447889083656032 -0.6055829833212603 -0.9816052779974257
Ni 6.2527304691738514 3.7713229089829903 -0.013910617287232342 0.13295637245578393 -0.857197566442601 0.6186071634950702
Ni 1.5569219194998376 5.8611263522221035 6.558442044463167 -0.7619993865721973 0.7593650342731438 0.6680638754643011
Ni 0.6846636546131522 4.573998646973647 2.121235734219159 -1.1568802087157624 -0.5659116328735673 -0.2145984109083078
Ni 5.02839374473582 -0.07711468455016716 13.001176641547804 -0.9773148781521878 -0.47352675408224265 -0.41354266021912656
Ni 1.1557128525164282 0.8939154031764639 1.6539475550639122 1.0840891928959653 1.4654691523396182 -0.7462866038226308
Ni 6.385920949641619 8.050962958003595 7.041753193901114 0.05549083397845282 0.9467912556420339 -0.1638137241562727
Ni 7.880042688187324 8.081194630229684 11.60339328783115 -1.2703473620986832 -0.08459520754357688 0.32529031553893656
Ni 3.8408851955628602 3.6578023357639693 8.408431781753745 0.12503891738092013 -0.4203010619888827 -0.8209964339316956
Ni 2.4006946994363054 6.712967658190914 10.342377430456121 1.245421545391281 1.083132999630283 0.7754938215142063
Ni 4.782335901252335 6.585775671421081 2.802594697212222 1.859633665142449 0.50424140955728 -0.7532481227421285
Ni 4.288407785974793 2.0168555037745195 6.343333484415033 0.5135043229164447 0.7743581652478665 2.2054385556949696
Ni 1.7423968166629356 5.022459652043846 8.898651319102395 -0.028437686515402634 1.230752116304564 -0.4403415255795255
Ni 4.936585510668827 2.128830452850515 12.297437408969476 -0.1982863040118456 0.13723983032248624 -2.548828151937778
Ni 2.555965524804441 1.0195139250559866 12.028480407795568 0.4166624367950308 0.6276800723306158 -0.7655724486354363
Ni 3.6921188717966253 8.681596008645544 2.21760723956556 0.36444564558215947 1.4171393548859788 0.4163071103381411
Ni 6.5992998826725575 5.153635301039453 4.276780644356007 -1.79012286273582 0.32963213744740005 0.6831493090425138
Ni 0.802138449598081 8.658733651529955 11.181497697719207 0.4005287644579618 0.06565620454722886 -0.5898745714470679
Ni 1.6932220485410727 7.747937824677159 8.369732297258366 -0.1472537629150625 0.644277828788297 -0.4345136060438388
Ni 0.22150081989679127 1.2273543715744164 12.951933792362498 -0.6682291973975717 -1.132170364673908 -0.3691350806380288
Ni 4.560097229830123 1.7148239859686 2.0575311791384823 0.9043497986483715 0.5671401059640298 -1.1775621625451462
Ni 8.627305960621763 5.206867332536759 5.622371582814416 -0.24170606575837728 0.10964469431303699 0.40956593495956556
P 8.260919437574977 8.500159974570472 0.46891936463476125 0.395304539944545 0.046280114013462235 -0.010450505909362647
P 2.556195528397153 8.960755969192165 10.092124321441567 -0.6487361216699665 1.46488525481169 -0.10226871356394002
P 8.600892348034696 5.739150846934982 3.5198664211713653 0.706707555978428 0.4105776640535316 -0.05747289740548812
P 5.709342381319485 8.398489186447984 3.920999126961994 -0.5588794086171344 0.12808336063419876 0.23255370983514786
P 2.620596534356562 7.022883699155008 2.8374430015512293 -3.187987428552587 -2.284023038268092 -2.4677525275116854
P 5.472181076802107 0.6037207902658837 8.369301730532808 0.5022269502304124 0.04693728798148691 -1.4464489024833733
P 3.1772880300134014 0.6198173616982524 0.5444626646395188 0.012107067676179148 0.4546394302594363 -0.32916753910615565
P 6.743769739326928 5.864714408268413 6.912486574725017 0.5594854176322492 1.7483208390983696 -1.2836150257418666
Ni 7.172680439016593 5.014446326873753 1.9084962111759596 -0.5473865774861862 0.14739054560324294 -2.08766711850974
Ni 1.4041535332204111 4.368863042705512 4.395881104734226 -1.6031134171893744 -0.21451047918019187 1.2959072128456586
Ni 3.7537874350746137 6.506360030929422 7.290889405469458 -0.2486555004930169 -0.4909544626403866 -0.14289394328447003
Ni 1.4924933131093032 0.04178705272394794 3.7295892170925513 0.41888207015416895 0.7892258263883183 0.8857350117606616
Ni 8.50363762889228 4.136099406880791 9.870916066114706 -0.07884133577893519 -0.599997775923999 -0.6675131451671537
Ni 8.727927932361485 2.5941093206198276 5.3993324988895655 0.011499001778535035 -0.34200480008014006 -0.9874702214186349
Ni 4.027454909827268 1.5785974580770328 9.78652866796298 0.22547931948686972 0.5342225293004025 1.4003199693357948
Ni 8.735462850058736 5.395258675255446 8.006517983762265 -0.15499355476148147 1.2461504531375056 -0.48792775999892096
Ni 6.398690749108998 7.148585262644065 -0.19898162814152764 0.3449525698545543 -0.759947389139175 0.5993704267526452
Ni 1.3606736540541016 3.37437350853661 7.0517445499685305 0.0056327728057451384 0.05827456737117707 0.6969610181146255
Ni 4.6119216393400295 4.246363129227008 2.5865302422327763 4.340058131694847 -0.8768731904946576 -1.1191891219228918
Ni 0.8368855523562947 7.32039794640006 4.842756005029081 0.5563113907796419 -0.6643427178589719 -0.8951110536589231
Ni 6.854953476043994 1.2051268243747117 13.252533767807378 1.898580221608975 0.053603644258068975 0.4677278880122784
Ni 8.94517092574999 7.846738167962601 6.967317591198858 -0.12142651743931344 -0.2385819183070988 -0.48929430132914437
Ni 2.6907200297026495 1.1294372420849892 7.980072170672219 -0.5779996743863529 -0.36996271874564673 -0.9203065790879441
Ni 6.738130051233626 7.127038526078788 9.119926735478328 -0.2751777151532616 -0.6893472103231096 0.44577169545616135
Ni 6.940496412245507 1.4941033382582882 6.740385926470948 -0.23988006829323208 -0.17550350178937515 0.1565678412271368
Ni 6.701771083297686 2.3115177064699415 9.21128876257546 0.18698193474261993 -0.5097086033194383 0.3765480852726482
Ni 0.695561224835855 5.460432493286369 11.164881318167309 -0.20471611879758933 0.07838136542338114 1.090417191996522
Ni 4.418249414132671 5.779475076809281 9.314972542141366 0.9391882464837955 0.0291586238418272 1.446096404239961
Ni 5.921608096961696 0.2916666359039382 10.607846657150144 0.592833654075392 -0.22471133097259363 0.1840166814667089
Ni 3.7742209542511636 3.4816655844649853 0.08750532685453238 -1.7131044390982368 0.28998701225195217 1.3175510163676794
Ni 6.753282687921505 5.697943403264669 11.029864609173408 0.42892582754341607 -0.28440977527449085 -0.6009241443930103
Ni 7.61105808658229 2.927099322004806 11.596311017204357 -1.4890479681008226 -0.19062698769437492 -0.33555313091752537
P 8.857346353908772 6.90252741916058 9.89473615819035 -0.09383549519492226 0.19656572177631307 -0.8746059917270357
P 3.05683974858189 4.490212938220456 6.223074725943915 0.7330785897727892 -0.9020018672414853 0.16590917323272072
P 1.8627990973759048 8.819239358668218 6.30200827890525 0.22789975600290424 -0.30032876049759244 -0.5134063638859997
P 0.8303433301651895 2.460909640008353 3.4834025715971477 -0.17527673049054973 -1.118839966113589 -0.43193478957306897
P 8.043602843036807 4.979209776470248 12.584679695764002 -0.002691687899550203 1.4422148097973677 -0.741614395157942
P 8.304353316022745 3.2315044768875154 7.434349086344638 -0.29087995637986674 -0.02816232136682892 1.3989161470097327
P 1.9651322958454058 3.049958041087941 9.45378615044376 -0.03647701188011137 -1.4323335461279139 0.09880286650252662
P 2.6879415863026868 5.898340933522933 12.383790877831705 -1.38171546686073 0.8420766516407627 0.9261260139831986
