# total energy = -340892.8036046752 ev
CRYSTAL
PRIMVEC
9.07394202095031 0.00000000000000 0.00000000000000
0.00000000000000 9.07394202095031 0.00000000000000
0.00000000000000 0.00000000000000 13.28063135577940
PRIMCOORD
 96 1
Ni 6.347630632989134 1.8631161788721626 11.434464271414743 0.4288150129971647 0.11070116060200934 0.8383493233878465
Ni 4.570480978953742 0.39149068300824064 6.036113136243177 0.45048401333016613 -1.050583604939352 -0.22500855049803828
Ni 2.8975546207042027 1.6190362177591895 4.878414268679378 -0.8105122465709202 -0.2853762529528182 -0.2532372063264284
Ni 3.185543386301568 4.239155067206871 4.8572583733176575 0.4319723276792238 -0.22948638376373381 0.21040802697604408
Ni 5.325178868306067 4.716335519826263 2.7964627422416752 -0.42552862893640914 -0.8224048842434482 -0.6585857607705368
Ni 7.225307655876688 6.103623263410749 2.655435538419309 1.6933138867348707 -0.16654063616913256 -1.2840405433150597
Ni 5.107295377237824 4.611268347450817 11.677313806016434 -0.5776849713594117 0.4719185290548582 0.3126471728536293
Ni 5.625753191212764 7.897378230983326 12.222045218541606 0.3743531345038585 0.42160563973291904 1.109458010678057
Ni 1.8859371425585123 6.746566485263637 0.3075612581108674 0.9056379213321757 -1.0599465342114909 1.2523406411086173
Ni 2.7773067436578764 1.6857115422789903 0.5433911913178248 -0.2848941711100771 -0.21934132490993194 -0.722279442274756
Ni 0.3974649663048978 -0.22471707665559643 4.7239204277966085 0.6481815347180773 1.0494176096557088 0.057167193239611225
Ni 8.716764251596084 2.2802089887356862 1.601019906268435 0.8473895792132439 0.5412241574292163 -0.4880105495207143
Ni 6.761583858981692 0.8462049630665853 4.70376085124712 0.18698476295609734 -1.0319197099812614 0.9907838591729001
Ni 0.8646196206033959 7.2849778973086705 2.7090099057341983 -0.5923608282040315 1.4690329584314763 -0.6688058958366482
Ni 7.651583294865693 4.076713360680812 4.0034857427701915 -0.24688298197362643 -0.8372758878180095 -0.3647418366663395
Ni 7.50645466933906 3.955467350033891 12.535680573309191 0.5858554229853459 -0.17223691522296145 0.23302010794860514
Ni 8.046127359297575 -0.2112604209312 6.94421599345944 -0.9938002774017208 0.7985111083449861 -0.19919878852378597
Ni 6.8535936290729795 0.9714834334599142 0.7243092581850941 0.4637815017700206 -1.4844055842328048 -1.8770780858711416
Ni 1.8711556913278706 6.433225126211138 9.008849901926803 -0.2531708718648672 0.4774260891366487 0.9777601932197224
Ni 0.07987246550804245 4.758375092294994 1.236734715635707 0.09184237602429345 0.01112799159236148 0.2220677227021595
Ni 6.226738506073333 2.1118782939661123 6.86134549757288 0.770790502501266 -0.7066000838662863 0.6847631904968529
Ni 3.2840410247967284 4.404391547814598 0.22135608860413555 -0.4339536197753108 -1.2834399336165832 0.7023307670669711
Ni 5.944602432952188 5.729350385012787 5.011738603287691 0.03422421129019267 -0.43980930722513933 0.2833340257118088
Ni 5.377571808395525 2.78838602662449 9.321661342776805 -0.03574013371408683 -0.27423926249939223 -0.35299215232957915
P 0.33966032731184664 5.545140292051917 12.41618129646331 -1.4097271215823077 -0.807172640674726 0.0030835240213301736
P 4.0754611567091565 6.193709357835434 12.842357122092256 -0.1634987640190152 1.4175687291139134 -1.1169193520521086
P 2.535713042604569 8.325024035187694 1.7086459302381354 -0.366760152647949 1.2340274446217265 -1.213182739962233
P 6.383826586923468 7.872869514117787 5.6653446141774895 -0.13309958290186755 -0.1281149852030826 0.7552376423683316
P 4.7370966987186565 0.7894846601214542 12.778769659975026 0.7717148140877483 2.1687342582954003 -0.704298175205987
P 3.999639298831168 6.140753833352914 8.17158549373901 -0.5103413518074308 0.7386599405153085 0.24268257073903365
P 4.784253974375898 1.0619687813248373 3.8285401444112144 -0.041137650580574316 0.5917059682288519 0.2515647037200119
P 0.16211141504367935 5.468302152689685 3.4549695891103984 0.5028825815365403 -0.5974680675236098 0.6280407981041443
Ni 1.5689934286020444 1.0458262388206556 2.707044489935207 0.3346635292237204 -0.041301686962264356 0.2930160288862631
Ni 1.8230365778373285 6.304193673479568 4.751424452858118 0.19128544721398025 0.9347978307255835 0.24430930770917925
Ni 5.883289808050133 5.735275669023596 9.310505838698873 0.3786111384492641 0.1969660425385253 -0.3678248464670375
Ni 8.6236020908932 2.3921723568970665 10.050263482838643 -0.39471704287219117 -0.4943547465711873 1.4901815674846335
Ni 2.304899184437697 5.248377024711131 6.930204919889621 -0.14578206346554246 -0.6298799081954121 0.5960025387216767
Ni 0.39155329320682347 0.2805000414103499 9.123236012555084 0.9086805648132416 -1.3019619036801706 0.9502146795012861
Ni 1.5943369481153546 1.2115799341123275 11.474730795651142 0.3840186826180806 -0.9031742902830318 -0.46448932647032265
Ni 4.209047728236172 6.822116124886916 1.778860999463322 -0.0012328439658365864 0.05717284966656606 -1.0403069056036922
Ni 5.82646878435076 8.00559406117156 7.898908097574784 -0.9712049085997081 -0.369723349041331 -0.5351985200604267
Ni 5.253022882924813 3.1186230653525295 4.734265628869693 0.4303923847866136 -0.43289201128001575 0.5129289100289489
Ni 0.5972105550619514 7.2859941787929134 6.8100024125524135 0.6433429756788532 -0.7737904656698544 0.712371953353057
Ni 4.9291738992405865 4.3938567013574 7.294412982016849 1.0691773087811391 0.7995948283274682 -0.7344389604554254
Ni 8.086978245387414 7.231487010258558 9.176663382012434 0.9680504221311262 -0.11045176359536461 -0.8067820901045267
Ni 4.611232051683523 0.2725866567459897 10.441643463756638 -0.366444164069427 0.11854122547171841 0.3024761458578984
Ni 8.232841860201757 7.0073969429829726 4.805769197833831 -0.992911447038864 -0.6575421499973708 -0.3843511262568348
Ni 7.220834202557653 6.132913947617325 7.110064965140259 0.39319494980070996 -0.30864139412834585 -0.5167436557893488
Ni 2.3697778684764255 5.32153114369298 2.5812633231648507 -0.03888227888749432 -0.9212260055784199 -0.5384841327902339
Ni 2.142657104631758 5.3871357430775975 11.313238223439834 1.4331948656869447 -1.3321093737978282 -0.40774790791422033
Ni 1.1911363431837603 3.272008977938637 3.8329364692247476 -1.0022250111303062 0.19005594568225334 -0.1040998532354078
Ni 3.7082205832244823 2.831832060075879 2.783712946585337 -0.01704075753237065 -0.2816137005865924 -0.4095811044682172
Ni 1.0810603549216882 3.2532440662474356 8.230963554244273 -0.4451073223992851 0.05274849534662528 -0.19361538089873753
Ni 3.649112926185562 2.532056244049659 7.070355580931828 -0.663500938683967 0.18715779819885187 -0.3819247762035293
Ni 3.90785637728547 7.021897102017083 6.01487739019341 0.7855828303190923 -0.2775287318839414 0.29822328411881543
Ni 0.9197165953562854 7.391115794819301 11.528716212530641 -0.6979802034077592 1.7721287401512449 -0.9677321195597591
P 0.1387487370304606 5.361048160334752 7.953743742803154 0.609343478804957 1.7126382980950956 0.12577630976757695
P 8.283111497904494 1.7088228721036953 8.015644359135377 0.38978669545010936 0.013378992410067281 -1.159442827236616
P 1.7705801201551061 3.1416980994099406 10.276061265965431 0.7354180365392432 0.9896152927860957 0.7143715002815891
P 4.029619602616337 6.04318173692376 4.0107775624196345 -0.45277769446034927 0.4112011565701434 -0.9037959830274306
P 6.69006304952809 4.0342473129463725 10.452454158045272 1.9964922008661161 -0.4235972162416511 -0.27789691385663756
P 6.226756653956979 7.87864961505942 10.138858728621713 0.29330270688874643 -1.8392551014860967 0.43043172266498125
P 2.2015651349505587 8.362199974838976 5.735213966219196 0.9099460617892264 0.8955118886417675 0.9099069810211748
P 7.0341650713625885 4.028929983037743 1.4789445373388364 -0.7027092334523124 -0.18171400147546124 -0.025040230798079457
Ni 5.201991034108897 2.6417692746387873 0.5893343735590681 -0.18940057148644154 1.7079838300422199 -0.508538237160421
Ni 1.4363323991410357 0.9470019384198457 7.053608713902195 0.23548476743901378 0.08874136850146654 -0.674754143000283
Ni 6.85223253779944 0.6153684200451542 9.277676317181095 -0.32633444053273475 1.5516592151741404 -0.7840152287216563
Ni 3.0709848707786382 1.6576004705094827 9.311130125896337 -1.9216998383455743 -0.33173015762700936 -0.031661849879655146
Ni 6.526378212972198 2.2241683240331422 2.7434863476929605 -0.46476366317763185 0.24126563578684898 -0.19057865095494275
Ni 4.102891682841894 6.877140508105218 10.538233759680477 -0.982863575884559 -0.2536431835155954 -0.30795619513586314
Ni 8.459082451689538 7.184356956426789 0.3309157695764449 -0.883040238537318 -0.8150625849457641 -0.02209168969271679
Ni 7.566025097410983 3.8681941775745217 8.149473204909084 -0.30565197248271875 -0.4629327806164801 0.2233594449303895
Ni 3.1652449784421783 8.4721035582064 12.46612971662549 -0.5844490295561225 -0.4634847964652083 0.1178331436611003
Ni -0.20905454567388324 4.7590193421644695 10.013661923704795 0.5573943394311756 0.7666620821551894 1.1499297455398583
Ni 8.71902366311016 2.2526332795337702 5.694601724799317 0.02168905493765942 0.8695314054176057 1.9572486819844617
Ni 3.7741881402820425 2.7299226194550457 11.485301937875635 -0.6388399456021773 -0.7818102506505374 0.43505585170055394
Ni 0.9815827307095791 3.3484024941515114 12.253931957503912 -0.6460552324036938 0.45703029908911613 1.3813141176572532
Ni 3.3160811133758545 8.355766550086045 8.099697189641551 -0.7442454050228859 -0.09574479640249317 0.403884311193756
Ni 5.726973012255003 7.599571460332827 3.473363376581015 -0.04130271540352886 1.6355679381736543 0.5028913232872888
Ni 3.3051833092457126 8.23403054658065 3.7234375836626565 -0.09045937963383777 0.5661296624216444 0.8728555846948323
Ni 3.5528746992044775 4.268509269006212 9.361928774407387 -0.8182180998556101 0.5448589259683262 0.23034667488150007
Ni 7.439715827226495 6.315581470468184 11.338073602211022 0.08278489380771549 -0.4770802757614558 0.41568978846911636
Ni 0.5827303586998532 -0.040692092107926965 0.7258246064696351 0.9269631651725133 1.2484515904668563 -0.8368172030140363
Ni 4.580081209403109 0.5218178946322195 1.7485014049099266 -0.3276842696924098 -1.3958490780486348 0.15999486463081478
Ni 6.24526749527712 5.96601693565588 0.20756278963808367 -0.4158983049354966 -0.992061440333743 0.924053447724886
Ni 8.024213789793585 8.798084918219173 11.194801505181497 0.29661248798826984 0.4465635952298374 0.8498745504186266
Ni 0.13152224976214683 4.865565567057162 5.687456903007416 -0.4277451769717537 -0.7839159841396305 1.082637290940787
Ni 8.002989839868187 8.906754445498587 2.567398340058393 -0.0398703538323765 -0.48289122601627804 0.22354456435800213
P 8.65447164097708 1.5433050992994375 3.7679942675932545 -0.20766697389579716 0.6032255388326772 -2.0409612298127686
P 1.8610563940782057 3.3072521679814932 1.67948228121709 -0.32693093646615307 -0.3660135042899116 -0.6455345840135334
P 4.731262154126083 1.0238219298984297 8.157892915527201 1.294237024232087 -1.0391691924548234 0.05125108486549238
P 8.755764053553909 1.3993833080353433 12.431560720460128 -1.3832843540097466 0.5269090263581248 1.0576870487533525
P 6.514391535823225 7.8413829359899 1.2540178526271146 -0.19219587484339157 0.44461367059231816 0.6665291839873295
P 1.7484759978728204 3.1659345980207716 6.185227944412917 -0.07143295913000601 -0.521450831457031 -1.5153747789208094
P 6.867712682550499 3.995138623686663 6.088412614731852 -0.0642950625336441 0.9993134939104661 -0.9240596183724731
P 2.2967144889128113 8.568614003442192 10.285676014721716 0.8080630136994794 -0.3917196508067641 -1.211010672011579
