# total energy = -340856.9260222709 ev
CRYSTAL
PRIMVEC
9.45801370839940 0.00000000000000 0.00000000000000
0.00000000000000 9.45801370839940 0.00000000000000
0.00000000000000 0.00000000000000 13.84275909291789
PRIMCOORD
 96 1
Ni 1.0798025285178652 1.5561364814972047 8.63503047596875 -3.456034703308654 -1.105126730292555 3.199402612368064
Ni 5.981039900664552 4.772844833741616 5.252579888511782 1.2639095768931394 -0.3877886911834741 -0.08876425131960197
Ni 6.752624672899218 8.357460467858502 12.633760518763113 -2.190998983230872 0.30330352685520023 0.012277531815772404
Ni 2.045040134921505 6.7315049279078 9.09149503339145 0.12743415708597408 -0.025324851918033808 0.16325296655679628
Ni 1.6169798847796957 8.847517998976016 13.7032661075711 -0.03785538028487674 0.5212495140795023 -0.1135309167413206
Ni 6.858053153606497 2.679682324204643 4.848925097382897 0.44637076249274094 -0.9834171343951836 -0.49967410190157174
Ni 9.068646363462982 1.9886419981620622 6.263945174403847 0.7500807807577404 -0.1426787419498704 0.13118668214987086
Ni 3.998630733648636 9.17029163861873 12.276049921653403 0.2598349141486041 -0.739502491021262 1.784353564352211
Ni 7.39053933498443 5.729333777307342 7.623622629014231 1.2352276355774146 0.35354133996482984 -0.49590949265281686
Ni 9.152434908415506 7.6439384428259505 10.557318831962517 0.05925852855100117 -0.01598917633940472 0.7984517158619604
Ni 2.4477150758125434 8.73118442826645 2.4224687993657916 0.4428984876734243 -1.8856092632706043 -1.507635758405339
Ni 8.072594547842126 2.0730263979889525 2.0139412394865355 -0.3720741086616947 -0.13553030383054723 0.3982384257618883
Ni 0.02723435096408094 8.611691880921358 1.7804276058252482 -0.24638907305634342 0.25346089230146024 -0.3934582307644256
Ni 4.597635126636355 3.692588320557568 3.5368526640288103 -0.5263382414563194 0.6454345681005594 0.5126198634289623
Ni 2.3017684636483717 7.144403981801848 11.906572609477045 0.4466751811070372 -1.5546144411477225 0.13607897724516566
Ni 4.169395174230849 7.932842934768585 9.527847124300827 -1.9648894863591708 -0.581376818388702 1.2734206017073681
Ni 0.6951025430035362 5.982609930968437 6.469953012102731 -0.6233891582647458 3.728595292554043 1.048308178641614
Ni 3.9393384446422726 5.819742931975044 4.737518206102811 -0.08453530083991892 0.4086202832168446 -0.4305883028475036
Ni 5.347674543255056 5.8361525860548085 8.807276041524386 -0.2406904800096694 -1.4344716755168392 1.1951068562971288
Ni 7.546029083152338 0.4570254176457153 8.63627609639659 1.465055461840967 -0.05894279708279527 -0.06699034997762011
Ni 8.592198914317096 0.5866314192314386 12.703569173401343 0.19828836089437463 0.11483729425756997 -0.33886574023052607
Ni 4.328999158436046 8.37704801460155 4.757049950563976 -0.9684193754347709 0.8417724901367827 0.8624863256453663
Ni 0.6922396022024154 2.155320576748622 11.705755329794862 0.148182445376919 -0.40960475861730095 -1.174482495178558
Ni 1.840482210750245 7.903920328327133 5.446890054645333 -0.5546833682579158 1.2014600522086663 -0.28096655392089676
P 7.0986839427116015 2.9365336071119343 11.311347638835306 1.1825400753757118 0.17153448983929812 0.06950488886935771
P 0.7886999941497912 6.1971271437541 13.695485945354378 1.1205348373175088 -0.740150666128222 -0.5897519298262746
P 5.92366758847559 2.5884692383572396 2.441184317229214 2.2802787407343112 0.010617113394213973 -1.7428616157560113
P 3.715126767630811 5.66494361882029 10.475411485970492 -1.5291425221288633 0.5611013559691176 -0.2110574876345849
P 9.319435059473946 0.4762204568127937 10.59839025723132 -0.12808413196514715 -0.39569097674968623 -1.4575689236559348
P 0.9351251818162318 4.161365320447725 7.024826312331846 0.6032556207396643 -4.438554265590232 0.8438278300039144
P 5.988814388072947 7.763279661948983 8.656001730142272 2.923445852956933 1.803886749289132 -0.9232772316804938
P 4.51410194805856 7.257606949917523 13.114063054366008 1.8962124927077473 -0.5818694417544044 -0.585043982827644
Ni 7.126083808918562 8.701249814339965 2.7722895212977847 0.6675085171814633 1.167766516610963 -0.428211832195527
Ni 2.419180247940124 2.553455670977824 7.4430577944507785 3.211070535624296 2.388265330618635 -2.195962497883734
Ni 4.49547911873115 1.0593637605257211 2.62505756504748 -0.564753350899408 0.35833233359557 2.428020499029386
Ni 5.913585345680761 6.7189541434905955 10.903539833812228 -1.1400330552514366 1.6616396955600417 -0.5803576330955683
Ni 2.7645679987671103 2.181103122582303 10.261886418840716 0.06972188997617025 0.6524552223927667 0.09196450342445453
Ni 1.1600726923074658 3.602935807000171 13.412927780724434 -0.3855209781952199 0.45399459758658584 2.9642659722970883
Ni 1.1500755716375461 1.1458005493643166 2.3140941473352585 -1.178529411554422 2.3402363522348666 -0.7021248217037521
Ni 6.341815840072389 3.0974900873018036 8.858950846152743 0.008867477692958921 -0.22719990172240226 1.3544365765401192
Ni 1.8945442180816172 9.036281039969637 10.732582449746888 -0.14076172743281565 1.1143184240941517 -0.5434795291222962
Ni 8.6508480583797 2.951458353012722 8.495328990368767 0.6461184815414615 0.5765950807293425 0.11869060656538913
Ni 3.1165196112260025 5.201642808965974 2.2780610060597053 -0.46434740157581966 0.3790484830969988 0.5281156450717163
Ni 5.991651792236595 9.323785745858206 10.376726569158816 2.0346296311677863 -0.8855902586526813 2.4688694147249484
Ni 8.413499200090548 8.277313258249325 6.350130380073265 -0.219283475088803 -0.4812907142983775 -0.39298566200338125
Ni 1.4996059325434588 4.18349707292418 9.188975945036352 -0.7719415853865738 0.2569691625650349 -1.0281425023270163
Ni 0.5354616725442114 6.122219673833795 1.9901316353479774 0.030257256222644666 0.8722737440494333 -2.029142897021602
Ni 7.941951002133894 4.437038050973881 0.5818135069615643 0.7919661081376167 0.49539964289593386 0.26620173690689636
Ni 7.202334316809662 2.42630213239088 13.626632550117908 0.9056397211043887 0.40422575369357483 -1.5022721801005805
Ni 2.389907694985156 0.6656493419834825 4.1029384397112745 0.7398133373934613 1.661282826441255 3.373306373770488
Ni 6.317120965834772 0.5354039786595506 6.4433476190615915 1.358421786440112 0.46296466229568006 -0.3442444880439362
Ni 0.2780504752152933 8.704106134531372 8.441993358503288 0.056118697370438834 -0.6535561687664293 -0.024009732651036068
Ni 8.057225275289033 4.698618340820586 2.983516291055005 -0.7634857413097368 0.5712749540680097 -0.10862345213737422
Ni 3.873226927629275 5.090766512264491 12.912276328261246 -1.7145172602853636 3.3130906235125397 -2.0940869059931546
Ni 5.151345091158374 2.120316467383085 11.909895209752678 -0.8608770721767173 -0.5338923996544934 -0.12240405086123435
Ni 6.215201408276539 5.3054918013554895 12.696800072868268 1.5084371712607119 0.24120187242844915 3.0443257538641575
P 7.218573726639606 3.623705605478074 6.971365834683167 0.7665504962779895 -0.20991334672781264 -1.7058202467319976
P 3.237960509430135 3.1196975038892885 13.19531968900317 -2.313562442488106 -1.9439812754515937 -0.9137178701268329
P 4.024101165024316 0.5132958712177936 10.435170474320248 -0.9424892858325704 1.0849793088104023 -1.8995821805109283
P 6.389049161383249 8.63867559451765 4.855596780373021 1.7099741209993713 0.6682333111626297 -1.2572535050292026
P 3.4341670073463906 6.9879116841627855 6.565302087419345 -0.30427257563668886 0.9853405766701417 0.3145438756557099
P 7.645385518949411 0.044026108804549526 0.732017171172596 -0.5123758657389563 0.215028556467191 0.11643677753420593
P 3.593893945732013 0.1565490457223364 0.5782922883944772 -1.9448667633803405 0.4553783653079899 0.24363259335712878
P 8.284160860297595 6.26523430169553 5.174077427516134 -0.9874262555545769 0.03593322356149941 0.013523745518047678
Ni 6.138033473039193 6.6564272137376745 3.19663939259493 -0.5124807667479369 -0.6163237667775322 1.3847689089750732
Ni 5.189385222979015 6.078996550407557 1.1060277094010753 0.23079481816251218 -0.3719555808059594 -0.609617301291634
Ni 9.169856569980304 4.324099907246814 11.75545151791977 -1.2876313459901114 -0.0014259338132491571 1.5154585968838674
Ni 0.7571357644319836 3.853459678622528 2.2017461836742296 0.3988791446696808 -1.3561535592312257 0.33619076450152424
Ni 8.765375148438409 7.685950940475697 13.30764022442395 1.839806860224509 -0.1947003864328002 -0.7513622185733253
Ni 5.265673562925629 0.6104637226033056 8.453399723241153 -1.9733473873185368 0.8594634796586424 -0.5107097908904431
Ni 3.1952197447117183 2.713012365113627 1.6660036081178171 -1.1022715202319469 0.47069288417787325 -1.19648882424632
Ni 1.9390157993398596 4.251632604907245 11.4125521705443 2.2847753430530844 0.9210028338240204 -0.19533442047237326
Ni 4.9845057263358745 3.6286426887228216 0.10960419383478102 3.990360848066457 -1.0000138624116004 3.345621506260709
Ni 5.539445232662142 4.366632595659897 10.868725830525657 -1.2668465480342763 -0.992189481271175 -1.6638433880795793
Ni 4.91910356036379 8.49786468388968 1.8167511081268815 0.6400373083443881 -1.9140582626399167 -0.4528833668002781
Ni 2.4362519629914057 4.151292535666775 5.155998433986758 -0.4651053627877667 -0.9180049275379609 0.3456405970605144
Ni 0.8490544181147469 5.904429988246057 4.119148529698195 0.9981120174031972 -0.3273294574561524 0.6056858274477117
Ni 4.311568038857368 5.181639109612257 7.0033424338060914 -0.768556985185057 -1.6968010739525228 -0.3420461948410367
Ni 7.804478770405151 6.9050594825842655 1.376852262012945 -1.3283977292741962 -1.201737474239769 0.12104342306828185
Ni 7.968149700578244 4.925213437329512 10.028635717965262 -1.0365620938492792 0.7648661665970311 -1.572010782247299
Ni 2.875586165676776 6.893038346944277 0.48667439955306063 -1.3651326228013843 -0.21601688852238926 1.573426174537587
Ni 8.087122057160002 0.5209190304041278 4.561673866266282 0.6998720211138333 0.06880400614759118 -0.31283563471535153
Ni 5.934875334921999 6.922954044843006 5.949189093126215 0.025960942840135934 0.5410891745132488 1.3074622646731096
Ni 3.9554265262501564 0.596389252150224 6.502719355384537 -1.3086472861201461 0.4474112879421133 -1.1763817690837997
Ni 5.207062250918542 2.855686504475725 6.665482316225263 -0.9510502880287038 -0.4459521868980836 0.34320756213898956
Ni 5.413927930476235 1.2441638937041122 0.3916364928930603 0.20306675611962446 -1.1444674368737064 0.4966144891396415
Ni 2.625024461998904 9.242314414305994 8.358451667713002 0.9490921358610687 -0.7609984561115087 0.6669588153255803
Ni 9.03448401733266 4.197069322840295 5.081967721953019 -0.2491928610537257 -1.4813562558835198 1.2927180164843994
P 7.77603852267152 6.411095791734793 11.770899291988057 1.5340325032313131 -0.05031648886636496 0.6167868224568797
P 4.187232988406316 2.087544449292951 4.896613349161329 -0.724614518165836 -0.4781614246407765 -0.281590817768457
P 9.404869298841385 6.212269423974102 8.855351126070461 -0.1303204774948336 0.12211583019685421 -0.48392763770059244
P 1.6375132329106281 0.6430815750672148 6.743694416194831 -1.4190987926051946 -1.0425972442997657 -2.079140054875335
P 4.254460551057014 2.8875694692612495 8.716799734958144 -0.6712397020891213 0.13967723611938526 0.16647301615599072
P 0.17940433626052069 7.909443808432369 3.7758481625342655 0.3051056130609455 1.0889925437348535 0.5695356027793997
P 1.088153954772869 2.7270007676404115 4.137960519303181 -0.5314735058003557 -0.9738983962714711 -1.0046045671060764
P 3.7972507021406616 7.171520107592445 3.1697984950082083 -0.22993838369948785 -1.4236326759198064 -3.0368171041919374
