# total energy = -340861.6538685144 ev
CRYSTAL
PRIMVEC
9.28413393480547 0.00000000000000 0.00000000000000

0.00000000000000 9.28413393480547 0.00000000000000

0.00000000000000 0.00000000000000 13.58826846822873

PRIMCOORD
 96 1
Ni 3.4623319645716704 5.242091102416373 9.118475002980253 0.48528903682449326 0.9959967708324073 0.17422720618011286
Ni 4.771561924564076 1.7653408782759363 11.143399329882545 -0.20634079888520593 0.033415856456284386 0.38493810910855636
Ni 3.402709258228713 4.6926189360816455 4.173528168724916 0.8121191860467241 -0.7624079348645257 -0.3524162252214511
Ni 5.176489413998537 7.590206334453413 8.783334489416042 -0.6327968247318908 -1.544263951151334 -0.569264094285568
Ni 5.93977517844574 5.273582883779704 1.7816122509225678 1.2489647826578492 -0.17940180840251685 0.5357852458018321
Ni 6.181766122206126 2.2656442727650847 6.3299585352200864 -0.40427820419806504 2.4683762771386135 2.0076914120160456
Ni 1.3232118652793095 7.454370174923077 11.200197802767153 -0.9995001559999752 0.7735588092750226 1.3044964971765662
Ni 1.8033686897335437 0.00047534764322009366 9.818678792884032 0.18388658364674781 0.7600767156281877 0.5139049007889731
Ni 1.721464062614644 9.037602771523972 2.939332576945494 -0.16688902064748676 0.9724449516543963 1.4152814757416334
Ni 7.7210940507447585 5.279097659171749 5.398836059354832 3.0156157875239744 0.2937158831667651 -0.06357438231753566
Ni 1.8179726319754421 8.123923325972816 5.615500814913263 0.39013585125941197 -0.12361915421525807 -0.6116572145397983
Ni 8.043829104916963 2.4497672114436178 8.207259566501572 0.7651333042154888 0.37261172633271955 -0.008764376456191358
Ni 0.2349461431417253 2.6126387681820966 13.007206801307467 -1.7675999990429556 0.12227061060716363 0.6064558728445169
Ni 4.689991526256816 2.9151158427155077 0.6182843081710295 1.9294362877578835 2.005396959554914 0.9946875651026805
Ni 0.3516801976735192 9.049449326069846 7.199662753293188 -1.1868389598613818 0.44588610954683855 0.5253545373868114
Ni 3.806773323233106 7.026102373475816 4.613909907767362 -1.7140014969912094 1.3765737747587905 1.0083460364263794
Ni 2.2174596190871103 1.7915314193213245 12.455943725590371 1.2124278640740795 -0.2945383790680605 -1.0413106642778582
Ni 1.8439682062140412 2.5590971693842395 3.464410682097393 0.3850365823596337 -0.004535940197140575 -0.5253681642335662
Ni 2.4855575466899746 0.125643109188708 7.661119475736213 1.765254638739231 1.1353577612629542 -0.3113914460696573
Ni 3.0364687537414814 2.2060401346894403 9.371978272474873 -1.44721020612943 -0.17285577975388294 0.65984405865767
Ni 7.717259703544565 7.569075646250894 11.057629717922387 0.08641426303018665 -2.112225781685711 0.07803220961407853
Ni 8.549730832001066 0.13187369128568077 11.84379251611292 1.349279972039844 2.398894271087391 1.0504887312327005
Ni 2.7842559788251324 5.700133120500484 6.492759532542775 0.6564913401353532 0.6111496787757603 0.2780925748072114
Ni 6.660261086735821 8.813957275869111 3.5641751971315756 -4.065014885236922 0.2681308356088092 1.9567349755728365
P 6.005831789412751 1.9719407045372008 8.921879759147386 -0.21023062085791536 -0.8455198729943568 0.24206524887000896
P 3.97643158167459 4.968691934495566 1.26409050215381 0.610283217010407 -1.9718093534074557 -2.211697649230804
P 8.110619162442848 7.737099897168809 6.353207862723051 -0.14682387446649553 0.15949658483815757 -0.13433808329465896
P 2.930833880996204 7.355141354400883 9.763075188001036 1.1038468351388666 -0.13320422680053187 -0.19694933036797696
P 9.01778114616704 8.863840926006251 9.643417559780765 -0.8192162021028213 -0.07614656255559143 0.0804413332762034
P 8.536370963669158 0.03700748516874249 3.4623449623587903 3.6074420833807745 1.578588692575133 -0.8743151999594942
P 1.8222619017248112 6.20168987303328 3.904208449132837 1.1968816888093645 0.7495578183747349 -1.175012399540099
P 3.8518570762697615 8.08332380949232 6.636809365119142 -0.7685523571993668 -0.9399194682228651 -0.7948709404892376
Ni 1.7670398747351017 4.074379191752168 10.563193895904234 0.3544090872817638 -0.23942678280589733 -0.02140237693517604
Ni 8.700876527931205 4.82143629056756 0.7106094469061448 0.18377474065923188 0.24693980335349086 0.8356195831615092
Ni 0.47269145258092826 1.6314265344125254 5.172225211410041 -0.803293617335294 -0.9590556748316837 -0.15841620728978523
Ni 8.77353415792809 5.208083320832091 7.862552681617556 -0.865795078303625 -2.067628711801626 -1.2771751836537941
Ni 2.045118246018857 4.857597991160182 1.8507224134492486 -1.9226038382170823 -0.5842011752113745 1.0226035747866582
Ni 7.439107059191556 7.351121324527556 2.195265897580907 1.2664269439983544 -2.410493031668584 -0.24138467786321652
Ni 5.96540867147173 7.965600994726093 6.485802931193853 0.5726543509140396 0.3183822755651936 -1.6106526629892133
Ni 9.275805788752447 7.184192601381125 0.1912967887550208 -1.5627476117778183 0.8034982771469322 -3.9785306882007485
Ni 7.725244058489277 2.609630708877344 1.2124270835946918 0.563739822033229 1.0116501610989481 0.41841952869545357
Ni 4.411903870839404 0.3694611704527208 2.709581834998026 -0.24310628854001357 2.04034750748817 1.7745111243404923
Ni 3.7196881495337997 6.723058966789351 2.1946271491853295 -0.2600873964790424 1.6042794124730178 1.1027633722667007
Ni 4.861896545043208 0.8877525739016141 13.354944027417009 -0.6258036812435093 -0.9525297007877079 -0.9743115725494899
Ni 9.100372799176531 7.343155537850157 4.295237590483304 -0.6232760297256491 0.1158888754505359 0.718902298272407
Ni 5.8032055723565295 4.352847496649502 12.846783470614243 0.8331886051225134 1.1926905335461524 -0.7909644063459796
Ni 6.287716655495729 3.8996425122005003 4.336423864210901 -2.1897504555357514 1.6686513509911842 0.23242901133182553
Ni 4.991252379281207 0.7987678664561588 5.1756352737021265 -0.8795998453972012 -1.388481324829654 -2.7492759823773167
Ni 7.234633299537663 8.336464997774334 0.2417282027779026 -0.24087302833412066 -0.7646303964371413 -2.4266619281189623
Ni 0.7673949220036327 7.117560374127402 2.058514322472026 1.4386589741253093 -1.1200201024646192 2.921109234403956
Ni 2.0721814956279694 4.2807376305383595 13.008986569729444 -0.219975358949505 -0.36811486690363054 2.283752815325841
Ni 1.511243424227289 3.775430088008281 5.3273751541862895 -0.8816955515839654 1.1669630468730612 1.222319926376811
Ni 6.522326712999084 0.04063386777502703 10.190141622553124 -0.1567557888682268 1.3231683625544566 0.3797992452200943
Ni 2.8766888135106647 2.1275427846225283 1.3771981740793193 -2.2452284339983977 -1.3705509656034782 0.46235196841234566
Ni 4.278778678336808 0.19522119205168356 9.518173668339292 -1.621313742247485 0.0888472979517115 0.520370968129291
Ni 7.057993372586384 2.77881547650234 10.815731615498565 4.231317694363635 -2.1272873040045233 -0.36256899738473686
P 7.548502006067775 6.002777309439716 12.7179939685293 0.42699570040023876 -0.506382881380315 0.13896452632307682
P 0.6976636509353226 5.759273051893297 5.794281663085765 -0.12190705662015777 -0.1028299853840487 1.8378250539077898
P 6.796552168815332 2.2444300273596567 12.810407306534152 -0.03766743264378674 -0.24298287558827186 1.7653502837768307
P 2.8634496389162925 0.8920362731707889 4.423551744925028 0.2796902583116344 -1.169948097643314 -0.3851643661867496
P 5.293209542329845 8.115131251399976 1.6109030285511516 1.2392061606091884 -0.8632054631995779 -0.6313629204988416
P 9.052420248839972 4.153721397981834 9.797888832386711 1.4486101718007502 -1.9435166771103494 -0.8054011505965999
P 5.918328829698896 8.643509866066813 12.117840644976328 -0.5956574966774322 -0.41327655104193334 -0.6236033311580809
P 3.656871701212957 3.4737978696376244 12.11841161919621 2.376382720248436 -0.39865931534939086 -1.7872943921480897
Ni 6.432734823212484 0.7999775890716194 1.310514884090485 0.29367191730270714 0.6100556743806332 1.9140826881199486
Ni 7.471109467906003 0.693910075697942 5.644335477224064 2.00001512641771 -3.149913247388685 1.0452655351605482
Ni 3.2376187935462966 2.3228252519563455 5.979218820285985 -0.540719706988972 -0.595258975687433 0.7947837800920698
Ni 8.631746868723846 3.583564181860108 3.6057421203390954 1.3788620565723348 0.0966552240319045 -0.320764402644125
Ni 4.45198347583513 3.2570504852896494 8.032786556345751 0.7669783278440275 0.7564679152310069 0.058803700401769694
Ni 5.368680264824692 3.8601013869568597 10.398707828322866 -3.6933356980208 2.421852165435145 -1.4937777694763241
Ni 1.7085126961636277 4.161575775055353 7.900858088671497 -0.47577955467216126 -1.5050607985893112 0.46419236405519415
Ni 3.2242589252143885 6.004244202557465 11.544171241092295 -0.44786997274608675 -1.0387038227826306 -0.7321362804641778
Ni 6.380929357408419 5.77469399789698 6.944556113916063 -2.209534580141214 -1.047004372228526 0.9468028256062598
Ni 7.574209772163017 7.126974485655237 8.475138388550139 0.7269665633377803 -0.9794375809221455 1.2076885496168812
Ni 5.605537082672955 6.138901277113407 11.098557892734329 -1.3074668926588 2.0596258961018075 0.7243031575730042
Ni 7.449690971560129 9.2668651680411 8.102153889374723 -0.4706810571033313 2.472209791952091 -1.0906303364485928
Ni 5.031898316429988 0.5651530680807961 7.361118479649028 -0.3592599876161619 0.5539300350316588 2.0692600767574625
Ni 7.54104684674149 5.299624878686585 10.49995409108865 0.8048943861635105 -0.5275230057930399 -0.32642802868780557
Ni 3.466760496325889 9.061778655565869 11.744571122897652 -0.16094565857985832 -1.029395400897511 -0.357726581690771
Ni 7.038097474160199 1.880482703885616 3.8395825231623144 1.6142475794293232 -1.6602075910992053 -1.2044808413128612
Ni 0.5282709187164183 5.521784912956384 12.131306352431922 -2.2582276744715433 0.06794088681634751 -1.0666465719394855
Ni 0.9380317281325271 6.546261209565908 8.875395030341942 1.2502449349218534 1.2976226528748684 0.8253086881538044
Ni 0.04660449412961379 0.237100990563432 1.2035876599402027 -0.19178218434474067 0.3647932587295653 -0.08803611490432581
Ni 3.1179834472468024 8.83234914464292 1.0604578850092083 -0.5448895220959454 -0.20120193499674383 -1.3663430981697178
Ni 4.450247342841338 7.250741271431937 13.0173023682457 1.5853146984450568 0.3578988456025771 1.392894366295685
Ni 5.8101222519307285 6.619225215973461 4.169056929955876 2.508450776561996 -1.360760718985934 -0.7184562118739239
Ni 2.2913798912612977 6.69524370235405 0.09393964957800535 -0.3963646057779432 -0.3770255391296991 -0.05906286760042731
Ni 0.395735268701019 1.9629907996921976 10.393218120091694 -0.33185639879222845 0.21706461306061328 0.06262101726533087
P 8.05641839015537 3.158109472910811 6.052907917532122 1.143508929615179 0.014298161790226986 -0.8869143767807436
P 5.809360952970883 5.484258444716235 8.951883293885558 -0.2150223858196039 -0.15340615566970356 0.9009744544182353
P 1.7091347331186229 9.022961692747446 13.057347621946894 -1.6797405189258103 -0.620458357771196 -0.1373951249534279
P 8.021305796665947 5.599845908741433 3.3512333791694586 -1.2307567442902545 0.0647077245910305 -2.3247845364561703
P 5.491917854982964 2.638402239079279 2.7614755000718287 -1.2125209380085182 -0.4388423153261797 -1.6646154903589137
P 1.3266562788659235 1.9628422535536911 7.1352810000378355 0.004971227962346277 0.5774651420391216 1.1322755227932049
P 0.7709191791396942 2.9442401699963954 1.6551187150909115 -1.515659914261396 0.20418415755351932 -1.3279189898655648
P 4.759761790686484 3.814999065652891 6.049361378475284 -0.22227572494790754 2.59829077744428 -2.1319980792166313
