# total energy = -340856.1743306492 ev
CRYSTAL
PRIMVEC
9.41213173670913 0.00000000000000 0.00000000000000
0.00000000000000 9.41213173670913 0.00000000000000
0.00000000000000 0.00000000000000 13.77560618952923
PRIMCOORD
 96 1
Ni 0.510587430927508 0.6756112749395249 7.014084216290378 -0.6228865075967143 0.9391476230538471 -0.8358360700476896
Ni 3.1173167999080613 2.3382840820754685 1.4262570039600853 0.5370656551761525 -1.6825584479905795 -0.9524988475497724
Ni 5.1773218000151795 3.160678490046335 0.8587675904191746 0.01640672349279755 0.5968625727291269 0.23456739783106698
Ni 6.381961695265307 6.331672676292268 11.893210863937252 0.6754599108180561 2.4066142654394684 -0.5117163777780864
Ni 4.666035988925253 5.456344440377479 13.443889658747105 -3.059655699353008 1.3084554818243144 1.4281637310209405
Ni 8.456564911435908 1.4419009078408807 11.135524860503098 -0.8392371253094385 0.334356796616579 0.6321285950202726
Ni 2.3841776356057967 1.1898628486868355 10.541396290982513 2.2705422301728384 1.4416139429885753 0.6141943791393552
Ni 6.332303289107388 3.5652589655387774 6.415919724753016 -2.0502603957265078 0.7423001083710572 -0.5398835842409218
Ni 4.137384795090566 1.5417071509983045 3.9426468517152906 -0.24120161531813297 -0.3449695391354188 -1.2698573098361419
Ni 5.204475799591675 1.4899121909742283 10.952116299897398 -0.1496474599582197 0.08456795385006727 0.2946903312648925
Ni 0.7840324421220328 3.136376366335238 11.244131446677514 -0.8545999809187541 0.19273632072789387 -0.13723314545426687
Ni 7.794722643768638 3.9123030807500685 1.7534697579555434 0.03671123937810452 0.34911441454172776 0.13720306354727985
Ni 2.92380337484991 4.106117694018427 10.365248248669124 -0.4779757909925317 -0.5133053195317612 0.5380326470751121
Ni 5.011498866032956 3.9717218673450154 11.760248504901796 0.7477613885959445 -1.373159863981235 -0.8121742076543754
Ni 2.0966464283051423 3.901319123209073 12.915649775061981 0.6321141968425694 -1.1162511223404903 1.0682766513437407
Ni 8.752858813227279 4.7931750621589835 13.220462597136434 -0.20037403977880977 0.32145551517387866 -0.9465063774117632
Ni 2.376930294297685 0.8963427020688415 8.282210821399564 -0.8027308028532885 0.5614553968744267 0.10096824958496159
Ni 1.565642201578211 4.102362253522405 7.369742314313596 -0.7954334978609269 -4.493172724266062 1.9528227850026239
Ni 6.255857956504164 1.7022687034334696 5.189298737436702 -0.053442693200172475 -2.369592179689164 1.3015171028332682
Ni 6.586496726390729 7.389304488566555 9.131202030758043 -1.5252670983338572 1.6012231421451972 0.5011707410517563
Ni 4.437349428193838 8.991503409158671 9.529702269256928 -0.1278625028726443 -0.5473994330019927 -0.09117260365077846
Ni 3.2850221602040794 2.1445165294649553 6.0563075902576715 -0.8388987681334134 0.2816442967142117 0.009532107860151327
Ni 8.848344887994543 4.169837824740395 9.198564656397206 1.122736730064834 -1.4659882580678818 1.3184095077132327
Ni 6.992074887829483 8.913298007952047 12.745080303129525 -0.6450409322065666 -1.3760960637914237 -2.085073646750951
P 6.569168992172244 4.859088219536524 13.260977117475091 1.5183246055777526 -3.116930621815077 2.1069899872080677
P 4.381413130279412 3.7491814285281415 4.366715145621299 0.5620038131787289 0.1794007799612523 0.5436762185141346
P 8.788069597426817 5.7192346872305535 10.797967232700179 -0.49399556345955564 -1.286578736355881 1.9810637821261883
P 3.5385190997513156 2.1719905415147966 12.24953063480977 1.826101337712958 2.6507073433727832 -1.0830304126141477
P 2.693112030094303 4.424323038102375 1.1896821357607112 4.173796460218715 1.6546118421789824 1.4037989290233308
P 8.302394196336076 7.386160836622518 13.670897095206614 0.24912652659216453 0.9534671250003127 -0.8277538072601873
P 5.322146268467016 7.175856168845313 3.0570960997034375 0.17312111760012766 -1.6172251740004084 0.05918550922122065
P 2.8139920358346644 5.603550178116268 12.041450053722313 0.5713034933130999 2.142513119815342 -1.1214802319499138
Ni 5.453746692064442 7.716394884851617 6.953416439836228 -1.9616573525751182 -0.0819899087102459 -0.20775927649928738
Ni 6.574345664535182 3.393252261115737 8.565106553902497 -1.1494471494764849 -0.1933086482915961 -2.4160170468106066
Ni 7.9510863855240395 0.41009316095239207 0.6815305644832541 1.0855354384241884 1.2115536889992424 2.115662318171086
Ni 4.531498980278307 8.188017973509877 13.040346400153563 -1.4382823075121811 -0.9375003172584112 3.22159200398091
Ni 7.092681162170271 2.727485134584204 13.570128932202842 1.6135716364082213 -0.5713186628217516 -1.5696566801928258
Ni 4.444446175396846 1.500764378673258 8.015419246011149 2.6552206578621047 -0.27162882145973866 -0.12731691478181945
Ni 6.830845074052921 8.115384554192088 5.0928413306915195 0.6929092166427551 -0.7017193587352173 0.5436823891617216
Ni 2.152234477351516 9.27686041406689 3.8880687243862684 -0.2336561988707073 1.6040372145552244 0.4064757260700161
Ni 9.148394230281935 8.599855202442 3.092031108448007 -2.0028040020167572 -0.7890990710024668 1.197760234759576
Ni 2.851433495216052 8.548361430628132 6.46880460961278 -0.1255089150388032 -0.113683640269101 -0.013403417890099497
Ni 5.826156501854124 5.151965517568357 2.0101084670205043 -0.9756876269614101 1.0658847540727965 -0.10975756574181743
Ni 6.459338828893861 7.751257420183106 1.173604332614586 -0.16532784680795398 -0.6969463628266062 -0.6181297096380194
Ni 0.8894181968735456 1.287429004530843 0.9644827697756017 -0.15881369983852006 0.2947687499113117 1.1165912792887287
Ni 1.2987141502820454 6.7408274477272325 10.752108504056654 -1.887284336980182 0.1468174467085923 2.143366726064889
Ni 4.880933776908118 5.914959963207414 4.894141821138862 1.2546857443020263 0.5966651120063402 -0.6675342282130762
Ni 8.743286675421631 8.06582026934986 6.983460905017556 1.3484068254062713 -2.143901772632753 -1.72659527449582
Ni 0.5652860335406134 8.950447691254796 13.187704614423767 -2.3630741760649885 1.5697536107820065 -1.272654412965305
Ni 2.9660638455946136 5.26436519276507 3.4579804311287434 0.5501497420536203 -1.49421768522722 -1.0843558162937905
Ni 8.672422736838808 6.503707617110015 8.881794662377528 0.8125187354779877 0.8751618642305057 -1.9063166710212844
Ni 5.070927064759473 5.443713359811913 7.837437720468123 0.8142783984815718 -0.9402596251711032 -0.08928721370260752
Ni 1.4763493093833335 5.647749547964179 9.004714277028887 0.7136011977744677 -1.0402274585160085 -1.6379837467039984
Ni 1.555778287693924 2.8986635714291746 2.9036360005370647 -0.26009125313378434 -1.0033714660299236 2.2266203319789075
Ni 1.4086101984814117 7.88755449743345 2.0319022576684684 0.6588492988445687 -1.479220954708072 0.2743750167463081
Ni 3.5178688830889824 6.719386612013104 1.427124802490745 0.8943646624112016 -1.2663562386614189 0.8620099002295799
P 2.7748940412971375 8.560785444299182 0.771554779301041 0.7520047372533307 1.5392628983923167 -1.7737320800826226
P 1.1812507483012222 1.897288069542657 5.272282677840894 0.6356877731264406 -0.6189095252268373 -0.5740923689121468
P 7.783352788833315 1.6990497544368799 7.019015232019365 0.2454375077763515 2.7753546817422396 -0.8236796371908137
P 0.12140332025559664 7.466615737274127 4.929862742869441 -1.496942540357551 1.5724946638622532 0.2533981573843249
P 9.25490191111647 2.1187743496238056 13.04921827537048 -0.3515775313702396 0.41093787560642775 0.5343161174554732
P 8.28663828808961 1.0281059555424101 2.901115431702893 -0.9539697756683442 1.351235295994002 -0.542911315323652
P 4.77537672136205 0.582223164298986 1.9959752102565296 -1.2361570893702194 1.7951516834089791 -0.387710529647371
P 9.174992914095862 4.442215500214999 3.3761118283154747 -0.3293858257645489 0.3076062679956122 -0.008169166074353673
Ni 2.529340940794117 0.6248610615196052 12.934701811783905 0.06450923542697921 -1.410529562878945 1.240667061425431
Ni 8.466240582688815 2.460397077051366 4.53625210672064 1.4337617939340082 0.0651052171397653 0.05285365346592188
Ni 7.648655773949695 6.362139746181043 3.1530706640991313 -1.3426156726457907 0.38862507104184035 2.2219517228586443
Ni 1.2089130029824433 6.958031207944496 13.463988324499496 1.268027455716255 -3.2377436740401078 -0.019497189492663197
Ni 5.504807505826138 0.8339901540638448 0.02022008224963161 -0.9963603248194132 1.3074445240612966 0.12336872876734882
Ni 3.1947880548523044 4.804620214146859 6.087426920864177 1.7009372076080835 0.17696465971593395 -0.5946308551851307
Ni 8.510317594826331 3.8814124649406883 6.997842642054953 0.29548763035520725 -0.7466164763582238 -0.6727666802566091
Ni 7.071983884850091 9.306790992456236 7.587369620451464 -2.2644839397939003 -1.0216016158847052 -1.804600230416389
Ni 1.2076329530890626 6.057836120424473 6.657571496720696 0.4931632973662474 3.3700210181509958 -0.0540193916392489
Ni 2.7444457956714996 8.151734206311474 11.284770207152883 2.1364810546886495 1.630132883201012 0.5653462472884005
Ni 0.777603015047265 4.102879920758699 1.2070804609659638 -3.3538279533309017 0.11847052013478306 -0.6262515674142053
Ni 6.279680061505243 2.573248534563391 3.109760740684487 -0.6538559593950352 -0.9568229288464233 -2.0305498046714576
Ni 1.3053779394328806 4.08595690819768 4.964563389537942 -0.849063624481557 -0.21986145907946006 0.16860240379416772
Ni 3.7196932203225392 6.40722385639644 9.621186305681062 0.34551409878497913 0.36994163569972416 0.9323537400604653
Ni 6.740262719833094 5.266162909894746 9.920172077101162 -0.19022178183615626 -1.260657388504429 0.1595930012067058
Ni 2.0283896501669267 7.045573443667545 4.454576452604535 1.3958819881690994 -0.018810704948599863 0.17345921766583675
Ni 6.2885651137063565 9.11305167624043 3.0967145851167293 1.0092142979639458 1.2862403791798558 0.19133506950499304
Ni 6.954360476632596 1.104212451409152 9.327462857021178 -0.38768199040228074 0.3030577293929813 1.1098393052768756
Ni 6.99229136685557 4.274321897287601 4.433361508048063 -0.29900875613458827 1.5657316341068068 -1.0422370327468695
Ni 8.83657972353332 5.555830671061558 5.44821047627557 -2.3151009906198197 -0.0818775515020977 -1.096019625784964
Ni 8.363093032824404 7.951246391760711 11.075022737564563 -0.5709851907417327 -1.3471241020391058 0.7264615986769036
Ni 0.6591899289911323 9.307882799718238 10.471898993903508 0.5735514088070123 -0.08083291228766723 0.7214317495624801
Ni 9.010007659823279 6.329940844083575 1.5247803735846577 1.2660654468938775 -0.7593850888778018 -0.6881195085635956
Ni 1.3469513245730487 8.195914751896249 8.476447098162213 0.47138553936952365 -1.0640667270274515 -0.18651193708473685
P 0.8718457472342671 2.3455878961729946 9.260789199412864 0.39515258774771306 0.004607416865024323 -0.6880045802522862
P 4.246857297369328 3.3826165524427942 8.881546182104106 0.8071325314654099 1.0712478181569227 -0.9383865765181064
P 8.596175058998531 8.816964841343575 9.10881621703439 -0.7867079450624709 -0.21693014436527802 -0.5942089371563638
P 3.186157130203553 6.615871989017505 7.554018673449954 0.00032961542527685167 0.369895355842821 -0.2781295986927339
P 4.587359981140181 0.07400382567423242 5.61849099576886 0.7710689529736333 0.4790075746911557 0.2734828439493419
P 6.900005416821759 3.0059336349207966 10.43834098000748 0.22736522365567294 -0.7710571258990914 4.086815011831148
P 5.401292882830536 8.220094517896948 11.298035665386198 0.8234022151597109 0.863877292455622 -3.5992502915986018
P 7.183527056074029 6.3127637039701945 7.08896807626631 -0.4401355802163065 -0.38849960120756966 -0.1853397711535066
