# total energy = -340860.5577494817 ev
CRYSTAL
PRIMVEC
9.37898056860441 0.00000000000000 0.00000000000000

0.00000000000000 9.37898056860441 0.00000000000000

0.00000000000000 0.00000000000000 13.72708610403908

PRIMCOORD
 96 1
Ni 7.291829256034097 3.068389820875655 2.875288800246161 -0.9827134234599398 0.827133657177685 -0.4572889520671415
Ni 8.595807705385427 8.182204034015209 13.03237228503956 -1.5409713964429912 -0.6669858119087738 1.0829314251424382
Ni 9.505596973485055 4.853116064668916 10.935999393634699 -0.336306207033466 -2.0281854182043393 1.2919919369516524
Ni 0.269813579845605 9.421655095919498 11.274261712772056 0.3358971445205054 -1.2399939466178065 0.455374508653248
Ni 9.161303969736002 4.006466094867763 9.021866663169844 -0.8378811255021764 -1.2377676283904488 -3.61760616839797
Ni 8.874794866286548 0.19530695689803196 3.3469249149054177 -1.5044054243934994 -0.14190252590547817 0.0905614524293408
Ni 4.168572397866989 5.899519566133893 6.7111859377987875 -0.9947402727174868 -2.4979480772584592 -0.19311401578228676
Ni 4.765047435580584 1.6669731406831436 6.339154598530169 0.004363933395650548 -0.1418163939495751 -0.13792554353560119
Ni 4.156351585971132 8.061927985087756 9.08181241852853 -0.1596225688930606 0.5434065097925157 0.49855464358514784
Ni 4.054345791512698 5.30197532461667 9.280525821229 -0.4942817272414068 0.5113764779401645 0.39298051979705867
Ni 8.679740203970251 5.089175630752434 4.229425100662613 0.6572289896323262 -0.32221013395171605 1.0642963265397543
Ni 0.8844003672538201 -0.4099242972284353 1.7028036607796457 -0.15411706569379907 0.19045009579687844 -0.16939096113373409
Ni 0.0905409284097043 8.16827624762584 8.262759161637868 1.5968787491335725 1.2614521164915824 -0.606240157289285
Ni 5.940299374363507 6.752847370217357 5.239752352735869 -0.30734710079695454 -1.4505001897346115 -0.7257661152717758
Ni 4.819642482430764 7.3353946215415835 11.441292918554486 1.070122703413544 -0.10785366385088523 -1.5159792452740277
Ni 2.344529466838553 6.008897239448924 4.8839597807093735 0.41701544925907535 -0.14360819574267528 -0.7271208295274575
Ni 4.3014256599581735 4.609431387248997 4.33047048749393 3.2900429976644565 2.9067200555618196 -1.8948788614979881
Ni 6.033432653047973 4.400233221986457 8.306932285096892 1.6625632358155753 0.3545129598494798 0.16219624315750775
Ni 5.916945712336888 8.435586577513652 3.822526462618832 0.312322699634675 -0.6751282385102502 0.8860227182044095
Ni 1.6571533478550837 1.5882928713091267 4.125580088082324 0.25977346478304936 -0.11552763545637523 1.1883199152822825
Ni 2.0780913821589637 4.716314251688893 7.305582593381821 -0.2560366234484365 1.2435510678414454 1.3693250636161773
Ni 4.030813928852141 6.71520014155276 2.8199687581852766 -1.439296093488676 1.3952201862153844 0.8040258675156282
Ni 4.867259567615158 6.154993622335925 0.49844968267849293 1.1920996940396889 -0.3170823258068474 -0.09741344235416771
Ni 1.3946919510065332 6.600917261314067 2.26991123402025 -0.6029866833489937 -0.6087757792269451 1.2005167144587905
P 4.501019748949526 7.869349373685124 6.982255363164619 0.2269073101826479 2.1272456521333103 -0.9278633083892793
P 7.377309286439961 0.7030634021584581 12.134565602725157 1.0494361215984702 -1.4352643466214636 4.58376091616828
P 7.668085826123194 8.924991171172678 8.22152259704653 -2.0847666570334935 0.5042743196777444 -0.3884777468306987
P 5.955887240342719 6.51820403022461 9.707768406381994 -1.1273960832137166 -0.2906161611955188 0.5074434614343454
P 1.182792639292722 8.850662748859044 13.27613762169379 2.151479842090327 0.6131001176339118 -0.6090020363051383
P 1.142725633598861 3.7412472776835397 3.895116021904461 -1.5018044964355428 0.021360210843330958 0.523158301066441
P 7.211488907070236 3.6348614992225223 10.3389259769503 1.1763038646580126 1.0573648895272436 -1.3931671603410973
P 2.9659244563612748 2.8904986933018106 1.3924897663302882 -0.544922689326726 0.27642752839996265 -0.4776065805785709
Ni 0.04055471269200727 4.598092199542097 2.103771969305584 -0.1687859805598835 0.31496913611858657 -0.17181088342913634
Ni 9.371008599958156 6.918967876970556 11.00832727935786 0.037273282529161615 3.548652266936075 0.9998806792678457
Ni 2.8396083438413964 5.1910501194805985 0.2693436929108526 0.15126262696413947 0.9973399151238631 1.0471465542333451
Ni 3.895184488463816 8.855389755148769 5.058582333497565 -0.11127863037203416 0.3965916341870847 0.18770081518651544
Ni 0.39606497739842167 1.9924894250035636 10.315301262380482 1.0889930579554858 2.0218139674603566 0.8842671689658836
Ni 2.921383676857495 2.542876151392339 10.463307205744842 -0.2940107886993646 0.16867310913110303 0.35348631835717836
Ni 4.2557312658241635 2.9519310171067707 8.34328146282796 -0.960295717886372 -0.46635749002731297 -0.27223405914390536
Ni 6.06065983411756 0.8694258866145835 8.644372067623914 -1.2481597702580505 -0.07705364775089311 -1.6595524740137098
Ni 5.11495844878905 0.8848561857174722 11.57808347675763 0.961143667708964 1.076825055134384 0.987366348850919
Ni 8.315826372526548 7.109173606247594 6.041043695913274 -0.5875693203526591 -0.04889364037690934 0.21324523931452305
Ni 4.343762378989561 5.2366694817687405 11.979559188141254 0.3537891943095778 -1.058131592489939 0.07920257577309585
Ni 7.00643625129194 8.232259654190335 11.117430148537396 0.53903229198422 0.2791958351737192 -1.2353114535404726
Ni 6.329208189462205 6.72577963182024 7.5033074515129705 0.7857558655618468 0.7135454048358678 1.137158819027435
Ni 6.308414989175855 1.4121556131324624 4.418240864994934 -0.11663655224983784 0.726724108309671 0.07997519227306227
Ni 0.960970365962781 2.632717407839318 6.865327610359056 -0.9278522526456859 1.6037528505455863 -0.1344309001187814
Ni 2.239484882622438 8.658759424069228 6.98014134090727 3.0473185179438933 -4.916712090686584 -0.32801259956610607
Ni 6.365523602862634 3.8234915597363175 12.215198575887907 -1.2936793519564043 -0.4803167804208824 0.8865603358754345
Ni 7.415125336757762 2.465518318301757 6.880180164248755 -0.546016436611537 -0.11748398785179767 -0.4251319077186227
Ni 2.1693394857159802 4.376382473980959 11.88562494450214 0.6045339732314556 -0.26113023592125995 -0.684151525054783
Ni 1.0514681510611108 6.384844303173812 8.899750458222464 1.2524429710144365 -2.373698231437738 -0.017380657370292645
Ni 6.856532002227103 3.9920693594417154 5.215318232128741 -0.8920506695660442 0.5145744160521718 -0.5077195979138676
Ni 7.978567604327683 6.123733479550897 9.322846595993141 -0.1572810652440775 -0.19744735305031802 -0.6460148660840616
Ni 7.249923970116455 1.0480260651318862 1.2504638610816605 -0.3360526962617632 -0.5530481466473378 0.09206400511679629
Ni 7.726057306037463 6.048420264260236 0.4212597333430421 0.5942706436322346 0.22937402655558564 2.0188520566185555
P 1.935549632969989 8.931875343031127 9.734536017395635 -0.8290339595241916 -1.7688307861262633 0.6820329360498834
P 0.9866687731727949 6.700803406126712 6.280992725307009 0.16140640026636072 -0.3441318737254718 2.4524958584629313
P 4.178739212982192 1.0728053322300093 9.66870026213626 0.15923227543317736 -0.5177664406269082 -1.0527482166908384
P 8.28161185081044 8.076924975280754 1.7231607384618848 -0.8127025693540197 0.1706178915622997 -1.356529968734038
P 2.5687058643326224 8.285025799797465 3.345949500909125 -0.52468785033709 0.19567149209681786 -0.6000489408769086
P 5.612232007283553 5.54896140325481 2.523628607130882 2.405194502273806 -1.7785678109083694 -0.10756672873808573
P 1.9929021001558413 4.386417983365891 9.574025079019192 0.017400969085266806 0.11670648625582483 -0.06461825020101773
P 8.046752794260822 0.4251989052511465 5.2527103525173855 0.5795238243403632 -0.23657285829687 0.9754868238045136
Ni 2.783540797016045 7.915644022586083 1.024596433361326 1.2995764341671294 0.07838959295349726 -1.3975498627898255
Ni 6.351652090357667 9.167203348617425 6.353663881725019 -0.36234865384381465 -1.2610628514729636 0.4767596591972435
Ni 8.747916014922655 1.564113858977953 8.446619072550563 -0.24474382414343657 -1.38131566031915 -0.6944662767172298
Ni 8.529348247907267 3.267036632812915 12.709360188575006 0.779164071276942 0.03673026554149803 -2.0830818131319027
Ni 5.888921317904947 8.213192186358961 1.2506242416522046 0.6076673766541147 0.3024689467690468 0.17729736046500433
Ni 8.7306962062958 2.3759771892382524 4.52092007027004 0.44921723080260056 0.5857181260765332 1.1931412479303258
Ni 4.516982774158082 1.5160653406798141 0.721969551521212 0.794288071402574 -0.9586602391654779 -1.3448216791581744
Ni 5.071177366724691 3.832045190165344 0.9351800447415781 0.331437566087255 0.35628187882444445 -0.3729176876089126
Ni 3.252039642619918 8.970544880595684 11.584617812634717 -1.9689654562007575 0.9419493541687004 0.6907718585847781
Ni 7.750780299251184 7.093304370846373 3.4901663360571176 0.3369073309525746 -0.6149487408068763 -0.07298282011562915
Ni 7.112062332313537 6.073996744720714 12.052107479911655 -0.599800058090896 -0.05307528255842472 -1.6525585591943799
Ni 2.7158620720425195 4.592089651872604 2.7823159021322392 -0.4271746491802643 -0.08011840271914589 -1.689610983961987
Ni 0.7576800206643244 0.5016779278469917 6.151491510930006 -5.031928622660444 -0.2813074822000833 -1.763723289696369
Ni 2.4883279994458274 6.943343847897135 10.723188444993584 -0.3139214115803626 -0.9217445970860512 -0.17896986307142082
Ni 1.814401338834314 1.6841272964448646 12.540009560857163 1.5807792724685485 0.15876870553319755 -0.795290030304527
Ni 1.2088849636935461 3.7119004469681625 0.18254966730421415 -0.6570544117276749 -2.6154714029886246 1.3597561889808194
Ni 4.545823139913846 2.654833044409103 2.9907618731399457 0.014888744186374358 -0.4895305857096667 0.38548883940570383
Ni 0.35552527107558807 2.114566238231863 2.263953705458279 0.2408969395935206 0.5849845903446184 -0.6156524517421204
Ni 2.8706433910888185 0.882876282884613 2.308895905337456 0.5114091309503128 -0.6444845454824643 0.014111499700717633
Ni 2.7571295872702786 3.602438362826531 5.465371237466763 -1.6370908025760837 -2.2775232894763615 -0.04579468973661145
Ni 0.0460386027269325 1.2728402333158397 0.08143018652510303 -1.5973382052684941 -0.08394343289219092 -0.029166080040994927
Ni 7.198198891370751 1.4784462489574177 10.387794218164556 1.3495905613017274 1.8632684336815588 -1.7040438715578654
Ni 1.7726648745698759 0.9403459873296349 8.19338190325349 0.395096537698797 2.8625533883469347 3.030193942448465
Ni 0.8403951275499281 8.014995565496914 4.587811898760018 -0.2150856349573715 -0.22621619765289427 -0.35419491438842876
P 4.260664609690028 3.03472865902283 12.44729646050956 -0.45527474985059013 -0.22614780630880404 0.18680709972765247
P 4.382403779611918 7.9641333529787 13.342275380132786 0.09590034814375097 1.8546603802975736 0.12872227976977832
P 7.915343895202608 4.7657039642319345 7.006565681226062 0.08193257310974922 0.22357387493404074 0.37877106106589603
P 0.2291922763903893 5.364814495531666 13.061253918310552 -0.6384581367827262 1.0511078528739382 -0.4444519482034732
P 5.3783765016724265 0.5102475025432653 2.62737795410769 -1.0918097014686745 3.06332286379195 -2.1881306605441413
P 4.831028565041332 3.783049394813113 6.077969680959459 1.5318077276658522 -0.4995188072706301 2.984377398334983
P 2.6597851462364344 1.3015492933413335 6.065972088805061 1.4862552358470338 0.8272490997096269 -0.07469671748294232
P 8.175235451330156 3.1434216667443087 0.976435367294384 -0.11114081924258923 -0.4672725456424146 0.5196289477569437
