# total energy = -381168.19823762664 ev
CRYSTAL
PRIMVEC
9.23862085185385 0.00000000000000 0.00000000000000
0.00000000000000 9.23862085185385 0.00000000000000
0.00000000000000 0.00000000000000 13.52165547079307
PRIMCOORD
 96 1
Ni 6.545886126519561 8.938845947604923 2.225096854325749 1.2910848517563507 -0.4634048351568923 0.8041708777339248
Ni 1.5914078494495734 9.113428163208726 1.4083612095489935 0.2829043943735579 -0.47185759390993576 0.20205219881218106
Ni 1.4790015512407857 1.9502081620602987 8.764155640138785 -0.8813517950913013 0.14395015246312629 0.3064474718008206
Ni 3.272615092224487 2.471598960590023 5.001362429461699 0.3090116329835711 -0.3566786000422309 -0.4513520177574162
Ni 8.553761759067182 8.8394383887386 0.7715135202512198 -0.3516148123660783 0.2364784988108508 -0.8803578066091484
Ni 5.340255362161165 1.9521852268927702 9.705438054602602 1.4829374843277106 -0.6769958878466081 -0.293489626088572
Ni 3.9387381228359795 6.185469055284151 11.54501927680334 0.8000468282632222 0.637473918492586 -0.24126332179400384
Ni 7.86036632011244 2.860960630517644 0.26726867790179404 -0.9233348243913067 -1.0888449624133956 0.5734963871993607
Ni 6.739028731134743 2.07880976237807 2.220282609072474 -0.8380256214998406 -0.22528880074261845 0.6428930326256282
Ni 7.57572441596082 4.726321299954493 5.357347734341331 -0.06850575818088202 -0.6139838057904458 1.2557882333375856
Ni 8.083275760663243 1.3806287178942602 9.616912667073514 -0.2468135621882717 -0.4874510774728186 -0.768840834974063
Ni 2.6521770410362273 7.240122279959142 5.615043353460849 -2.680810590516067 0.19432963335694273 -1.9592741970549228
Ni 0.5343359538720559 2.6448508148112273 1.5080570133815465 0.0761020824709012 -1.2063389775675226 -1.179852758351536
Ni 4.2885123030106085 8.361755504799635 12.990497568926807 -0.8272385581866657 0.7692630101131461 0.40460319163765157
Ni 5.725588993458143 8.839198184600075 11.106931273513936 -0.7218567529150407 -0.06426266663381192 -0.5830567771942862
Ni 2.7796515296270754 1.8538955411326574 0.48342930602212886 -1.4849002644810363 0.9057554207466466 -0.775167291412723
Ni 1.5115954051144278 4.174784882039935 6.372228696849079 1.5703963865723276 1.190664504255059 -3.025785271857808
Ni 8.238087327942331 5.568597111690909 7.55365612266491 0.474149475267906 -0.3162857980474811 -0.6999578959594204
Ni 3.8292697060137613 6.610639619093359 7.327574139761439 1.52450913712191 -1.339464785721635 -0.08713905701135315
Ni 4.095656095637513 2.85886346361591 2.3670741297110545 -1.0516254159403051 0.021296704595247195 1.1379494332495304
Ni 0.2792844280004502 4.913384892140861 2.085188106117969 -0.1315512645781412 0.9067771771429415 -1.1982428308229494
Ni 5.17399714381931 5.505802206708159 13.347293100842922 -0.11584748068963921 -0.29348525521319774 0.2492201147472353
Ni 2.334590215423891 7.026165062878733 10.100825152958906 -1.2303391971368616 -1.801127955597072 1.7938877290948911
Ni 8.02289213568645 8.715890313950558 4.549117163792488 0.9853205220654837 -0.6578265140070091 0.41914329423535557
P 3.9033911599900173 7.688685031412357 2.2446762632017156 0.72904530024368 0.8436465672310438 1.1378257631874726
Ni 6.406641635141009 1.7793675878450521 11.91037439080957 0.9504450503445373 -0.9812255260605036 -0.8692650391300965
P 7.802597224797279 5.832840141309365 0.73891412320515 -1.7383465014944772 -0.24491146006955244 -0.08482429283524746
Ni 5.80257441985527 4.943197921180046 3.8462890930902986 -0.45123194723978416 -0.1554219005481517 0.7006734339692062
P 5.575248918603898 4.181187246193686 9.219280583884078 -0.7355260228720172 -0.1067663443239774 0.4628314791519255
P 6.170188376625704 0.6347791621202489 13.991668418297229 0.2784874962527849 -0.20817502388046727 -2.1557159916588615
P 5.3160871303773085 2.0274153153545242 4.043298984335726 -0.9152397060879981 -1.5719434193444735 -2.1968130188094874
Ni 3.3593657407147086 4.933728334949749 4.842253055827165 0.01418297636860138 -0.2432297014917553 1.0245879522065386
Ni 4.12841624468398 1.7022158662751017 7.102019682100651 1.0186193933279295 -2.687700632767681 0.13534158485850886
Ni 6.8127067313167995 4.084117058367621 12.166825567719119 3.563919220397475 1.3235643124412946 1.3968317536768782
Ni 5.481061180440128 3.138183922237139 5.727096736358421 -0.5839042127962459 2.717023035880882 1.8006325040178925
Ni 6.211198613968419 5.828682761988748 10.787616825828366 -0.42668331136614257 1.2300250083305526 0.08738536869420434
Ni 8.410479990437274 7.94667351480846 8.195515763699207 -2.1131909738124577 -0.6713590012758051 1.0790827408203094
Ni 3.4353903505577357 0.013824672034160445 4.051128715389556 0.299158137228259 -0.5077445376145321 0.39562027141275097
Ni 3.459216753375231 3.672610414592177 7.3342943124677 0.5216637187987855 2.7030963984974608 0.6014306517157835
Ni 3.521974703875132 5.320004305559402 9.24343033842651 0.8880420626272836 -1.4875423300895738 0.0004964800204443062
Ni 5.917807736002077 6.816790201671718 1.8890161577711637 -0.4570997188744708 -1.9427062653939122 0.24888689977753264
Ni 7.819217503459037 4.3632527445746 9.664982134502639 -0.8455460982466019 -0.751639383494112 -0.6993125490659375
Ni 6.069321115686807 6.236096696788562 8.425951908544471 0.25982257285342997 -0.21548544149895144 -0.7314803920477337
Ni 5.887930036617905 8.988328000140985 4.355568983728028 -1.7878050132359211 1.0245319021576227 0.4357346229351335
Ni 5.013217427559959 8.494662302369425 6.581057555571987 -0.6257103501987547 1.175302419976692 0.06842322576940474
Ni 4.989427979225313 3.5907562350795725 11.369818997473873 -3.087278346166283 1.6894243218724778 -0.6512995115217687
Ni 0.19724362834945344 7.385011568593021 6.214525441286984 -0.325995054915445 -0.6215909287137423 -2.120094128690194
Ni 3.7882040369467718 1.7061792345607572 11.836235383453962 0.12456120641355323 -2.3525465370607868 -1.0636617782795488
Ni 9.376738092135222 4.405177605367851 12.919508931234153 -1.436010737869185 0.3171735999690731 0.736419224110248
Ni 2.8670211657050326 6.8123741409711505 0.6190310092537493 0.5965936353384564 -0.8023960452216891 -1.7715561554772263
Ni 6.861717614196525 7.161178265970968 6.259106405535073 0.4189113807302076 -0.6380627011165204 -0.755850593361982
Ni 7.767102444019918 6.115966911664137 3.393746343834145 0.737813276244297 0.9006399538969523 -0.41180716558525854
Ni 9.367776630044112 6.3176182859555166 9.569194267231465 -0.1150740928587244 -0.07071099336231693 0.8366536808529784
Ni 8.616067017152172 6.879751401827294 11.916891313860155 -0.4586974023788939 -0.5653228502496328 -0.5122162002326404
Ni 3.3572870510543997 2.9745587107983416 9.741987885865331 -1.299605487632852 0.4199727321151864 -0.3786481623347866
Ni 8.178904723658162 3.5609062515575376 3.2841799976323744 -0.5916077520880908 -0.7712160200744589 0.8374576648115125
P 0.387230320129251 4.3380035941673825 10.654983491431668 1.5468227130174457 0.1483901905123509 0.901581234764299
Ni 0.4789494988386456 6.559245172069812 0.4698041881953581 0.616337650734603 1.5756584063022154 0.7436712776869708
P 1.8792278391262873 3.6536804807522985 2.8241733667026057 1.304362285591547 1.4984852022543225 1.2854554213847154
Ni 1.7917103851169303 5.7399088555624935 12.165757583164755 -1.9509263393108591 1.4827477369144075 -1.6713708068048765
P 3.2150954396685645 8.717137527746743 11.07733258047528 0.18431004433741163 0.6133528570746662 0.4946005440334063
P 7.2711548069323735 7.662382678243915 10.02126399910714 0.36285387561500737 -0.22365306491140838 1.1897980424897057
P 5.244210661234186 5.2709195137139755 6.142414311177764 0.31348946624926655 0.9528176643417721 -0.3916648863094287
Ni 5.1544759382538325 2.45466456882404 0.07376946252711022 -0.7757722719865736 1.0855773474057175 1.6187691214487607
Ni 1.3540769219665825 8.332783190245287 12.692074414258375 0.39151704787765473 0.19732882519458275 -0.9653888161385633
Ni 7.949999418264955 9.185064428213323 11.843144947884827 1.242768166928834 0.2631794051408048 -0.33006433988881223
Ni 5.647633511886207 4.1918670917373175 1.6533066082232135 2.4080589683057947 1.1567308276220918 -0.4014070532978571
Ni 8.767118465801278 2.4638200419501115 11.538555937752886 -0.550713070756258 0.2338814275076359 -0.1835885927903548
Ni 4.1892340848342595 0.6027119096272182 1.6771995291098385 0.7866246413200453 -1.4900147028894661 0.46845628153787067
Ni 1.3501043150602146 0.9127784979795925 10.936315197782005 0.48230784270898225 -1.0117576332110898 -0.08036908527737126
Ni 4.320080669985164 7.56136759937362 9.370074275015307 1.1972257024123447 1.1002619460010856 0.18880510399428777
Ni 0.8959207867655237 4.307331373401937 8.363103419561588 -0.4135714565745329 -0.7968807718304146 3.79068126325151
Ni 8.87373214882334 0.8093549106895526 2.8292573796806852 0.1583125918323854 0.40979836268534586 0.4975850805830269
Ni 0.24810685468203186 0.3046684622700701 7.211030787197601 -0.459609372670202 2.2034127835141923 -0.012230480627920873
Ni 7.079277893354802 1.6891986496912124 5.194709207594627 2.632265591727828 -0.18670142738772363 0.1554409267115452
Ni 2.121122645241245 1.561197559719752 2.9454496646574486 0.24868995327537818 -0.978568805163947 -0.5200086996938657
Ni 1.8754861977377313 6.856183680389747 2.663103557752881 -0.017676591344156653 -0.010344062238485411 0.2535922756730019
Ni 1.0489068025918244 0.15718589280219583 5.0869684128456445 1.1825125645718861 -0.44786971563577055 -1.5830187033220284
Ni 3.7593425858409732 5.44130739551431 2.666308435278042 0.060427866268753995 -0.35421933986846094 -1.1617848451062314
Ni 0.9761249486188788 2.50272387377038 4.671975113613309 -1.828250265735161 0.7307517414118254 0.04292379594671962
Ni 1.3897749523996192 8.445762282938249 8.982246216125958 -1.7335588502978467 2.004776809472412 -0.29544289316020084
Ni 6.67373015993891 2.850613375319662 7.859353767282351 0.377737220484743 -0.2678834954846935 -0.36567180467977667
Ni 6.0994390192095045 9.091467961775152 8.67606169619697 0.41119395748129184 0.31996658933317795 -0.213784913868077
Ni 1.8691392653082552 2.9861162253096585 11.948653691869675 -0.16529699357001854 1.0124101791934241 -0.4249203059284488
Ni 9.059918072042022 2.955074459715714 6.738435611685002 -2.541523390746249 -1.6639416042203408 0.6522423350510121
Ni 6.506825238147181 7.637983480942246 13.113977277921578 0.8189668050961766 -0.29260748059393477 0.38883872971454325
Ni 1.5774667707944359 6.267212371348206 7.519662617753327 0.32618737343190923 0.5272759227792404 1.1032670513759966
Ni 3.5365347701180063 0.6201396437392472 9.047109648286234 -0.09796982907826998 -0.39807104694608864 1.8813772274671277
P 1.8651943742640247 1.6689753089515857 6.731823530841077 0.8073634165292936 0.8171924868045732 -1.7493374532883421
Ni 0.5985166519616795 5.11120223883656 4.390359781607098 0.6307455986298169 0.5322435511971608 0.5949059632233883
P 0.3855544343320065 7.409235232101152 3.868058978937195 -1.4652421239304767 0.43235439360899086 1.891486033766355
Ni 4.53395473947916 7.178916417738938 4.551240198832216 1.4313416145282898 -1.5013321847848142 -1.2812434401858965
P 0.5198701215604492 1.2465948085975485 13.06546158511204 0.3523748304605544 -0.49451389785687083 0.7705986982054341
P 7.295258368371243 0.2736581079865477 6.872367896153877 -0.5694127040482904 -0.2754037151211386 -0.3364820704896979
P 3.1855872851128924 4.485063958668697 -0.6841549705181174 2.5308857085267444 -0.9255336318148383 0.8505366094826579
Ni 2.6574800093251922 8.85289905911669 7.187530507691257 0.11448016802846736 0.3313074682672939 -1.0264771988094517
