# total energy = -381169.07183066977 ev
CRYSTAL
PRIMVEC
9.29726876818667 0.00000000000000 0.00000000000000

0.00000000000000 9.29726876818667 0.00000000000000

0.00000000000000 0.00000000000000 13.60749262456784

PRIMCOORD
 96 1
Ni 1.0131047967660087 1.0168422988611185 11.97215823479523 0.654793126497324 0.8491548986437827 0.4028491850610223
Ni 0.6320283393670919 2.0635567226764366 5.587427102882788 -0.9847718486508652 0.13285455677059702 -0.9332847365151669
Ni 4.0270655347919835 5.683011394648002 8.1162163717997 -0.7941952545784516 -0.2279054124298591 2.3659738662102865
Ni 6.643131055991046 8.931570118658822 1.0275955200631188 1.638251398543088 1.180839033524205 0.43538726689804375
Ni 6.6822353689563005 0.2160257616435735 7.050000926480668 0.4369610391430668 0.7292039373087313 2.537940044270365
Ni 3.1505469153375656 2.092768741539211 10.5126999260035 1.42439217979365 -0.545096753010745 -1.4869399206188842
Ni 5.369516784834541 7.284531042402593 7.106499499818414 -0.5518348430655271 1.3034431162113875 -0.2789963175684034
Ni 5.572457570237674 7.73614587889504 2.6476371869069593 -0.8629820343348623 -1.4426850645655669 0.4265097619027558
Ni 7.199414545684356 5.842292205328157 10.852778216763594 0.5722720278739564 1.3424431516236688 0.01681681444702265
Ni 0.05788851503729422 4.779326155487337 10.03359399512043 0.5166058446599038 -0.3601490750893346 0.2785142357256623
Ni 3.0336430562731076 8.336898205705042 3.2499867845128323 1.465154963533309 0.17212404379418098 -0.17680190888582453
Ni 8.181884841446914 1.4563520912544774 8.945824691326042 -1.0335572455846846 -0.4415553433819686 -0.8924687309400695
Ni 2.166198571258559 6.796591776343992 1.6331033999120492 1.1153468653586662 -0.11547004274556243 0.03168241870494544
Ni 5.549893098633614 3.7122507127956736 5.087215441885021 -0.5027766520862954 -1.4845603646431142 -0.0922619800602153
Ni 3.0686658681942 1.6063356330413257 1.3811195210967167 9.51308169675781e-06 -1.3942987028423792 1.1146819780811577
Ni 4.819713491559868 -0.02518351225130394 13.342990327861502 -0.4399013527183134 -0.5880112929860841 -0.38597503501350305
Ni 9.150390639331723 3.243556793346221 7.877323047586146 0.5998303971081992 0.11740916874980425 -0.6989232840473188
Ni 2.26220216985086 1.6067819019482044 7.117004483940962 0.6274167913669001 0.4127505033351343 -0.047935904449330345
Ni 4.948601530227799 0.687342440647829 2.931625054433727 -0.27022937000905073 0.47971128562639964 -0.6585353671485755
Ni 8.417542716085597 7.286427685256828 12.466395470802158 1.7774768918370354 0.2156422787917899 -0.7415529457923874
Ni 6.086168865668524 4.656890421431361 12.58135155203347 -0.15561781860904167 -0.3702758791106913 0.7829158250098903
Ni 2.2460714083209696 1.2988842480085163 3.6524144199252317 0.45690817168895503 0.3680719294808371 -0.31182904782770815
Ni 3.8403763754143547 5.450105511601737 5.94173858259165 0.32431201078606725 -0.7797672520785797 -1.82099409839338
Ni 4.180637822371648 9.377132433101725 10.82270620052819 0.9443142548564512 0.9662390799540004 -0.9931623867074058
P 1.2923389707076272 7.916317652778459 11.625044700663569 -0.9270888921171002 -0.06817717119686968 0.14844469789937015
Ni 4.157496920096205 1.3891328371558591 5.308078572533783 0.7739323905643575 -1.0764298765784945 0.6825057619212439
P 1.9911402952664587 4.340085983891884 7.966806471503569 0.5452073104466804 -0.7021073382022552 -0.018547681095200316
Ni 0.7856638483752314 7.9215055288209255 3.525864644383967 -0.7492266602875614 1.447184237987501 -1.0139638968337892
P 1.2582179938691864 0.2631368825797449 1.6898873994048182 0.3381484024485273 -0.14836987879737673 -0.04240417599782375
P 0.63394822539356 7.230616180090299 6.47120688934288 -0.042495450160049394 1.539515123612439 -0.9753330718354688
P 7.190489167546781 1.5860954786605934 2.217763083994625 -0.3458329155769786 0.0002627667430834184 -0.8049139265475365
Ni 0.9660420216280825 5.639853472445265 3.174042973284734 -0.5842410273103744 -1.6200387321898038 -1.0163403674857658
Ni 6.120996434942858 7.869933578269744 11.64099230599626 -0.23726397082662365 1.4389698204975088 -0.8386370298315945
Ni 0.891624821952265 5.104293595115139 0.7209901864996008 -0.4305283961438456 -0.604052662719663 -0.6189257231767534
Ni 5.752285345172041 5.059480759049393 1.6042827960696828 -0.28287482668720315 0.5683171569912664 0.021233712567795687
Ni 3.0001449964505187 7.613970468368076 6.793146208492131 -0.13747020116573744 0.374128162977246 0.7601574482674521
Ni 8.799976574742937 8.986823787691753 5.26566443184251 -1.0563012241494194 0.2801769681400658 0.6293962836907742
Ni 6.401764658251872 2.8761287266826807 7.464131963975963 0.8115761690590605 -1.0983601009926827 -0.45676958922856176
Ni 3.2382759446148217 1.4695356185451884 12.711276236183004 -0.15050080909745048 0.8049278105046074 -0.5300028347921001
Ni 2.5504825864256673 8.997143756163325 8.624987098540648 0.27341779503936137 -0.05061422261244187 1.6089392798425324
Ni 3.953486948770342 3.344989996972213 7.355666306159073 -0.22462442768574217 -0.4886882923140294 -0.3813917865181947
Ni 6.00664932482406 5.0144261939924215 6.943318484837514 0.23793785696519668 0.6812497780269557 1.7180129321434474
Ni 9.036824499799964 7.474771758497465 1.3290455180252974 -0.26410345961697096 -0.692191107529808 0.23524565484501422
Ni 3.865125705208341 5.597430034485099 13.567854073315054 0.41532700581305887 -0.3824225417755543 -0.5739432449287922
Ni 7.775575596271559 8.654037344924678 3.1027533748646254 -0.5538631863494655 -0.5473269278928444 0.22882663869254785
Ni 3.2328091505055565 3.230438346937763 4.531621809543594 -1.0230064666520318 1.9525373925517213 -0.38191603445278094
Ni 4.736149638746814 3.155818466800071 2.6481810771372176 -0.33618716495709844 0.3465525673518225 1.1380710464290593
Ni 1.4672670849352214 4.34746801539317 5.884954583098881 -0.1918310353048051 -0.273761037311393 -0.335388580315203
Ni 0.8131456454969611 2.6198681041764265 0.5408816340446556 -1.1187245235816476 -1.1365512673504232 0.25357402084055686
Ni 2.848329892691689 3.5628250071424246 0.2776118005197364 -0.02971475345561334 0.9600126394283143 0.32924004421530395
Ni 0.2438775900672569 5.5841070481609885 7.670502511873837 -0.5354499739496004 -0.10062037932723962 0.17403591610491317
Ni 4.69022113041387 7.484989457011211 9.596276498732113 0.41359562494424895 0.205729133443136 -1.0407180249991819
Ni 7.399045503361471 4.167807591298883 3.615197452545319 -0.4374644611420466 0.20287778003726997 -0.945413915678533
Ni 8.559381850321907 6.291796561781823 4.728114009242327 0.8261324696066804 0.40460781962334186 -0.529658564078804
Ni 2.080319698491071 6.850367179622887 9.763512052677385 -0.47356994861535223 1.0432189370441647 -0.28483606417863205
Ni 5.855261895434322 1.631540529011084 9.287154394479176 -0.23947100578027145 -0.9111254268093083 0.7266318057061808
P 7.8038950773205755 1.7684149216583673 6.136503349730007 0.9161406206357126 0.9455810373840167 0.19680097771557076
Ni 1.8239568060269906 -0.09521797937081601 5.4371051405082245 0.4935435635238017 -0.6303128819677725 0.27832011743698515
P 6.244836056601723 5.504104049334072 9.009357578308464 -1.1503094974767802 0.05559933453185909 0.26865636909497603
Ni 0.48416643434169687 -0.12804570610619795 7.637205273059342 -0.8997184705239473 -0.29596071333688384 -0.1615454969473863
P 7.4666738372913946 6.302348961975728 2.6013033176502685 0.039890922657666784 -0.144583415171751 0.1762288099911739
P 6.936125187894762 0.56884317024128 12.676291543064373 -0.024370458424564482 -0.7127046541021275 -0.27842964643165596
P 4.158556808750041 7.506233716432421 4.904997339118184 1.0443502224351304 -0.14932607206305895 0.4013414901672443
Ni 6.68762778491442 1.4435032656439255 4.263921827391013 0.5045697394309762 2.079247012766845 0.6927945454417618
Ni 4.317447134136678 5.796949424935494 3.405478958118966 -1.2906446788951385 -0.6979809747387076 0.2730537268317233
Ni 6.230304425321482 8.736113634714803 5.096822309832476 -1.7254686170905447 -2.722005319586822 -1.533916546478739
Ni 5.303627040187667 2.6779667374907095 0.506554257836783 0.21793775969418597 -0.35194159957787774 -0.783516948928999
Ni 7.089697475474427 8.806819364648412 9.496546554767374 -0.681915950856045 -1.0653569065937847 0.05550446082520763
Ni 0.24821755518665317 3.455004579786729 3.2044831613683145 0.9225568085747015 0.1707006810840931 0.10993137231552035
Ni 3.3852006849357714 7.5815229999304306 11.823823098783166 0.7947043330043861 -0.46447364274103875 0.32042347436493845
Ni 5.642280059626419 1.9719135431950976 11.596985543143566 -1.009904382052435 -0.06852992655059811 0.46016498806335593
Ni 1.8031960045882336 5.653594835869574 12.0110347646726 -0.5883123691662707 0.7091295351563595 0.4676798083831623
Ni 9.269618815619507 1.2195041661974508 3.110209784517058 -0.8744401555731328 -0.6790617692367014 0.2118596718209061
Ni 6.499376684362715 6.799083444407398 -0.04253128627932772 -0.9426314678373895 -0.7697278655647066 1.7749844644324853
Ni 4.694414198684753 3.6321082549353574 9.768546523783112 1.6654585550854992 0.7811913861196159 -0.2858549923614496
Ni 7.596863493604389 7.221365397541457 6.698138347398304 1.2040758925649586 -0.15800483078397948 0.5836679284157238
Ni 1.2565723772750708 1.7273023986121585 9.2391200547419 0.4864496327914977 0.4716660467244199 -0.10829460804304575
Ni 7.9973898375281065 4.327488184541451 5.966545555452774 0.33870890293768763 -0.9782438177243604 -0.02600722269703908
Ni 8.835250412924148 7.092347197109019 9.25557157204861 -0.6443783589219031 0.2308629523962863 0.2817767085270179
Ni 2.4137755446184634 8.513481233795645 13.654982499021804 -1.3402417730969756 1.2972943230011722 0.6502319894892027
Ni 0.24154490530192585 9.192972130863076 10.218465538429417 -0.47230882251474143 -1.5514039046302248 -1.0994443351957968
Ni 7.879100685398546 4.314564980779752 1.1223421279010442 0.45651762111875577 -0.5079587105078671 0.999583202632085
Ni 4.500333710536944 5.727907906133787 11.112994827183952 0.45965642385805355 -0.8163841319706651 -0.2645158645640412
Ni 8.985736007231235 0.19690313898381717 0.021655198706293476 -0.6010308451742036 0.49037467887751673 0.3348404211212169
Ni 6.252338952598622 5.9053555802314674 4.887661651539721 -0.43577036126907526 1.965448958407067 -0.7866436674834387
Ni 1.6440174638659037 3.340638875130145 11.451562311748885 -1.9058099065881948 -0.09179661038802256 1.9469123330554596
Ni 2.004630632430649 6.474599462762049 4.920986782160896 0.2678557275705516 0.7993958249427845 0.5811713872461152
Ni 4.364444828392351 0.7873150433306829 7.860898492359227 0.5139475811014503 -0.23886396832389187 -0.8270644945026465
P 4.202774619606615 7.3837143069564055 0.8658695276640226 0.9880867719567111 1.7738902029270416 0.7455268428384708
Ni 2.645258945524051 4.688919512768808 9.955921821605065 -0.2397376291780968 -0.790727093524193 -0.6684310289957326
P 8.989027240419466 2.5125776211476496 10.55103256565061 1.2178937722846572 0.34151989002392147 1.2898270680898498
Ni 7.4866257763364334 2.7676946795800266 12.894269731175543 1.6390083313137709 -0.6926415648036652 0.12537907432915826
P 8.375909545981363 4.9960083043147785 12.81678815167249 0.6448465568075732 0.889884772262977 -1.0070949376280978
P 2.8037587856171693 4.4057804858919996 2.4352922140182467 -0.4287507354181326 -0.0883410477392543 -0.036407849205072784
P 4.143151234193829 3.686274143507771 12.15455298567104 -0.1669982925318414 -0.5279937747818713 -0.8441312201769463
Ni 7.1811268177712195 3.577765718253971 10.572491591983255 -0.6150765246339923 -0.6770043724870405 -1.2541838649649433
