# total energy = -340892.23896995664 ev
CRYSTAL
PRIMVEC
9.06949841927524 0.00000000000000 0.00000000000000
0.00000000000000 9.06949841927524 0.00000000000000
0.00000000000000 0.00000000000000 13.27412769556302
PRIMCOORD
 96 1
Ni 6.184282307705774 1.9133013661314433 11.24856229110801 1.6781788308656453 0.662265009394337 1.1141379326522296
Ni 4.8571426181626665 0.2617937899307639 6.141540482960953 -1.1334785419623705 -0.3328539868188074 -0.638555581592539
Ni 2.6492185990222166 1.4077947381258107 4.924647801127461 0.21862115891445574 0.6768601335996923 0.20000611491642975
Ni 3.2102577652570057 4.56603893050282 4.819490595876476 0.5128348076532458 -0.3208559339166668 -0.8126010107791489
Ni 5.224792871665086 4.638830724039847 2.5489507603169352 0.40454817003000004 -0.4209574646259589 -0.602261118036879
Ni 7.233650472123229 6.254126514287962 2.8414466159692964 0.646495662375222 0.016731968042700215 -0.9925967440119229
Ni 5.0041319774767175 4.676777505021521 11.608051810019772 0.43290820922993184 -0.6692221574384604 -0.05090989947598974
Ni 5.62916552387563 7.829090245495564 12.397849118545327 -0.3519205165319552 1.1012225101421422 0.24476027920366877
Ni 1.787525563393906 6.572810546346773 0.240310869254069 -0.5212250885994701 -0.028101643332222568 0.37198591982326257
Ni 2.8537720641896827 1.4308947503534215 0.3059658745610568 -0.2828133773216484 0.5423341026639434 -0.04134051061999977
Ni 0.5972917649298052 0.003620543730373873 4.3971739412347075 -0.9629462681353416 0.17042557304583553 0.815156687321467
Ni 8.68971308032181 2.2581055533592838 1.2373743298953743 -0.4541444929008889 1.0793750752497475 -0.1937429076155373
Ni 6.770416775799141 0.7600230524823585 4.798411267875136 0.48690754626452276 -0.21703118871951654 -1.2705265679890247
Ni 0.8112122079648313 7.428699103048632 2.5440659285203937 -0.36387614623193465 0.5580188603890519 -0.5659388865670769
Ni 7.697428338346673 3.9830334393307436 3.689251528816241 0.41123380958029176 -0.14785591527543568 0.014664543990710228
Ni 7.722759447161637 3.9283352949472645 12.492812207681732 0.032780022644498384 -0.4881234209494948 0.7200842343956502
Ni 8.181032127903276 9.047613623127456 6.873528809178384 -0.9717654090888684 -1.3860997119713547 -0.4115683101015751
Ni 6.8289150399797816 0.733022249026206 0.5757761940591489 0.1178313438888874 0.058755106552021395 -1.3092368400750292
Ni 2.279754445855282 6.389352734277628 9.260615325982405 -0.979860527392177 0.6637683334127408 -0.4144322619129314
Ni 0.19154326982372497 4.896150530448082 1.363133807535931 -1.0507142169799453 -0.6490215141208693 0.16941975748914048
Ni 6.484373868203296 1.9198314049237009 6.855277350754025 -0.013907354109711534 0.9498853211863253 1.4598194102530084
Ni 3.2683751105080976 4.251871508608655 0.4105317485214088 0.49032557080713624 -0.8908972726878915 0.15160226969174537
Ni 5.9871114141728885 5.510944613240802 4.768676917624558 -0.41366967271529403 1.142768966125361 0.40683722317449283
Ni 5.28070632882379 2.8328396620611684 9.207174214066436 1.6544773734836473 -1.6149260935535867 -0.2465394825912786
P 0.04954666933625367 5.720685831448783 12.468693690792495 0.9058346107240143 -1.1576880493290385 -0.9504766749134211
P 3.9034304525534607 6.0664423160004946 12.903540764316741 0.2919397651029489 1.8039952498425382 -1.5166240779468785
P 2.2551851748994127 8.546959176724403 1.2185995614178016 0.401738982715979 0.7586224996801645 0.4495769281348644
P 6.381961093144724 7.6778200829732555 5.743794913174717 0.6211224737177561 0.2822377073238365 0.5283683845124707
P 4.737271058833128 1.1252073093908679 12.566470138308564 -0.40294457298830605 -2.074426708560066 0.49484325617183167
P 4.095857998463637 5.991056645943211 8.156646060813522 0.4891441489045253 1.0090685164147009 -0.19420262086077522
P 4.635329897687331 1.1829437357124113 3.875328612000947 0.3146953136319096 -0.42648327954019455 -0.45670582587016184
P 0.3184146679586299 5.653825489814724 3.6429780414246062 -1.1874398266701742 -1.185023761029514 -0.07518214175979311
Ni 1.5131278916442532 1.2467113784184702 2.4616468625139496 -0.3528108895567085 0.13234496412403013 0.034856702667869
Ni 1.9412172819683442 6.572366140928965 4.719058599251556 -0.5345367181067117 1.0432919563739451 0.46131967049308936
Ni 6.145609966858294 5.6192797707040185 9.19269203914494 -0.6023109974382079 0.2465016873748077 0.25768212947165947
Ni 8.591363440511754 2.5913098522325444 10.171539412405343 1.0301137671207743 -0.23338006239118517 1.4728165938436248
Ni 2.3678736915574676 5.241770972524955 6.9368203032225075 -0.12212328639602194 0.2858812176136948 0.7181890742554663
Ni 0.4834822582790797 0.12601342359358883 9.211647290639132 0.5823695213192744 -0.3680073947914888 0.6879271900471313
Ni 1.440535627070324 0.9417132193284327 11.542610844873197 -0.6915120791849123 0.8057392506623091 -0.5300889667480032
Ni 3.842438076334111 7.118812484362724 1.5343033563278126 1.2047657195431316 -0.3594222242256391 0.6149685383012183
Ni 5.664618192818595 7.796304009059438 7.997516271044866 -0.21681727293649758 0.059503040461639456 0.13416787626538185
Ni 4.844381834022796 2.9293300547150953 5.218484128631899 0.9026788387038519 -0.2227747760715131 -0.8941029241093826
Ni 0.8397094786442095 7.395141959255087 7.269589266176284 0.25104868331554187 0.16019772467024024 -0.0668355695673107
Ni 5.224357535745601 4.384258975623353 7.224736062221965 -0.7779867631393892 -0.20723811388849467 -0.22709474360310566
Ni 8.248146415490366 7.1717420765733 9.123109034114444 -0.6699860321876785 -0.12667516743276247 0.17223640100232915
Ni 4.600385120650431 0.20530532657840764 10.404114906540084 -0.5557629744753397 0.3984266305132944 -0.36846993625020413
Ni 8.448083506011638 6.820734352492815 5.2629527858573395 -0.018064570811194693 1.24595556351788 -0.8888252206502111
Ni 7.117488337607628 5.968899861541148 6.988562698102658 0.8519442884634619 -0.43578604499835916 0.3937338530233154
Ni 2.214200111979675 5.427922425595907 2.5479422321034644 1.3097220072415638 -1.218627050906256 -0.0614208263096426
Ni 2.4640466517701043 5.278502440731403 11.437996902571735 0.5128432922936781 0.1409509606254863 0.6222743279340122
Ni 1.1032047064602892 3.238246237080487 3.9377031797646573 0.5703095048309469 -0.18759668550848338 -1.4570004527469744
Ni 3.7518882050814737 2.910356664224258 2.705811361605283 -1.2850149914131868 -0.9352176918718216 0.035541387439719435
Ni 1.4066791898321334 3.478089120221111 8.327696799177378 -1.3771923821793959 -0.1325812485045523 0.10162182400856046
Ni 3.638147626618 2.5182822517391314 7.250168749418144 0.41148526346946557 -0.31664703804164174 0.3341932744555212
Ni 3.9355274071170703 6.913089053911645 5.946609755513744 0.9398564761954136 0.22638666179248754 0.5935911010667068
Ni 0.8261551134011138 7.400610866743602 11.175488436173152 1.221114078994168 -0.36563272391172513 -0.28229838535844287
P 0.2775021610254722 5.498074995121061 8.120712708459461 -0.16569834277349527 -0.4395413982757333 -0.22227161118284944
P 8.589721861315368 1.7059998429722358 8.08054571428842 -0.10426543227899461 1.5088480335458851 -0.43738527116467896
P 1.8840159560478331 3.3461914061158327 10.61092576984004 -1.5774286108287605 -0.4652470305719536 -1.0784988432923812
P 4.245087523863366 6.122265078175973 3.634150698707239 -2.1009522656544206 1.0015853206637784 -0.023980936295629668
P 6.821904317776427 3.980756995251776 10.584417440142804 -0.410410542348048 0.4508408824489526 -1.5150842442635841
P 6.292617465168991 7.942912449443941 10.222259674824539 1.3681014756217214 -1.5530072445616028 -0.016567674550694047
P 2.158068986861228 8.486211676959764 5.895823285756793 0.8031843454509393 -0.37560603307435314 -0.7185737112883946
P 6.9790515152117685 4.044007676553448 1.340010214612681 0.47704376609656546 0.0765121734251263 0.9125217929362026
Ni 5.3567177942653315 2.9099303978030973 0.23456171426738565 -0.0404863901498206 0.7756455166007222 0.5382362784454859
Ni 1.3902906063632317 1.0678699409955184 7.143869694328347 0.11749530070570734 1.2104036345551992 -0.6462146407996936
Ni 7.114976086572273 0.8000830265731936 9.371772911323609 -1.318378397364981 -0.9706960872840896 -0.7441947542906087
Ni 2.802484051175494 1.6782290391084964 9.333132313720256 -0.4415586858160782 -0.4304080685158974 0.36841568597350094
Ni 6.2430254483411245 2.2283485293628993 2.5454862119577095 0.5882339505198515 -0.27344839116698066 0.3238870074335067
Ni 4.398253211535094 6.676493051170505 10.427185896373063 -0.40218455489382987 1.0430569575450037 0.27298045039162666
Ni 8.18839656054121 6.9869691872473805 0.4777566839880351 -0.12222227386773143 1.4727739135311475 0.8549483653971083
Ni 7.430113944786955 3.8117468940105006 8.43858864821773 1.364119608155838 -0.2502297869586723 -1.169437990776115
Ni 3.1057045885943055 8.217772665608047 12.249749652636591 0.3905960787252821 0.1943160065101879 0.2384970719027763
Ni 0.37162360071754125 5.091525663313097 10.406597228230973 -1.1104481425054682 -1.0494268656270895 -0.9750304529933853
Ni 8.552282972239759 2.1530716932854865 5.784081624723616 0.8251130272032307 0.9808190346507043 -0.8538294213013164
Ni 3.6986411804296075 2.697658789563116 11.331803960612312 0.8777108559046045 -0.7319830427157652 1.5229011692048418
Ni 1.0226222138641674 3.338037927123833 12.72934381698478 0.06719578112020685 -0.0920056410750351 -1.3006521837298115
Ni 3.107400584780628 8.71860850197755 7.958131067629231 0.8039325364708734 -0.9840359989261053 0.10315471571331912
Ni 5.244691350984825 8.010788574890128 3.913796889136169 0.6263230440820892 0.0685011301951917 -0.7425189092500826
Ni 2.87615558604981 8.645054870581427 3.4974670103371355 0.7608891842271541 -1.064288356119954 -0.490904840349374
Ni 3.622348560540066 4.1767942014943396 9.398639486204587 -1.3225078461523225 1.9131712320492729 -0.22600408164208818
Ni 7.168694725136913 6.143959318163585 11.347029834396258 0.2484315574076689 -0.02169831090904005 0.2797301104106344
Ni 0.36076106257658735 9.095890562698548 0.35409407435965895 -0.0117954499730313 -0.3229812077897857 0.16989129780892032
Ni 4.732681892681903 0.3847471647903143 1.6671107411148458 -0.3463823603225454 -0.09155544091149394 0.341366909385825
Ni 5.916986053142701 5.811906845577291 0.39882211923712596 0.3843722093027574 -0.6536003917408034 0.5397866536517414
Ni 8.057850201685996 8.594728224389431 11.492872809122336 -1.3561468743630065 0.9355568203787953 0.07517905643599956
Ni 0.328479997197029 4.541288269580501 5.65675584472275 -1.1042052469195498 1.013529380399532 1.4506937938026565
Ni 7.8000043643750505 8.635976302760525 2.7721556487847865 -0.15878027549742332 1.1362602184725656 -0.20358714739946873
P 8.431304934114866 1.8483456191451266 3.366557871549018 -0.24737560533932884 -1.692451795844892 1.3859374753618778
P 1.7737852734351975 3.183412050222169 1.491388304165029 0.09358249864385174 0.021942051488729953 1.1361332059763982
P 5.010834336737104 0.908573272457726 8.191941827435507 -0.25032003267963343 0.444905233690808 0.5058702034099546
P 8.343611954833841 1.5076952621490276 12.337265776700326 0.4757165626447098 0.7374618064421492 -0.11523735790946604
P 6.385162626052596 7.804276098084985 1.3024098884669297 -1.2771425306436455 -0.07523510648491559 1.2662266550620902
P 2.0296630296101426 3.1819427914939116 6.05342667895776 -1.05563839375444 -0.2612035123613566 -0.07426297237963339
P 6.891993400813324 3.986869837121195 5.888548641152253 1.1755816417800076 -1.5747690617187267 0.3590147043745752
P 2.4463792690377186 8.61345673842556 10.076616229061559 -0.1283381569574822 -0.7150705832311427 0.6520605580575093
