# total energy = -340862.7289887944 ev
CRYSTAL
PRIMVEC
9.32631870281083 0.00000000000000 0.00000000000000

0.00000000000000 9.32631870281083 0.00000000000000

0.00000000000000 0.00000000000000 13.65001014030480

PRIMCOORD
 96 1
Ni 6.89740949303818 3.3096120308390793 3.241754669298501 -1.836124269166599 -0.4491645231877942 -0.9670808591290054
Ni 3.5507906299731196 0.14833416478604008 11.513032549775764 2.219329711854765 -0.41222162741485785 0.4286471199607328
Ni 8.059720601865637 3.772449244266187 8.38368613336368 0.5571937933845952 -0.7330881028544859 0.05822623063174489
Ni 6.725143062078982 5.31698086849621 9.575836798568917 -1.4030180849932483 0.6262040020057215 -0.5259947420739716
Ni 4.955791201548681 5.366065283316105 6.112283620198268 -1.1280260034882315 1.000357361793948 -0.18141935305317788
Ni -0.004481296089864901 1.2743295215961714 9.143704623886162 0.5448602115199068 -0.7497833041219797 -0.28383770482110476
Ni 6.6277296642462264 5.526934952939579 4.261696726719892 -0.24213852531010555 0.15576719970271238 0.15109062016264946
Ni 2.1184919238397333 1.9656149092610333 12.599805141059287 -0.3640579232254375 0.6562730534769601 2.749656505645187
Ni 2.015911745499621 1.1499630629939892 3.195303074220894 -0.4494972239368646 0.608207565428301 -0.6932493735909931
Ni 3.615394038952296 2.8358630246437255 3.6245552817183193 -0.4058892574389268 -0.6843649266171697 -0.739352595706959
Ni 5.645136714943633 8.277713972946808 11.86458906223584 0.015718182066205188 -0.6278410233885123 -0.13152683909810894
Ni 1.6315555031364322 0.7034273218571515 6.929755031225214 -0.5180806294332174 -0.8791324188424794 2.0961594722514674
Ni 1.44537420481807 5.688951759751511 0.6003202065158375 0.22228138137486234 0.6459698717787392 -0.8914634296040066
Ni 3.7021194756633333 8.891721484647839 6.8386005258085 1.6195088278282626 -1.5056362114768072 1.4941698627084201
Ni 3.230599459614656 4.635917126022799 1.7379464152586857 0.27545719406689334 2.454677439495282 1.5710833853370234
Ni 0.9890467617774878 7.8054851566841235 1.7074390944687645 1.3890338548990144 0.25366940876784055 0.05841237850062198
Ni 8.73612118503638 7.7914490471830895 11.723133990053096 -0.17249531109067068 1.6653649669304287 1.907854704932366
Ni 7.229100014237025 0.1519798227288667 13.191301717542611 0.7350675951783598 0.20441349995550603 0.27183939480864794
Ni 5.375027875495834 6.604152730811932 2.213390013544629 -1.5141841010468182 0.11280458009825732 0.12711739717650364
Ni 8.740392638957625 0.7189864191864368 1.7427513346041557 -0.014685369926316643 0.13701357324429306 0.18177673639259662
Ni 0.5835374961855317 4.152506053752315 12.74336236545567 0.49633732421885485 1.1253772530114747 0.8832019609261629
Ni 3.4230760229916215 7.973545417952314 0.5594466825960832 0.7634970541636464 1.4538626784489415 3.0433358791470617
Ni 5.063957844733391 7.780817043973004 8.613825169164583 0.7152536457762263 -2.5522022106163336 -0.8510341179443665
Ni 4.168155616372073 0.21116837112578368 2.373013687002431 -0.668311729809049 -0.6557063823402126 0.3446653776314387
P 6.424900887217336 3.08141566720367 0.6378623694297649 2.0282723214911904 -0.04160739112814125 0.19647007673871325
P 3.684110354436426 1.4483399741345673 5.84741896970225 -0.3560327389281159 1.5548545821829867 -0.31711009372098936
P 6.203932420501063 7.9410152186568945 6.064549656312426 -1.244773370284321 -0.14199328584707158 -0.22365563601456964
P 3.2041220410941014 7.185350253659385 2.77908719487001 -1.2749272681598816 -0.10236255882932695 -1.134035700017421
P 0.9860343608679636 4.611304971223312 8.975823427935195 -1.6756483511343077 -0.619318587739798 -0.34391384417739485
P 5.06129984393087 4.495658620517122 3.0090079948155464 -0.5596671946257523 -0.1854762967313709 0.5135632011788381
P 8.24980030136103 6.50089173121363 3.1126802850643442 0.009516424130867483 0.7664628216601896 0.4205620289597531
P 7.2895065798438 4.10350557579987 11.121632138969963 0.515346518331506 -1.9041775131910947 1.662346234708763
Ni 3.6981464639374595 1.5928233019684634 8.2963945891133 0.4178109485771772 0.30810891866364354 0.07896629139257368
Ni 5.478484727784848 0.32720362931781727 9.46073976802858 -0.6454371392037207 2.352570448320187 1.0583431942801127
Ni 3.0882705113785933 3.6276301689624995 6.513457080270602 -0.1859018143045637 -0.35496290290270477 0.18811090614074055
Ni 5.310555034977133 0.2949774680089324 4.716433099806403 0.6652482603923769 0.5859227858881715 -0.36114871999844256
Ni 7.538155560180715 0.29117606054539663 10.385514205137381 -0.98626848780105 -1.1408326683345964 -0.4141748944864867
Ni 0.8841583195825541 5.647319073497282 2.919136790838928 0.187623939201993 -1.7354234143104112 -1.3917983050180287
Ni 1.2120576922683295 6.668550960781792 4.76419504264806 -0.07580563427640492 -0.014441372236310611 1.8562266963434289
Ni 6.148580719578383 1.3005458031957764 1.9693277166978183 0.9412456432334564 0.5943901999292344 -0.5906389604169183
Ni 5.139323825383127 3.17539697978966 5.298346883922746 1.5622336482558772 -0.6722216063864165 0.3593006110461103
Ni 0.3181543023750578 4.119602801712683 6.631133770537176 0.8952910308802131 -0.9070592271597347 0.3294724719410842
Ni -0.3860489691900578 5.652579117190693 10.836660878192697 0.9344522744607069 -1.7885781439565194 -0.7500692107935146
Ni 6.115472288529433 2.7138467983300893 9.825741101390111 -0.22815506654681994 -0.47961641191974824 1.6081597213640304
Ni 6.49855082524369 6.337979597815586 7.604256775927909 0.724408572802617 -0.6433319199352597 -1.8986568404831816
Ni 2.2136296999327865 8.599443985875151 5.230028802243064 0.36582324265597643 0.7345078660201478 -0.9399210108847618
Ni 5.380651645614853 4.353171124864768 12.795491823300209 2.221521320189445 -1.1451017280235958 0.6603685637025722
Ni 6.708738067652193 6.021724133908575 11.851812005746526 0.34413958703495573 1.722374551546253 1.193087511874255
Ni 3.0793918560663114 5.059658411856331 4.338013991867372 0.0015025526874554768 0.4817321727111704 0.1714131337700854
Ni 0.28497312604098635 7.832428891134945 9.50123930657226 -1.4023825082917782 -0.7085741768735216 -2.9003792009454563
Ni 4.36206843281426 2.844751006274613 0.9822273576132646 -0.8222529320466162 -0.42032240214512123 0.22282671235537108
Ni 8.961780790011137 6.047175657382542 7.801362923860564 0.7053734105480368 1.3760181593656367 4.049623747492832
Ni 0.6523974369761841 2.987163891378124 10.871359446563858 -2.6627426772707627 -0.2995412315992906 -1.2863439946372555
Ni 1.5619998189778213 8.9229273467013 10.760917181639446 0.5779569940738757 0.7152567311000197 -0.32874639240833703
Ni 2.083107871051081 6.267304755424335 8.3186574442561 -0.5839870023180393 1.4218529583115642 -0.5558586195129395
Ni 4.152981696001188 5.584786107248491 8.531392636907581 0.727349914819128 -0.8393713368944575 0.1137474036275009
P 3.059219028922965 4.2357341209863515 13.22340663670963 -0.6188619598183536 -0.5022048387432254 -0.12306353882210419
P 6.0285416728090775 7.603477095692503 0.3564276486676438 0.14003719056196529 0.8241059260949548 -0.6419296402710944
P 2.824223779024264 7.2999240777259615 12.362513751519952 -0.6542423962001764 -0.41293408010085014 -1.7061100100582747
P 7.425614873570102 1.0511600436890387 3.675006002213895 0.5255820800165851 -0.19450755369570372 0.4276886127022054
P 7.57799759326272 7.240627344033223 9.965025939233392 -1.1268242698706465 0.7816217887888152 -0.7296906471371627
P 6.9996819028643165 4.178890209086816 6.300721887619122 1.209483950954407 0.5981085293210862 -0.8865405383810926
P 2.647042378160053 0.8285081764645024 0.8759157191991563 0.24491454539334595 0.8191038448946732 1.0475749000200152
P 5.8055587212740525 1.1722063328677204 11.590073537247019 0.06249143366600206 -0.5412634953075839 -0.6581630714108213
Ni 0.6280277664604361 8.774573596646189 3.7332917629698152 -2.4841813624916704 -0.20342593923125613 -0.26213990813269694
Ni 1.6799777493353467 2.6423885451759896 8.399588439217643 -0.7399128390858032 1.4140180356481775 -0.8800371900449361
Ni 8.761721929608033 2.7742720165740735 4.191863118266841 -0.11296013183951514 -0.19553213830547614 -0.6194350587130042
Ni 8.696652204698589 3.402931174804091 1.1274754435727983 -0.8639369420489638 0.5306867482330022 1.782146015177931
Ni 5.599605627512373 3.833695178547442 7.89755457395602 -0.7369640408701242 -0.6042670927233141 -0.8788421412955703
Ni 6.828693177554049 8.394386218699585 2.771866759005757 0.34793042153595566 0.30111500384431367 0.9501054076169314
Ni 7.201419500616382 5.166696570489795 1.7047904199848485 -0.05398725284973283 -0.02501169155298918 -0.8594562805697907
Ni 8.579392400873674 5.895585674771379 5.797500781999039 -2.0820857677672207 0.6791124199689788 -3.7730229267397988
Ni 1.6376455891857178 2.958951777596977 1.2365560659808315 0.4301355315808011 -0.8903905082548019 0.32254900534837355
Ni 7.9887193383231985 1.879822104410529 6.135638587249755 -0.6162301786224612 0.836295011961979 1.2647099613072477
Ni 1.6385782210462514 8.929698254008775 13.102671846572365 -2.366007290551383 0.2730349577786459 -0.05235717344547757
Ni 4.459948146577283 6.207103368826878 13.385746134145304 0.11963343009463268 -0.409408840556411 -0.5651482723449816
Ni 1.0902932765570368 2.244882193579274 5.581530289423368 1.5115399785557517 0.5670539740081266 -1.2969048008722375
Ni 8.050468893809143 8.96489578042532 5.462406154509247 0.33328798903243245 -0.5856751886537397 -0.9889673747894515
Ni 4.068401312569378 6.719808407836728 10.729508005840389 0.08322738066177279 -0.023942369748210377 -0.125188555584907
Ni 8.140784963183235 7.491766451437765 1.038588166209043 -0.016431663193462023 -0.20400186633938414 -0.8196046957904917
Ni 4.319810883213473 2.7737124374577533 11.752030655619876 -1.0902228165975287 -0.6392654631753699 -0.9398693317112201
Ni 5.706578501915599 0.9281542949713755 7.078335410822435 0.3748763539971802 0.4704504291497639 -0.4439896638550741
Ni 2.498567385963072 1.9295220562583753 10.49616164907111 1.136720445938436 -0.4033898880558408 -3.188305216903322
Ni 8.78597035798191 2.162325621284822 12.951647971500545 -0.6952604904837509 -0.9205379783724598 0.1661948227939396
Ni 7.384084776820532 8.640451808782823 7.770923685196462 0.984627095542885 0.13048965608284624 1.7040909227457168
Ni 2.083154502644108 4.783739275917406 10.78397184123184 1.8998840280220637 0.6718616519438365 0.3164963713963904
Ni 4.945355051029308 0.965348586201324 -0.12044660689235845 -0.7175419275897708 -1.2526088071683397 -0.0363836808353567
Ni 4.2843428935573735 7.430669738254195 4.5544619919556375 1.0482454437244786 -0.4370785385575376 0.6197777867644035
P 8.84584532342818 6.072664486130932 13.124839573265392 0.22748503706298884 -0.24485823823411376 0.14820275709189315
P 2.957133145468936 6.5257090650224345 6.212951903224286 -0.04218383245690155 -0.23596710639207105 -0.06852015635858523
P 3.369235185683005 8.722411496686533 9.186838847435851 -1.903088136781658 1.3429537727115002 1.0064578182647312
P 9.186964752737023 0.7931269215714317 11.48072338423129 1.953167312826236 -0.27099375897890104 0.19998220365702976
P 1.2104255865123956 3.4454871666002487 3.4346975486057327 2.48080627537185 0.2965299555767925 -0.6552988624891489
P 7.358138958460482 1.6523531936263358 8.33894125459085 -0.202403925724645 -0.5356698032698903 0.15184729582301593
P 3.9464690231231887 3.70394743410998 9.67716072179289 -0.09638242998649207 -0.7640711814995615 -0.2651920646954594
P 0.211107750054849 8.279532605074849 7.141862562634555 0.14746922135997828 -0.360095853253896 0.00792156883992184
