# total energy = -381160.4800800282 ev
CRYSTAL
PRIMVEC
9.33113434886205 0.00000000000000 0.00000000000000

0.00000000000000 9.33113434886205 0.00000000000000

0.00000000000000 0.00000000000000 13.65705832507940

PRIMCOORD
 96 1
Ni 9.184961901976564 7.831023672598459 3.911886690694412 1.0858475703479686 0.7210142024090873 1.048747837282194
Ni 8.961089332219093 0.8209942366859524 13.652386993516295 0.8635175951233581 -0.4124766808484574 -0.18411592604873453
Ni 1.9746172775007216 9.477632923585565 9.554695960925347 -2.604412316960986 0.8233934734089625 0.0340725162036768
Ni 7.921451693335357 6.095507375735679 2.6329306557477885 -1.2115991975251974 -1.8321819966893995 1.0248671740098543
Ni 1.1131576445989366 4.7478023439483525 0.3820912798611614 0.30622095761231133 0.8386557988846717 3.2855057719157355
Ni 3.4963106360510445 5.739757887489445 3.0690827942346126 1.3377223491092316 -1.0147326566790136 -0.5705753568978238
Ni 1.3495525963426767 5.2797516377435345 7.560807092130856 -0.33273211652896245 -0.6274728414158162 0.0919580756665513
Ni 2.323517713304392 0.9702699878510134 6.6039384791000195 0.23944272364549726 0.7190275109963618 -0.8800359044933553
Ni 7.703635029620424 0.7787811190498307 7.454623451435826 0.06738038632718718 0.6686665420453065 0.4937955316336077
Ni 3.7020061565467817 4.229457843697119 12.861711477806335 0.4519665114129635 -1.1663066442359848 -0.7294057689068922
Ni 4.538784939706631 4.618612792085557 8.338945296039961 0.13732416250617638 1.0151946839170969 -1.2398895598294584
Ni 1.0922559041747646 4.227339676252348 9.83767006795899 -0.05493881812972474 0.5665994029692113 -0.02882875130623422
Ni 4.769637197784318 6.084748578097701 11.178820911141878 -0.5513962128662117 -0.9519488885835735 -0.6657606812524212
Ni 5.518684657967353 2.7820869683961402 0.6669148176769788 1.258776112321316 -0.23890227776099499 -0.6517371132798195
Ni 6.440666026758057 6.891154519703674 9.725982924361201 -0.643480272587666 -1.8676647629770415 -1.8915420838152714
Ni 5.92816281646465 7.1840214951291514 1.2989843812173567 0.4183691350734924 -0.7869915377411607 -1.315934820920495
Ni 2.5006972879357225 7.298887756120919 7.423403342904042 0.25893579937310246 0.10713606895857032 -1.3541735526867196
Ni 8.402882227016045 1.2950681042280598 11.461712904195283 -0.41912323963069753 0.12850682132486255 -0.11601974460144536
Ni 4.811440678632663 4.530956118181685 5.545366102864173 0.9805493259290855 0.035878459064164016 -0.328092560874422
Ni 4.810013015112619 1.3600501222253523 7.060849591659011 1.9016094953536027 0.9842085199482274 -0.926274880856237
Ni 2.2110308915126975 3.359413567406835 3.0124875995825193 -1.468438262270271 1.9011754931399776 1.9975391540733922
Ni 6.653117288355179 7.85739345761574 7.167196527201105 2.113058304889335 3.301798852648804 -0.2870240729688863
Ni 7.959886634767128 5.784528668987292 0.2863202517283341 0.7092040971480368 -2.010213149996635 0.2081328577886222
Ni 1.1783356164127057 6.904703326442915 10.100322831110594 -0.642960395528454 0.39830064645839147 -2.075853927924896
P 6.441113921195718 0.23059845122967937 5.795085914128322 -0.37633005572457123 0.22990110270364922 -0.5369779805583527
Ni 8.267506133233057 2.9248719826687664 9.87010602326634 0.36268032615162055 0.29836675167521515 -1.1616840578623089
P 5.358534403101251 0.42770372965644643 1.7234660702628806 -0.15108367818411397 -0.09749828875849016 -0.9046056234129196
Ni 3.92906064303847 1.2235822857505676 13.145368623857411 -0.5390220075715748 -0.006891327803194583 -0.11679493220457304
P -0.22530956441163438 0.9920208614799175 9.20756097569679 0.9641981382645717 -0.4506621907792432 0.6649669817065322
P 0.6703794677749678 0.6604100840833671 5.399863862336405 -1.5582173280076326 -1.1191256156748082 -0.5069611224812882
P 3.1382936822141527 6.188874703719726 9.09595594607924 -0.3884324954150601 -2.128264580316128 -0.10937292870888907
Ni 7.7254045655175645 3.097367327972894 13.410548258128152 0.795092055361108 0.874912467223861 -1.5268416419098285
Ni 6.8168506987225665 8.434337480127601 11.126350077769912 0.7736737375863321 3.28742741441848 1.285695048199347
Ni 8.435503871892342 6.897247750282685 6.323996057541293 1.401263821306303 -1.4710463893170795 -1.1054982546993606
Ni 6.977896742463989 4.75440878690385 10.530520772916766 -1.9319405422369758 -1.036913049430795 1.0401133015356474
Ni 0.6931231740740201 7.0034547188130105 12.9554679140831 2.0555506975911695 -1.4111661680216794 1.5551726276440379
Ni 7.852914513239133 0.8262336684931723 4.182842296984156 1.497222533491815 -0.05490385112673125 1.1084177423390007
Ni 8.316494587352212 8.15557917948844 9.158668632259051 0.7098579286819516 0.5257723416505202 -0.0332019406732654
Ni 9.383948337041508 8.511608601758212 11.568429352648447 -1.0212465465381315 1.2972891807948497 -1.4367792406040933
Ni 5.685833263421904 0.8249851627481927 3.7226820835253 -1.6658254515066149 0.755572399999931 0.4620614337551204
Ni 8.579156681637935 5.5696979681900975 9.21746224210933 0.2154677008871386 1.3999474164877244 -1.821598050525966
Ni 0.22131117344209966 2.176477701873988 3.380599907421604 0.6634132640661671 -1.6847014624755117 0.34852588902810944
Ni 3.5316289786874244 8.694368194592066 1.8981532989713115 -0.8605173748444535 -1.9575883247120673 -1.5139709565947475
Ni 6.649814066877429 5.639186923966352 7.436883099250809 0.6354828562044863 -2.1686488976704457 -0.3774577415711112
Ni 1.3120694305909355 2.7294780342392286 5.348595812152239 0.06480156985641744 -0.0393011115924678 1.2282825717181491
Ni 1.6803319696893189 1.2967290461010523 11.708932904629238 0.011269659376548334 0.9248674589857492 0.5561149584981198
Ni 0.5980351849586255 8.458402475017753 7.403163179888831 -0.6294322791350321 1.4241412401251088 -0.4914414295791343
Ni 1.495939428384825 2.1146029515379676 1.06401149431319 -0.5668410866663722 0.046160814826778564 -0.44979650034483826
Ni 3.4964506030628133 3.3525645149642713 1.331765588487071 -0.6861446442254118 0.9798700404738736 -1.8846237594288833
Ni 1.6358784467514813 2.808176819389884 8.021036355982185 -2.891786831290755 -0.06221426874521544 0.028348469235706015
Ni 5.644365703401805 6.716102443651232 5.264345002201414 1.346392366079404 -0.1368107132048676 0.877422121019592
Ni 3.3157811842713754 1.4160182646647206 2.6236433779602093 0.49852970388448337 -0.2970989407063851 -0.07520579590887694
Ni 8.241770865335797 2.6830276486001527 5.517341907767781 -0.024524210393609375 0.04004416040607942 1.407398473449131
Ni 4.879417990681811 6.989084772271392 7.751568132470839 -3.822897957193371 -0.28729712412461483 1.1908894757816717
Ni 4.733861629576159 8.222716689466974 12.441524909795296 -0.13677626042250637 1.1212395766940175 -0.4168812376740562
Ni 3.454908393969771 3.2507805040058475 6.852688785529316 -0.36834703751909464 0.2722029487956538 -0.2777120515393411
P 9.118486902520404 0.22583770660270946 2.2588501545268738 -0.13750928193378897 -0.17682607725554064 -0.2863309035566037
Ni 1.3298918967561897 6.514344661753264 5.127951814799572 -0.5159386433895501 2.90941174346137 1.146845964408212
P 5.975807587270821 8.95188883397881 8.951956018144458 0.06553253448517102 0.12473424165630775 0.411088285141363
Ni 3.530471918056801 9.276780261697036 8.0022303882809 1.789628696708221 -2.2538956227550924 1.542742372300485
P 2.58783141832899 3.37704941088973 11.10545486913962 0.26815860352295107 -0.21924028055569336 0.05326477286141149
P 5.7845100067190565 4.989105472238125 2.3450940947252907 0.5350663653579365 1.638940968410945 -0.5969247934256301
P 2.1492401213837384 6.560225848211145 1.125400092561666 1.4581463934259598 1.769341921434727 -1.8513547129631083
Ni 6.046108351715336 1.841909888075464 12.121922368895115 -0.348775028924438 1.364398315738521 -2.4882413914936565
Ni 9.47399378127957 4.53580830792301 4.238795509608935 -1.1244735102502827 0.13234933499940432 0.4940888945043104
Ni 4.707715791777709 3.733461409658337 10.302256038329983 0.5337065088959324 0.2208438775973874 3.1362300934746377
Ni 8.38519972786256 3.9858685875484516 7.572702421904397 1.43622825319663 -0.1935145936548151 -0.17132160249754363
Ni 7.911514035499758 1.9815596412844643 1.6949090674083556 -1.5091275124595172 -0.2634120899769012 0.8449665715940481
Ni 8.836742638963504 5.764046829598427 11.43536831324012 0.09876172885194603 -0.008969293378145842 0.8893235004428682
Ni 3.658961634860752 2.4506170911247707 4.692701996981953 0.31552243751889536 -0.6678106218029143 0.6380200208040431
Ni 2.039543308693306 -0.09320963181745454 13.849759142378835 -1.0201165466987463 -0.6159422150683972 -0.05881321348346646
Ni 4.947432627267433 7.659181506682587 3.3015530709683496 -0.04631610945772023 0.6304653483852368 0.6378996931760949
Ni 3.9135336358662274 6.408781541477077 13.555750036137324 -0.3500868057573261 0.3495918683987786 0.9194144062909777
Ni 3.691331339115865 7.944275647387824 10.06874813948233 2.7190593495846205 0.24012278043165744 -1.2453148446100875
Ni 7.369692401807803 3.5693454227921144 3.576865383777757 -0.6145242516749481 0.4778541778130028 -1.188112684367483
Ni 8.053991122346492 7.985855181017338 13.569434144321272 -1.507503860813165 0.973082328128079 -1.368460658733353
Ni 4.307596760800698 9.01746804455965 5.474499871692111 0.8327957405594689 -0.5679790569255573 0.7615651272482562
Ni 5.799673099660699 1.8334185560281442 9.423998497789093 0.8774912836946308 -0.7736117740001451 -0.11776063855195203
Ni 2.389862076882902 8.901556696546674 4.332606066463585 -1.2640206485497067 0.19225115356135922 -0.6622770935791948
Ni 6.35059258911764 3.1280574280867794 7.164765766763383 -0.7713031804716265 0.22485119898456757 -0.12274292225789184
Ni 0.04139477717397882 7.493385915675135 1.5713947113160869 1.0764075079809914 1.5739864179164311 -0.36070237648964326
Ni 2.359965123169042 8.287334793233667 11.658278843070034 -0.6085040136227972 0.5956610962218579 2.617634986298847
Ni 7.198456759609596 8.289191688923136 3.074668411117608 -0.9367685812987093 0.16240321696199128 -1.3831938511784696
Ni 3.5241547402589597 2.307533480560371 9.039947679763165 -0.2006319214258867 -1.2190273716684683 0.651016433063711
Ni 6.512515759466149 6.597317106329934 12.383646684201986 0.6278099130402607 -1.134135201709763 0.939521204343182
Ni 0.7320312040055695 3.8050965262817167 12.26354659008347 -0.6791674415766303 -2.0158621207522955 -2.602207081779551
Ni 6.409332078390035 0.2544003081377054 13.549399266256657 0.3878254579586805 -0.5304075264296866 1.1097793985732178
Ni 1.1982855811568485 5.982749951054563 2.7597640962458065 -1.062306806913551 -1.768331735002658 1.9406061883317738
P 3.5480051190643986 7.001840432610607 4.848665371969337 -1.0823668108882198 -0.53836817603766 0.6587659951021428
Ni 2.3190574311960193 4.7138090223567195 5.200307294976857 2.83043722453868 -1.643583609389279 -0.030452402952586263
P 3.841627916353428 0.8012551555728747 10.764438308552194 0.044480856021194365 0.22360652794418912 0.8747741418737838
Ni 2.542603411259364 5.876057763550107 11.534764486977764 -0.900341448819927 -1.300924720664908 0.6869900229448427
P 9.196719130965162 3.7750596055560868 2.0747394134727415 0.1887930198094297 1.553767776876711 -1.125075662610656
P 5.915117890967778 4.1278324620186995 12.436048467181479 0.15917185450888716 0.12379707455401906 -0.2529343303740289
P 7.237124979394314 4.872540944836895 5.279108722602809 0.09879001098672019 0.36928908971738983 1.5451486677491326
Ni 5.1130415955925255 3.1250994585713943 2.898710281942315 -0.24040534466908275 -0.327156679323714 1.467176364838712
