# total energy = -340859.6120302166 ev
CRYSTAL
PRIMVEC
9.37225316665903 0.00000000000000 0.00000000000000
0.00000000000000 9.37225316665903 0.00000000000000
0.00000000000000 0.00000000000000 13.71723987127740
PRIMCOORD
 96 1
Ni 5.694253078481875 5.418896276418231 6.072566894763003 -1.152294646227609 0.8757403624417951 -0.4418834161453486
Ni 7.005243870607893 1.0524853015024853 13.429356488991237 0.24632633813920804 -0.3862673694429412 -0.4492964207799682
Ni 3.889147719929806 8.455112712188612 8.87247508463441 -0.841201448124661 0.7286370090616677 -0.7943582625188771
Ni 8.90467158640872 3.167071836397085 7.966081655954505 1.1855019862175131 2.669564842398919 0.272317362886331
Ni 5.415822177334607 1.1765177017240736 1.6061924033349841 1.3761842526298556 0.5724903145323496 -1.5077686844387774
Ni 9.072800438424366 5.726503002100016 13.009321149903217 -0.18091464550261746 1.834712219310421 -1.379129965521741
Ni 0.9927746757044094 2.4125210951669334 2.364632629686185 -0.43286835713093197 0.5989505656064071 -1.955644056501503
Ni 7.366422396173809 1.8474866879915441 7.351823237202586 -2.8628809468896823 -0.27458867541901094 2.161966343443948
Ni 4.508859852879167 1.0171706510540235 12.933505244028007 -2.806942998071482 -2.4587433820345397 1.8712059433610806
Ni 3.915886758605353 1.1791981661689408 5.616304047754737 0.844452608072107 -0.2976720396010358 -0.5687647860516463
Ni 7.230609073549431 4.395408726637492 4.5491989683237595 -0.4187350030533434 -0.09311995718513641 -1.4537405510487802
Ni 0.10579680696851684 5.314714308693947 8.57083379818045 0.3499510515104102 1.5531160022253252 -0.013111854791609676
Ni 0.6788416790426055 5.4829368832426315 2.249476690568561 0.6276631030497514 -1.073685481064138 -2.7323205854699006
Ni 3.7327623013037354 0.6458016744709595 2.7821027830449756 -3.027124559494522 0.6431288027855182 1.9151363261954435
Ni 2.1159548838769444 1.9696633820589933 4.203209116461871 0.08046781563876465 -0.829062755879598 1.2420495435952545
Ni 8.039415789154887 7.041317673573958 5.707030271410852 -0.6148248136345025 -0.42806502220501763 0.571873249773641
Ni 5.844893305832757 8.316056589921141 0.3381190335374144 2.166933714751552 -0.12881432526295233 -2.992303080939963
Ni 9.33736040468211 1.4412838575544997 0.33428953083750956 -0.489975386556569 0.18636666975612418 1.212286967620841
Ni 0.5910414728679148 1.1876613109022107 7.820953250771548 0.3205198907334867 -1.040632664374227 -1.3307032374789212
Ni 1.4754082318333877 0.7165125139716256 12.529011912593564 0.6303810162015466 -1.1180449810161197 -0.600507882791198
Ni 6.472178219451533 6.751527601422566 12.073256104489028 -2.2329994960323734 -2.008131841987574 1.432049953449224
Ni 0.7551618121455552 3.612394452123907 10.305762535670164 0.3294876414497358 -0.36738801603993504 -0.37443978068039385
Ni 6.226962584012692 6.497623887171166 3.6939846032595445 -1.4823314753125953 -0.5453687757252091 -0.11286705790507659
Ni 4.328012853130356 3.6104731401966417 13.12440867157172 -0.1499073984878257 -0.07193689534961804 -0.8484948964622807
P 1.5795714550510638 0.2178233507080243 2.117736549229984 -0.21324421087325854 -0.035267564953042486 -0.17922260251217523
P 5.963817828003811 8.924503274399417 9.990210950862807 0.9802431075425763 -0.7697893149302614 -1.3654162154800742
P 8.69934426103056 0.643628248929824 12.032296545875727 0.45528452004260306 0.242463255639376 -0.7234703772590637
P 2.144249716600911 6.3474054112189515 0.45749342386704767 -0.2759462178881699 0.02169111182018845 0.03601164220791862
P 0.47720983314210846 6.6235119935468925 10.83467159248632 0.02179704127043343 -0.44923728540725855 0.1573394292858387
P 4.8240018702171525 4.588130371322131 3.453630355609349 0.2572897791292472 0.618747031507044 0.30312046431011663
P 1.5241439490127933 6.715866177601867 4.7587991039830895 0.4187005502709822 -1.8188575116663512 -1.0027448881895182
P 6.238799739935305 5.560267345251724 0.1550826754168518 -1.0998539119293897 -0.5950360610433494 0.4309752538732771
Ni 4.636210030770276 8.160823958451429 1.9446516496673238 -1.1831229444623754 -1.8138970823372826 3.2414753731683987
Ni 5.481390461447515 3.749941641609476 1.4745900341199718 -0.046711288013609874 -0.4054855942426049 1.316927009630435
Ni 2.4496914517695343 6.251358559362306 8.238931380259402 -0.8243982605243931 2.2870224872160483 2.847828423431934
Ni 2.1235838980661823 5.163071250239565 11.789748253727128 -1.0905876561361154 -0.09116257634844945 0.20489275358476972
Ni 5.632002572038487 2.3100729943038396 3.80236440323857 0.1040116643969757 0.49551354276597886 0.3785828563144899
Ni 8.809561959882448 2.9782396768334944 12.10553320764175 0.6012614731277709 -0.8243992889656576 -1.0070396589101303
Ni 2.323353477235228 4.567352085747758 3.656591187028315 0.39686674222534235 -0.367987854407463 1.065413727973649
Ni 6.037521227984358 7.524382353354907 7.652560101212735 -1.0915338220994684 1.7357949387172171 -0.49646767914913204
Ni 6.916441770555034 3.4344997121657714 13.233954379861732 -0.8316503141011161 1.4650063537705864 0.22471364496543877
Ni 3.851040137996832 6.610812590320336 12.570876830876003 0.4856271368902023 -0.486130301778866 0.29763321594330033
Ni 8.429873234041661 6.119884590017555 3.480708669854491 0.23017209697684876 0.659192026895968 1.4901694832997756
Ni 2.58190582912528 8.321061373185334 11.151649634246507 1.0332114322094914 0.1425987806415544 -1.0596940518810525
Ni 9.330977900182269 5.036077217973998 5.938618650546068 0.729907134023343 -0.683571484181597 -0.8375322268031898
Ni 2.600247328840683 8.61287585205033 4.876698301642715 -1.7801580382136244 1.2797038636129188 -1.923172566236359
Ni 1.0555500283328056 0.8184948138455235 9.922104660555247 0.5571020050017373 0.09102810765311418 1.9086514898020484
Ni 2.371770537802307 4.861612722725028 6.57659355628308 0.14040151587991948 0.8326322183984112 -1.7538407404753342
Ni 5.376205662619732 1.0159897471377533 8.5945643435455 0.2371053337615723 -0.6398858703681883 0.8934706898420225
Ni 6.90334873268972 8.623785154895874 4.383934276917733 -0.6119495489692364 1.2210336034652196 -0.7036415154585947
Ni 7.7505910590937805 6.594317424505768 1.3415940108386946 -1.2987009735407118 -0.01706672567429964 -0.29691150728592736
Ni 3.736998559797022 7.185556651918391 6.372426515863924 0.996935994817225 0.16582381260776602 2.65385951584852
Ni 4.985373327600808 6.67704630441781 9.808128688128564 0.6560241706909477 -0.13574241984135332 0.9632838539804184
Ni 7.750366125014491 7.654759769063122 10.677855987433608 1.4350756276494252 0.7107380172940598 -3.780459585523502
Ni 4.651168147043032 2.5739675305770193 7.2748967193108856 -1.3996697373463056 2.0459548263726184 -0.9958095945222656
Ni 8.200412356406394 9.369347905207746 6.372974792682192 0.04518456695643831 -1.792876000000925 0.08089898963891229
P 4.853477606857389 8.234733548004659 11.622576308773791 -1.3884545853567767 0.687950329975583 1.4261459292599632
P 2.448107540961203 2.4765148407248145 12.118125767180643 0.27826689560154655 1.663815877275754 -0.4416116505412008
P 0.477236075451359 0.8158471522872193 5.425113829259927 2.630224135817767 -0.047873426642511104 -0.3127037371231776
P 8.190637096210601 7.291153829891538 8.035860893476782 0.941694814955733 0.1409494179635895 -0.8652944845181226
P 4.6459196851929425 8.618058708127295 4.803763426433074 1.970240209148123 -0.9851019782967745 -0.7670114950748081
P 9.06954826652797 4.034052128258805 0.26211474537080054 0.1559294363121895 -3.527824531557447 2.8258169521578496
P 5.639266068348879 2.1639783098052665 11.889527136849319 2.06019822366551 3.369561047795442 -2.156340769727054
P 3.3487435944366246 2.322969214849775 1.1513129009143472 1.4098330510325527 -0.2775277034426769 0.31011823578418846
Ni 8.200552940205949 8.091937896669 12.795016143085412 -0.0993206866792096 0.8934858593506741 2.357609810516307
Ni 3.7210563569273742 2.83171386868295 10.309233081068536 1.751437016129848 -1.1577075897130642 1.6536044839603907
Ni 3.7620224761179863 6.496649172827578 4.3164587392575156 0.6675697094367019 -1.1697863752544693 -2.1682550046661366
Ni 0.9302523739152139 7.126961324263459 6.740966946399921 -1.4839127037567863 -0.8032679063036811 0.09980174008068618
Ni 7.555038993911414 2.4134676927506105 1.7931866640257128 0.424028904462431 0.39380121592614115 0.09020046954549626
Ni 4.115487637214931 5.698498709228464 1.1482013128175081 0.18601340018176352 0.273568975905245 0.6607364885649524
Ni 6.074119877135432 3.442147470861616 8.865836717619375 0.2542234814990976 0.011775652478689398 0.6038140643462956
Ni 8.462451186525433 1.161672052490962 3.657839571168372 0.020390647841210044 -1.4313572982575735 -1.5933817917239075
Ni 2.1308848833897898 3.8803096850643866 0.25787286352553146 -1.3794546958510112 0.5143484160842948 0.6796271548218683
Ni 5.576987445145582 4.555552418838359 11.064846635823333 -0.27857491376026866 -0.31755977966389826 0.07344536157434449
Ni 2.154146816089652 8.940248659949686 7.019962057196074 0.7926975869870024 1.8633728204699072 1.9770610887246982
Ni 0.3104765096433876 8.242587496273186 3.875930031095553 -1.1856984184990353 0.9333114759880442 0.4631487532820282
Ni 1.0764314086935203 7.668677565219163 12.72365955533212 0.3258909252374129 -0.475421142891478 0.5287077701297604
Ni 0.2056403586385032 7.965346871295494 1.3736996017559586 -0.5385396686185177 1.061718538510249 -1.0046094522020825
Ni 2.5362442110294983 3.663595071922194 8.66898003477713 -2.035487608292707 -0.5421924348797565 -1.8876702595646908
Ni 1.2178587110468349 2.8883972566639207 6.369847271754737 0.6181037414960904 -0.6074835427780828 -0.9034900217512375
Ni 0.6915645129024217 7.900134732808127 9.068851908107504 0.5265665554170414 0.022790001311322042 0.34680119302751883
Ni 8.099913684230476 9.321343223786032 8.799349015457372 -0.9479127708409868 0.5816200447477596 0.6679857139281979
Ni 8.125312490683589 5.096725069102447 10.73373992220777 -0.09230080371795071 -0.277617949163638 -0.35259877354590236
Ni 2.133012384889737 7.434408721639081 2.5101593556345514 1.7851840306733062 -0.24216937854804096 0.14017268769856506
Ni 3.0836400374872635 8.634310195355965 0.12807746474747872 -0.6219452267293676 -0.2806073708092651 0.7804804760955203
Ni 6.83217584110118 5.607419151622799 8.345596057883842 0.5329374919403919 -1.01967534539627 1.658799655008085
Ni 8.340771221883083 2.5213423282765643 5.394277241439989 1.1510905986171789 2.1471223364525795 0.7882462360838682
Ni 4.296109702884452 5.1345889724495235 8.11300672209579 2.6473286567085377 -0.7318724852798298 -1.0165116029563075
P 3.4426348280334103 5.090473776148858 10.110003343689787 0.5273417430201692 -0.017674277351311496 0.4869294006413937
P 9.386874018885726 3.758395414089442 3.7687704984966732 -0.24932835819032548 0.7254845794756151 0.10558157998725688
P 7.428166800938795 4.4420263145702545 6.704314875405018 0.34029090271282686 -1.4587287482919908 0.2541250082480204
P 3.3006358182285687 3.3462880640710466 5.464440741347716 0.3410959151126255 -0.8694133917825027 -0.3297313820294257
P 6.62305275313501 1.251486355900625 5.52896683089325 -2.2300123883795915 -0.5316622247723941 -1.7818161426423378
P 7.867322473991761 2.6650845771959 9.708307629866507 0.6424608301842161 -0.0904848335551345 1.7190380309738527
P 3.052617879051911 1.224353682586321 8.725646552702154 -0.31354654473944715 -0.08494744867667306 -0.40040483728558784
P 7.300254287849462 0.033903189100919794 1.9080267582070003 0.3639072565801862 0.033544925834980935 -0.20994368574511588
