# total energy = -340866.69687605347 ev
CRYSTAL
PRIMVEC
9.25722956304310 0.00000000000000 0.00000000000000

0.00000000000000 9.25722956304310 0.00000000000000

0.00000000000000 0.00000000000000 13.54889120061523

PRIMCOORD
 96 1
Ni 7.585651780755722 1.8906410624346974 9.548906553413683 0.7038957975612458 0.8040736900344282 0.022536490539619255
Ni 2.547978433104434 6.386775726461479 9.350049223809021 -0.5411130857726487 -0.679606585996578 -0.9400318254310133
Ni 3.1014126569682174 5.584359051021349 3.8036614778098254 -0.5436391946286121 1.14758592789803 1.194878799446723
Ni 6.490243783468797 8.169264573631214 1.2347487453302146 1.9453424174651788 -0.8146203552020228 1.0608595329440633
Ni 4.087539056959679 5.173939769691882 8.069950235616396 1.0280453146275197 0.44049759154141555 -0.8568908338354598
Ni 1.6636630459935744 8.586904494172071 10.288581428444687 0.7379228052389679 -0.02002503697167519 -1.5792618073827578
Ni 2.4668017853548436 2.044274047501661 11.969362017984134 -0.13451446097152317 -0.277813867224528 0.3704278313075233
Ni 5.570112174423491 6.468470779077529 9.852794560408846 -1.2510075241194907 0.20064117739726736 -0.4806312263375078
Ni 1.5470774944188972 3.873298988665829 3.835745184705769 -0.7961467218778675 -2.0612791154345147 1.6791715337962176
Ni 8.929060963264625 8.943335611551758 4.654626768993821 1.368931170611868 0.15003929607999966 1.3890109720808788
Ni 0.780123414736451 9.271763608912915 12.42666361370099 2.160295383499428 -0.46645056396175155 -1.1501482893085675
Ni 3.0759552751331882 2.008152336985194 4.978566861368204 0.24233572892257624 0.009243115864822791 0.38545824327808453
Ni 2.283119832492787 9.244177064233499 1.0441183158116587 0.4735324105091974 0.43019518117414296 -2.0827213444686903
Ni 7.740312318325845 6.489355089412011 8.271449578594046 1.047408806755796 1.8810666382052443 -1.4254283343676482
Ni 1.00846409539798 5.90092853706226 5.346216815491846 0.05417211516702929 -0.23646050108872177 -0.040387402678111084
Ni 5.713321518782729 8.804199448286123 8.731298763940357 0.1590993493997389 -1.945646836079475 0.3570496102284044
Ni 1.6824552224027052 9.124971716637253 6.145438820942424 0.5422996498815822 -0.3101835418044852 -1.4300218672756018
Ni 0.16715872346665872 3.1609366443133955 8.60427753725927 -0.8115412020560668 0.2844449993878005 0.34865958639249633
Ni 8.252829586658418 4.392620320870673 13.144484020718856 0.07380763000976967 -1.395871703756454 0.46142637127428277
Ni 3.441190018012917 8.770540160885336 7.872936020456591 -0.23544594378127837 -1.5630664285698177 1.7980760561446258
Ni 6.135728912649055 4.640186416294016 0.8477835813161045 -0.8641734835398021 -1.2738795436216577 -0.05477169642424116
Ni 3.9122256397990287 2.974107233333554 0.22931731840101843 -0.970365443417548 -0.2229796929934676 0.04043548230722714
Ni 8.769318206557255 0.8669877044494749 7.184137028730661 -1.431905714561876 -0.523752225896698 -0.3064945229886722
Ni 2.7628572502516 6.8639766632665475 6.673032413659189 0.2994391588037875 -0.727819912477011 0.24069870753978545
P 6.502611442425742 0.36250200865511045 10.642694535492923 -1.165084856013742 0.9456270601306037 0.559660509757533
P 4.512834706510562 8.6407260279862 0.6850507393968377 -1.473790784831436 -0.3616968791924287 0.8761887628331233
P 4.879106259123208 5.446083810123227 2.7000774952004654 1.216456011396866 0.14578103502427794 -1.9875409052100999
P 7.36399667142556 5.579971124115966 10.071920594569068 -0.681166217174214 -0.40124738779154123 0.6858404827214317
P 7.325921685430114 8.31883363483433 7.141783351140979 0.4227263836009236 0.9557458937321603 -0.3767149498678158
P 2.617814974400239 1.8795509011843827 2.228278151959303 0.4464314405273473 1.8115566071295637 -1.1276236258434904
P 3.8389916951819676 7.801891410677342 10.160042941806232 0.6993426309729246 1.7624349099022485 0.3049451762236813
P 8.04881875724737 7.979139588857455 3.0317677403284073 -1.2602511542049457 -0.9510667430889364 -0.37509746886905077
Ni 5.27105736708508 7.761900178121951 3.2605407336196444 -1.271828317519584 1.4237769148071542 -0.9108644598384377
Ni 2.658843016688548 6.8778717651335946 11.804918440005553 0.4320222070805528 0.9797669392371061 0.877102018676012
Ni 4.164809153751312 5.59182963543621 0.26605278325045395 -1.8604962702530603 0.23991786350970296 1.2820229986643985
Ni 8.141446598207844 8.87843317371707 9.371077021204755 0.6295932301929287 -0.9298890805700566 -0.13575784646032102
Ni 6.69525439369373 3.9644734445542675 3.3971274558098723 0.4456074019641551 0.5313056127639237 -0.7669168784784727
Ni 8.390919682961375 1.6123039352951218 11.955027197703574 -0.39137435165220336 1.025526404860408 -1.2627376680722253
Ni 2.3676383401850853 3.7142412669605647 8.044857588633839 -0.8861492164799448 -0.35893577150752376 -0.38218882849819336
Ni 6.154808063180691 6.090211113928023 4.3140755035413365 1.32342315887774 -0.1993394278667083 1.5281246223873104
Ni 7.7252508055092655 4.528692341086345 5.596287917287755 -1.196190833389927 -1.2647192172786283 2.910373336043691
Ni 5.082163593869161 3.29305582742232 6.518629227076343 -0.36603124490172445 -0.938083700565707 -0.12163734789853892
Ni 8.176337097166472 6.903532806023304 5.639359955906674 -0.7862695719734717 0.4606532405536841 0.5307307140970602
Ni 4.046233297778624 4.756318363610542 11.676177220035393 -0.5950347754917688 -0.7755223607592966 -0.755906386300582
Ni 2.1136754989988304 4.02930182455089 1.5882962356402255 3.1208479545916123 -4.120412131060305 -2.8825619702583776
Ni 0.5886579830937062 1.7902649201666156 0.47598083392293805 2.165612424836967 -0.25676938784940295 1.0587705116255184
Ni 4.908229503942482 1.926012937340751 11.45251236612473 0.6269583636732429 -0.187132087167239 1.3867627994766503
Ni 3.6268807897325015 0.07195644691043071 12.439724639166824 -0.31389235811464006 -1.0200622964220432 -1.0700671675852604
Ni 0.20104296155057091 5.754405104449589 9.632218844068488 1.1556962157099901 0.20536172280138826 1.0081976837739732
Ni 7.48486832037828 5.951380439244409 1.9201484822889363 1.8236819296381883 1.6175553036463173 1.5178494657135473
Ni 0.8579137678404947 7.834338000979807 2.191329770825429 -1.0059875634965318 0.3314565922506485 0.7164404669954758
Ni 7.601768617764735 1.7335458734381701 0.6740550018900566 -1.6764034841327775 0.07823326988129108 1.0726045892951335
Ni 6.540325396460619 4.717243596801211 7.842749119938101 -0.5770802478958771 -2.084767428364442 0.5787794899751709
Ni 5.903548333083829 3.740476256095282 10.498832556435731 -0.04258826698417181 0.9423350196428933 -0.8515046298228818
Ni 4.6051663161187735 8.514096382123887 5.531985347941399 -2.543103333638859 0.1875663464911802 0.7246728822075972
Ni 1.030820305264015 5.417293825575249 12.201955469996578 -0.34670631932086743 -1.563880954051313 -0.7281950364282426
P 7.3183029853391215 6.288139943387938 13.194236076331286 -2.321880475435498 0.27732664317546435 0.21594001253786682
P 7.168613580149147 1.9012498477375863 2.873787560166997 -0.07881665318858685 -0.21722530700819365 -0.7007587945941609
P 1.0325143783097643 1.4257429839782676 4.4404191010041245 0.3455135845643469 0.2753060132010097 0.9724565216186222
P 0.5887153779182069 1.1447305174385745 10.049036722606816 -0.3310632134669718 1.50664614079856 -0.44298539096027584
P 1.977733079999773 6.2034733200195085 0.588483947174252 0.9645580927071518 -1.118403392796803 -1.7165610301882697
P 0.9197918687131811 3.2408265371265976 12.665937082706947 -0.7253035738130605 2.1830681584195695 -1.3285067440482345
P 4.833394058577253 5.3681657072485205 5.828190779960238 -0.1886374680681719 -0.32112307153512437 0.7476526309322221
P 8.725948085140123 4.930687543335856 3.9587830254219063 1.1485997138745252 0.4070976759247312 -2.9021108389245827
Ni 9.096329847765407 3.0485353605894216 2.396094138738793 -0.9845221945339044 1.87154070099268 -0.1391406468896249
Ni 0.8266715431295706 2.7036572659479585 6.348237878978124 0.31406127959233654 1.1279864084995477 -1.6073179421890254
Ni 7.714132872569676 8.304281269654453 11.825553730859541 1.1644407946718398 -2.149125482925537 0.190909037711168
Ni 5.581683711621231 6.774857312384428 7.324733982852138 -0.5576704759106976 1.7002211553776656 -1.3927200455013498
Ni 1.6972390183265387 3.8496652810931633 10.473645485709643 0.3983219866146302 -0.42119837699217133 -0.011064228233961589
Ni 6.177932623116656 0.10661088651022452 12.943608615026909 -1.8265985890643512 2.6904116039409405 -0.77057041607066
Ni 3.0641060210427016 0.04004214731906188 3.127747624184324 0.7879754989209848 -0.42563250150412507 2.6353632568165453
Ni 4.041197364790167 3.513007606476975 3.1897886523007544 0.1994798100993145 -1.279138478027752 -0.8861872688067319
Ni 5.043005511992007 6.925203980887233 12.190235817122705 1.539583257846213 1.3214727200195886 0.2129341358320075
Ni 5.281481007792805 1.686343258901146 9.062636308614513 -0.7999627531898481 2.240480892011083 -0.6668667698324063
Ni 1.61528476327726 1.2361734329900005 7.964254889129258 1.362978552572859 0.17527775893181427 2.101952681894477
Ni 2.9014472369615003 4.40641359321038 5.698473847973564 0.5496895145877501 -0.9209830363296784 1.7574351426948118
Ni 5.635745933409075 2.12356222038058 4.335848507932606 -0.7159187901640509 -1.616481096745532 1.0579529008202297
Ni 8.232926542678303 3.92814807498312 10.721278233187244 2.00852059278556 -1.8709308353228231 1.2708160742049857
Ni 8.232204478757165 2.1343006069000836 4.777962692508172 -0.6568870329118751 0.026156346680393662 0.6132500129482148
Ni 3.2243394109272563 1.091492189099209 9.950400939533276 -0.4039172213142205 -0.15768061467534134 -0.3766583855982674
Ni 0.9354708387546319 5.456886997251038 2.2939082080529847 -4.499083176213226 3.6496999636087204 2.155934792537887
Ni 6.6665199525242995 8.952204037660106 5.002372753414372 1.267704010938565 -0.5852568701693985 -1.3633472487661875
Ni 3.0521179085058425 7.014277045620562 2.133326746329522 2.0323436633470866 1.768562362956225 -0.26957913801956157
Ni 9.330639590175018 6.945838346018244 0.08243192810480139 -1.0103481544580728 1.2272528449020539 -0.06915341906720994
Ni 5.192056168328665 1.2845054295575238 1.9078733956295728 -0.09637343112542757 -0.29920338864389767 -0.3365951990287945
Ni 6.2850202569594265 1.0688952912594611 6.788495988987172 -1.1392193011008898 -0.08042539243660342 0.21971542041989903
Ni -0.008837877250146429 0.7932168405064386 2.6185944331458786 -0.4720226587328903 -0.8384385406675431 -0.8410273844406418
Ni 0.5517808826289703 7.84292871019541 8.034763505305506 0.9603065165196493 -0.5169277467756969 -0.9805215580149436
P 7.3991648872769336 2.7412045898471873 7.415931581814972 0.7233508209620638 0.8240889568140903 -0.42732557293583184
P 0.572392104685586 5.384902778651332 7.527127574224429 0.798662803431502 0.14764251371304896 -0.4719653231323936
P 8.738695290517153 9.069428338088098 0.4265935131629808 -1.2729562604764397 0.1880952224114567 1.690815288682733
P 3.8617367086978462 1.259566452588953 6.947329685732289 0.7280651957185977 1.492885596679358 -0.757693817218308
P 5.9025207805806685 2.7843895666691556 13.356049675335564 0.9285117406065556 -0.8706269524746296 -1.0976281079226644
P 0.33659472545383284 7.388213584472991 11.306753580690081 0.03375781317673541 -1.6922566491149502 -0.10353549609150556
P 3.8082484351550097 3.795038368290069 9.644765167559767 0.45916919980898985 -0.7914202629364757 1.1749231822604023
P 2.5878863505920022 7.635140931043019 4.613208071609716 0.03994105916931186 0.01185175713226346 -0.24388147614314126
