# total energy = -340872.5519221724 ev
CRYSTAL
PRIMVEC
9.20463082504603 0.00000000000000 0.00000000000000

0.00000000000000 9.20463082504603 0.00000000000000

0.00000000000000 0.00000000000000 13.47190763079678

PRIMCOORD
 96 1
Ni 8.32327801726102 4.843973672844184 5.182171130887274 -1.705778594860785 -0.12624836430798902 0.5306852055711054
Ni 7.5976493730106665 4.491371888371967 3.032391914796151 0.8403658395972429 -1.7232055320879807 -1.536514132002586
Ni 6.529645288886957 3.873465036057248 12.068552003849822 0.036357455583111584 0.7036068055659173 -1.2641957406749904
Ni 6.036939822021141 5.349077777130944 4.52207485420812 -0.3768723013812864 0.14367864396929447 0.45294378772456834
Ni 1.1432519392953573 3.7800104215547696 1.5615425700590089 -1.2243343857036786 -0.24064394304245007 -0.4916170359250501
Ni 8.723992405890082 2.164155928628444 5.650993342729985 -2.0897494549600655 0.8884974049971472 -1.196600667233836
Ni 1.7340327452258744 2.0269977280274962 5.947456085160382 1.6752649996529598 1.6870766475759074 -0.2358408652268519
Ni 2.1995293240320706 6.683638758859031 13.033612419783415 -0.8503250076924839 -1.8545050856666319 0.890834537770756
Ni 4.719076040205148 3.7841064821726764 10.07807825005121 -0.523056485381254 -0.0636977952692774 1.2358668118233103
Ni 4.870133233015172 6.600125145406753 2.607878033282462 -0.013439670444673629 0.7768552206381073 -1.4151176964702599
Ni 5.241181097213871 1.3327108509770773 9.15343352616504 0.27135371342148107 0.39231640385049854 0.12233488818619574
Ni 7.484579690695248 8.656936671954245 1.156849940083746 -1.6460294998266103 0.967741632641456 -0.4518212440843509
Ni 2.6207700389036748 2.0276236429084347 1.0117186884553142 1.1506475975424892 1.1125986131895678 0.6047612587509132
Ni 6.511641031429375 6.979549223453303 10.725403101770036 0.8097537711383409 -1.0706806327995433 -0.20259830112363816
Ni 2.219162801106215 7.451194495501661 3.7246592958924833 -0.5092357774480778 1.7724323874345926 -0.9486344794983598
Ni 4.457719758890921 4.107483564483427 2.7279266665203443 0.549323646607899 0.5307919063522988 0.020583480578306487
Ni 7.477667013113118 0.6298084396831523 7.352791471587528 0.4018184298036628 0.6079687099446175 0.1623453671408623
Ni 6.985974055613526 3.23775642815819 9.054388019034885 0.03203954493404805 -0.07140570543649637 0.36739907178352854
Ni 8.072553084292142 6.398129526845058 8.88555852545845 -0.299929982397277 0.0614701914903393 -1.1091937012730768
Ni 1.9677659301033903 0.19347121016114768 13.489825208164396 -0.6386599683808872 -0.8099933979529728 -1.6494030442845338
Ni 9.132024475847764 1.8680337575303234 8.8353481859874 0.10940506749840513 0.5437641502422506 0.4763817070325344
Ni 4.3309075630866625 8.105901460963322 9.269116403108375 0.675855603594578 -1.4838342851103672 0.37386025402784
Ni 2.24910546445464 8.983820718524372 9.43666645303113 -1.3207193867933318 -0.23043537794056443 0.5865717323260801
Ni 8.849433111734637 8.889325980763864 9.269641987515753 -0.7088215169976373 -1.4647250750847418 -0.7147101145679304
P 1.595180892594152 7.740551263107284 1.3417746507309027 2.2962308931881936 -0.9799633715186283 1.475888547900729
P 6.462709215148948 8.666583124825179 9.089361013007323 1.9113624609753084 -0.4395228863329721 0.2815555936551474
P 7.531237963216971 1.0884475686908313 3.1428474820205907 0.992429108085807 -0.5506914734897032 -0.19304253911440303
P 3.2492069886271238 4.5810341950664055 0.7860625669310852 0.07526236017842522 -0.4790248010823363 -0.5718225990413636
P 5.388013364577558 1.6350277384703684 6.9405243510898496 -0.20188584843764587 0.5104645076488563 -0.0870153869492953
P 0.30757181110399373 3.3652405619963974 3.725197766782702 -1.82270156800279 -1.6541246181299192 -1.2420228041223773
P 5.834336697839713 2.8578905278427404 1.3400717940695261 0.7290154754470091 -0.22776271620440774 0.15566692667942222
P 8.35130611744422 3.349546666819925 7.4073933403188095 0.18951524268743491 1.4092828349560373 0.14070953403864156
Ni 1.7965229823831008 5.525834298581853 10.732488826407485 1.1542335151215348 0.180909760406611 0.6741478768748519
Ni 5.912005370859698 5.2922944109469805 8.77754034441743 -0.7983781823115477 1.0562929966193035 -0.7112164995923751
Ni 1.398717257024282 6.916341025109118 8.55102358993191 0.35068510146295734 -0.29146153991494966 0.4407816984407377
Ni 0.48756283974845877 4.92142143472972 12.980613997703008 0.9436725075073942 1.198250801242749 -1.2526149778159266
Ni 5.703235144174905 8.429471840516715 7.029196239531509 -1.6582566380204213 -0.9604792946520877 0.2887873355168962
Ni 5.858848629132937 8.944618196790298 3.1583812166245875 -0.38915523251369755 -0.8563714709968799 -0.9861738712047144
Ni 4.406569626635403 1.7258590332512658 2.6059920044721054 0.36843419791626225 -0.09547611612213881 0.7598514869912592
Ni 0.0138971512829549 7.052606376541669 10.710812841802747 0.09283199363107238 0.4934600026710599 1.7856085198052345
Ni 3.962639497329779 5.2335320491835775 12.176838960104424 -0.79064096156829 -2.6154775736362117 2.7822940891745502
Ni 9.02209357256764 7.618645135413911 6.930986512860018 -0.493800416729614 0.6901393672071017 -0.8106562283479523
Ni 2.4375150482477275 3.059545575072159 3.411639263935144 -0.5435839159106444 -0.5082459027309827 -0.4936186397361112
Ni 6.245682434814127 0.9283330193684042 5.1572348661232965 0.10302847454809999 -2.1608957360875882 0.8686425750547491
Ni 4.445118619596733 2.8563533545322004 12.98446705607302 -0.6325723674259106 0.7584692619317518 0.16693221518059637
Ni 6.988532942920893 7.694739816600948 5.107253721954238 -0.002108818812886691 -1.2623036658586002 0.28605142464297184
Ni 3.3639058905591024 0.7775979886294523 11.556821485992657 0.41751604304457773 0.5125635562697302 -0.49059450819780664
Ni 7.040244557643133 6.5549764323037625 13.319378460991182 0.11266728318944468 0.15674781844842683 -1.2996702794325166
Ni 2.109655310833785 -0.2621754934378093 5.929390156677765 -0.04627471469682353 0.24843078607672053 -0.9002622588425592
Ni 0.061037746448225294 1.4523066163893392 1.4480816909430043 -0.3819443165875551 0.43917861561967586 0.20013029919911987
Ni 8.778161656983068 9.141017399945953 4.846504946259744 -1.0644004562177862 -0.7524197133035623 0.41263634635477325
Ni 4.544261695811269 7.784024733440703 4.889305558096154 -0.4004698861955684 0.8257563172141844 -0.4807060454395012
Ni 9.346381913307994 8.542808457119593 2.5237329821708845 -0.8731767154796768 -1.028703517036809 1.3388621191406298
Ni 7.229850743414486 6.659485808159287 2.8244261728259765 0.42163726430180287 1.9008471632662811 -0.13651040835562941
Ni 4.1666509299933185 3.2755046182571426 7.856479903687695 -0.9749782595992111 0.002396525256634582 -0.6151775689882308
Ni 7.538933034400274 1.3274734161645185 10.601541910536792 -0.7679525188318387 -0.1589887919638036 0.22704872085651864
P 7.787964315338375 8.902451784002368 12.07020883735819 -0.2585431919203741 -0.18707398023579394 0.25853290750772895
P 2.574470746975431 4.315287304955006 6.419363689180897 0.9325293464063812 -0.263033880701876 1.0849625966398542
P 3.4577563041774675 0.4564843249837423 4.29659546159145 0.17733232746799782 0.3226752465135927 -0.929863883759076
P 1.0055138469664813 2.265462093034459 13.02256502213485 0.08432627015290639 0.37931562071545644 0.7560850779702915
P 7.000949989603039 6.271483014391636 6.9636693947386705 -0.8381914576537435 -0.16612694567048164 -0.9575315248776735
P 2.242082331305286 1.8918277276365882 9.618753376063678 0.17672374734972143 -0.44958207034118697 0.21312799701036844
P 3.9346942388219954 5.684402469963138 4.289159040528065 -1.3146376993756261 0.13188113711373417 0.5164693190820396
P 1.8700495716321697 8.068125656972564 11.435278020745004 -0.06755753533499978 0.6192054592007012 0.061634742092661586
Ni 5.67252849648651 4.8447468618147544 0.5156397244738511 -1.5420756852507636 0.46974131889788134 1.525391282616547
Ni 6.362526015676381 2.834547584635976 4.2213282766955365 0.3610109088689976 1.9275215872336742 -1.3769141888173448
Ni 7.211220571075963 1.8369957431402562 13.420592579091178 0.23620236233132869 -0.5490269413030867 -0.4736252273333198
Ni 3.4619812296238024 0.8235944482108896 7.612018721843505 -0.039632526789957545 0.18624608501785989 0.12380247387065774
Ni 1.3547007134853428 4.781207296768896 4.673014227746438 2.1626044912485787 2.2726641616118473 0.6941795987147463
Ni 3.5227686101196523 8.864878481884855 1.7451372115841712 0.059463959693587906 -1.1533472558618394 0.9535679122442352
Ni 3.9681530710603985 2.633334359675455 4.985306173423155 1.2624090810882131 -0.4610697592658124 1.3511663904292794
Ni 3.2974024344593875 5.289827569945634 8.769753226928106 -0.11633753295218029 1.0292686455116598 -0.09502822995144279
Ni 9.389735723443586 4.492448830152405 9.45474618845965 -0.34224082735034606 -0.4554686110289511 -0.6980406243320494
Ni 4.014967822302357 7.718773107102865 12.367938136959426 1.535495975150717 0.8488191125709187 -1.0089425323597978
Ni 5.989462337375836 3.7286946059484154 6.540610765323164 1.9681900114873134 0.4386664518699477 -0.4454834747917812
Ni 7.974127969264566 4.10835800439062 0.6330493901181293 -1.1064374786841782 -0.8139148444945659 0.6663975435054716
Ni 0.42980746457291974 5.27087523553604 7.0071566720179925 0.867566568381751 -0.7170626739605069 1.3339037466940897
Ni 2.340323353720823 5.543810942147631 2.4860252924465813 0.7707763614338791 0.4045846796948903 -0.45381873413035395
Ni 5.6386278419792095 9.067233081040028 11.108611203457086 0.05866948881675057 1.3344071686930694 1.3923768032293182
Ni 8.767972130906612 3.0588460231464043 11.694315655610579 0.17082229426362194 0.66589026485175 -0.4839145250744698
Ni 2.4131595956747387 6.745484671874115 5.8957914140542105 -1.0821955754176782 -3.6582923332634225 -0.2706019228571211
Ni 4.664823947436745 6.054143276616347 6.532703067172954 0.4493691829994325 -0.7628787038533571 0.9258393359807152
Ni 0.6924312235210482 0.9486752529989051 11.25320582512142 0.7106631981920664 -0.8194959381267692 -0.0895083285744781
Ni 1.2734698484223697 0.8881087836375041 3.8261559961519604 1.6695358104786666 1.4340523285912337 -0.9932917131964184
Ni 1.6141516362649493 3.223470841463829 8.138379079579549 1.4343742307070266 1.2809608759484714 -1.4217051198797903
Ni 2.616268974539279 3.123646622584742 11.297757157698337 -0.9330157991244964 0.6249369623678399 0.5902507238395641
Ni 5.033119627085435 0.6955350249600549 0.2751641476803432 0.05900913154435644 -0.23804995706302876 0.0075377031379418565
Ni 0.07791719804624006 7.771239501534475 -0.20280746698079344 -0.5647142701313564 0.23612214391269656 -0.9409263122208246
P 8.077588017231458 5.116605626645907 10.975455176241903 -0.5676278442337257 0.4405395005229445 0.9826997966131851
P 0.48089040302504243 0.6072662993387645 6.993563273544904 -0.9561968652266498 -0.2715342048634033 1.0214506921291375
P 3.22772338080197 7.757230053758175 7.454451093808661 0.7580288319602235 0.5613129577592914 1.3995224131351638
P 4.447806371732527 6.207492422446277 10.599063103515663 0.6236241570936873 0.9881407651230981 -3.7779283344612162
P 8.64082856840068 6.215141470476571 1.2438244946423902 0.03591522583937041 -1.1506144303117087 0.36767675092494745
P 5.482581739382883 2.1316359687114486 11.257206157581065 0.20259135914510273 -1.0085591808784502 -0.2025237391319609
P 0.2104427080651828 6.878141808110667 4.798033361509419 0.16873353005539327 0.04454796181370392 0.24242108954753086
P 5.392670907662189 7.760387242054673 0.5744978143955141 -0.16803856087089772 0.07292985539050666 1.527838201495143
