# total energy = -381164.8036059246 ev
CRYSTAL
PRIMVEC
9.31969722514136 0.00000000000000 0.00000000000000

0.00000000000000 9.31969722514136 0.00000000000000

0.00000000000000 0.00000000000000 13.64031893842647

PRIMCOORD
 96 1
Ni 7.648600779294045 7.659132036916397 3.407119996437666 0.48681061567534223 -0.996635947078303 0.5662224792457667
Ni 8.86399178618642 2.3537081195043568 0.6629081844480386 2.0586684172845446 2.2007691752437584 1.2767177844014013
Ni 9.236267083288013 9.013572923211843 9.29478546081964 1.1563958128801761 0.7654639480820301 -1.4605215785263557
Ni 6.496565072681973 3.926798417373229 6.116018544483179 0.7077835626514263 -0.017040243311738396 1.5596951981047396
Ni 2.8252102306813205 0.854077537415036 6.077198278553852 -0.6674249563287216 -1.0521676615970201 1.3053385334618874
Ni 2.0398114044792286 2.904036227999765 12.426016330582152 -0.4254507245106221 -0.5048402194835434 0.8733741762024636
Ni 5.919983377706775 7.560548281934779 11.520558371576158 -1.090363198830135 0.7129679350658431 -0.09322897195917493
Ni 7.878294031825423 4.991284890264627 1.1272322649871835 1.7208252047812622 -0.6079795085778948 -1.9812576433045492
Ni 5.819339969685744 4.165736809339449 0.5904773632184938 -1.9851857747143618 2.059854467172846 -0.5831917601102536
Ni 6.791924910352361 7.80680263605458 6.596621339791316 0.19586843859897235 -1.0529184237201155 -0.1661338876490171
Ni 1.5702757493715713 7.012223908296722 9.483281924683903 -0.6858353405151092 -1.084466373729726 1.8099131579888699
Ni 3.676378158689544 8.526385761965484 12.643197889876356 -0.23161422874001403 -1.9023281186871817 -0.6540855589073381
Ni 6.557534530527477 5.230223282230845 10.194501554497199 1.069736266608403 0.7503833995998238 0.9503861720821438
Ni 8.204222475691662 4.8911167867911525 3.2803600014829057 -0.0630413926322011 0.3525522365786831 0.36235739559456304
Ni 8.588855691029748 2.045981043900464 6.048949344944023 0.6417496630498044 -0.47690312675364316 -0.6045943941557459
Ni 3.3904964528792703 4.4855235728754845 0.26815098224697925 -0.09395710837445108 -0.11700293445032106 0.12224412824460236
Ni 1.1859873628228899 2.2489547251015054 10.08055055111426 0.6429398267031637 -0.8291378320919075 0.5492650254558218
Ni 7.583269703247427 5.412553834552678 7.701010095435009 1.4129985932447278 -0.8050710209506908 -0.4842698515313596
Ni 3.543805468709067 4.637984496277286 6.163664563481857 -0.6367745784327163 -1.2772114362083682 1.4568572423008912
Ni 9.165754255703316 7.381488943263785 7.519375724479895 0.0028248710433048125 0.0664064524496921 -0.9173706363880718
Ni 0.8678035871727335 5.4544551923138185 2.089287811970853 0.0641698498096895 0.41711880760615905 -1.8763682042883103
Ni 3.5991271901659463 6.021465558458791 10.716843544838486 1.2932911153790503 0.20148475634448526 -0.06495557893577845
Ni 6.182705636444888 5.787885992273855 12.81413790851143 1.0415410351211094 -0.5746176452879974 -0.9933505914588118
Ni 4.851377598736547 0.6770685320864452 0.4156780580511945 1.4283087412392368 -0.8609313224534204 0.5795986434423567
P 3.824785013891591 4.3336311509913505 3.2553440707661676 -0.30761578107730897 0.07570587547374703 -0.7721629573687605
Ni 7.2426534168919625 1.9709854420535116 3.9072969513778584 0.4038778834358528 -1.353911043053952 -0.4383743745508257
P 0.052372969322621414 6.301904561214681 4.630451385183352 -0.22863689127924497 2.0238070866309856 -1.5347200162166408
Ni 5.029672722252647 1.460564276158905 9.016387471709143 0.8625408330323856 -0.6367542667177422 0.8221511163614291
P 4.923595930874243 6.21840939569376 6.591710791436257 1.1090515192682577 0.03479705307452718 0.35066864640272505
P 4.9444534127847035 4.394880199747181 11.488926387951361 -0.1610202205715356 0.7164641211445596 0.588053459077929
P 6.255110362522802 8.921848465230271 9.100247969352893 -0.3330234225171361 -0.23753779331330058 0.09894376295576508
Ni 7.283371173132714 7.143212249785341 1.0521061873820778 -0.21128554448499093 -0.4392750319882241 1.152682111474015
Ni 4.555151029244142 2.687148239161405 1.6825333638076239 -1.4335411932827697 0.6521243214159091 0.981188245064665
Ni 3.917646474908496 8.414512119046282 9.684339476179497 2.6374875022483995 -0.751031574706784 -0.5904432994663444
Ni 7.610716210944616 1.3662209833172623 9.392409287009132 0.3392226093493126 -0.6805514664083506 0.8917889312642253
Ni 1.8137714731761359 2.916673737146586 2.49383255997279 3.0731372787792104 -0.12126659482268148 -1.8277851531732843
Ni 5.7628812451935305 5.93154912169734 2.636018517420042 -0.12068064041222443 -0.224440079589078 -0.5716716752857961
Ni 4.87665261703019 0.9862476164846411 3.196049362473529 0.4518564681976605 2.1912062141456716 -0.25876122146845115
Ni 3.2152675096797676 6.35621975539438 8.238670871753161 1.9215273173234522 -0.1918965984354179 -1.922193233042225
Ni 9.06406704161706 4.3786173284631085 5.429637771143414 -2.00025423901171 -1.551851533690605 0.5822047136066361
Ni 1.1598642521012532 8.086486743352586 3.2548799498550234 0.9390185536751505 -2.2249149192520266 0.3625134615564531
Ni 1.5568460659788215 3.218566682421637 6.255709619040605 1.2530055283861259 -1.2051858377996858 -0.3509195860712666
Ni 7.666196367250681 8.807057757146648 10.86733708020128 0.8333780954255001 -0.2518426399717469 0.6641935938756174
Ni 6.701318816012102 3.127121815350393 11.06487644607525 -1.8598982316577453 -0.7655343963086493 0.013163019744519265
Ni 2.265646302448081 4.266314979481404 9.012404233206672 -0.38957895031467743 -0.11363761752251396 -1.2596101781868372
Ni 6.939110885245977 0.7391759249369829 6.989394378498749 -1.3018189503444033 0.6115456286625983 1.0304978899330703
Ni 1.5022699202828163 7.970540392839606 5.688776606380824 0.2753708050006741 0.8020826277463283 -0.490642844937239
Ni 8.414325725106064 1.8447408263434557 11.725067938844601 0.2777832710969087 0.683203559319217 -0.9361700284827619
Ni 1.690043175659031 4.948852309773862 11.276260221858953 -1.4697608377364366 -0.04738131749744098 0.6953219398493057
Ni 1.3182991012870608 0.9572819981746711 4.230189969927638 0.477380580610694 0.4392369796614371 0.4337546163906271
Ni 6.020999573608244 9.27874626226383 4.83140082819362 0.4087012729664251 -0.2416651852181128 0.9922732992342331
Ni 0.20434460863134912 7.851695616556229 1.0792218458353784 0.5474081747527412 -0.7140807085140476 -0.8253487973631204
Ni 4.886512856467753 4.564722358074366 8.805630911534275 -0.6626087658870008 -0.360795707534398 -0.9170284225573045
Ni 5.994932381068673 6.69487890537755 8.48800165785627 -1.5012059436195953 2.183130893336705 1.0352960826526623
Ni 3.2577653280496075 1.0134611317565563 11.583672291703877 -0.11854482501614422 1.7953581429928307 -0.971106949569263
Ni 3.1187806865256107 8.802780016218632 1.4380581398472105 -1.1293434367480744 -0.8714497054862411 -1.4798732435800899
P 8.808418432910244 0.1121131591323829 3.2493962401337924 -1.25606488403774 1.4283478220072885 0.008773375317255857
Ni 6.806006972535877 2.284602566168312 13.643319739301168 -0.7494806852798963 -1.366581182322453 -2.7731846706741146
P 6.449556520958843 8.57635797733809 -0.02353596283140226 -1.5026627306707798 0.3456159144701661 -2.9089263191845194
Ni 8.361138214264688 4.483417321351015 12.233183411698704 0.2462759445172468 -0.2922403270625032 0.12360449892723874
P 0.4694760090467871 5.338145373617413 8.719137599484938 -1.2632634586687082 -0.20901268929041425 -0.674754143000283
P 0.8330262058067477 1.1523712157044657 7.535470841217769 -0.2520722394840497 0.24977187348564728 -0.48595983763927275
P 0.7940083623007888 4.763819045318862 13.504160819443067 0.6871358044940876 -0.017364716530692676 0.18580334105348645
Ni 1.8165767019764256 4.8115731728028655 4.107032037867602 0.44968234336447716 -0.5154586184293382 0.6641545131075659
Ni 9.337218041310406 0.5511696771354949 13.130675825669455 0.9159123066749904 -2.9799710417371714 0.3247444703377956
Ni 4.711833775391894 2.4583496775430773 12.745254163964244 -1.2200871803915503 2.7257110505731834 -1.2798290763368732
Ni 3.995391387373673 6.1122300876482365 4.60340282854853 0.7168197047117656 1.7142735197056733 -1.3495190846338434
Ni 5.802201046882644 0.8223262616684991 11.316021777186384 -0.5140257426375534 -0.12436297435981805 0.362005411571783
Ni 1.999746027029241 9.062445414337159 10.274869961670953 -2.1651565682464713 1.3617130555968742 1.9358133949288205
Ni 5.5128058152992505 8.187549537739107 2.6250790570686124 -0.8391970161001225 -0.20493311990440188 -0.838761985445233
Ni 2.786738521420202 1.6102199707604168 8.4021635205068 -0.34066705510532297 0.13098227944854862 0.26959996395516794
Ni 8.597849198645294 6.9196513578871555 12.51492437612702 0.43282593392877067 0.45296949875618125 -0.2870860365550733
Ni 8.553058734810765 9.017310121713226 5.404566854214311 0.05690339805526329 -0.27378160613668334 -0.06687824987978803
Ni 6.048129211607061 3.9858759767255134 3.7530792650894966 -1.6822455447358513 -1.277169270116523 0.12509496742983614
Ni 9.170553899663945 3.3587069663749887 7.790804444165617 0.4761644488154058 0.6117605728868819 0.13852846722692272
Ni 0.9453900647887246 0.642417898599808 1.8006036732693929 0.6095823342886405 1.8410067940698809 -0.8965092195580303
Ni 4.595132529421031 6.904534809335427 0.38593890488931737 1.6304259889613983 -0.03490966739299149 1.2824372033836815
Ni 0.04821731642544779 2.9104761386343174 3.5816611459977628 -1.4825726447891243 -0.2195318436541832 1.1532590670234073
Ni 8.691847662697533 3.5491642944903514 9.948948041592622 -0.40770625604300753 1.5613347905906918 1.1467315503175348
Ni 1.2284106236166425 5.772974477056368 6.292661285719241 2.0063354122087835 -0.22325531525235745 2.4705249480505
Ni 4.6100533643355295 2.698042964967182 7.13424110944262 -1.3983317352611726 0.08795718203727432 0.7341972767582646
Ni 2.417669200090369 6.632781764193723 13.608700792784369 -2.296500859020129 -0.304660812214043 -0.2840799027388978
Ni 3.1109707804304514 6.508447686370909 2.3519317852540738 0.39955663035267963 -0.450161854104057 0.3854872967438071
Ni 7.208142578860489 0.5338648637256004 1.495824417830057 0.9397775433283622 -0.5847686176790704 1.6664597426565042
Ni 2.0376771938637255 8.558585315138247 7.916254089720641 0.2869752220088219 1.1468287380170314 -0.8339450236725637
Ni 7.038151305381128 5.744437564808901 5.094631942388529 -0.30844007675081725 2.8795941458793055 0.044888632982574304
Ni 6.850676280309264 3.110066769820391 8.370490530215156 -1.1690690374724704 1.4140771710208873 -0.560918293424034
Ni 3.6940389845252564 3.0881468424506844 10.258828899175741 0.3128870567785773 -0.7663473791282479 1.2096904105382587
P 6.989325412740866 3.1063202516219977 1.9168333425715036 1.4297498445611376 -0.7244723361610168 2.133717633010899
Ni 8.505919707329483 6.804459902832063 9.663210791086017 -1.5242895649119361 -0.8150168193094932 1.2514386981196384
P 5.677289147845151 2.1830271884461876 5.507592376791336 -0.14621143769347725 -2.8470105555163294 -2.3138498918215378
Ni 4.211263529237842 8.241482624341359 6.6086661162082425 -0.07239995102896564 0.026927420518463304 0.08362872986524952
P 2.847652061083639 1.574730564542796 0.5723104778350881 -0.765959656771526 1.0708307852241623 -0.02728300408566914
P 1.3265843119297775 8.154688286078569 12.503506815318932 -0.3733180083711248 0.46405198182258783 -0.3825521253748831
P 3.4747651532520982 8.872687063497617 3.4283027357738085 -1.5872967618720921 -1.6977662660792694 2.454316199501122
Ni 3.365752657315252 2.452413030547115 4.6972484495697895 1.093816190375742 1.8236145667353627 -1.271386859106791
