# total energy = -381178.4295161877 ev
CRYSTAL
PRIMVEC
9.13640722247481 0.00000000000000 0.00000000000000

0.00000000000000 9.13640722247481 0.00000000000000

0.00000000000000 0.00000000000000 13.37205549228762

PRIMCOORD
 96 1
Ni 0.17015461593469863 1.005936679068836 7.5422665732158505 -0.6037572429664312 0.08086787929066072 0.9376173024522498
Ni 0.8376413219504215 4.406918487755135 5.553067036229884 0.27327895546865194 -0.1363512570699458 0.33046234665817925
Ni 0.2320848368698333 6.522398700814976 4.392867607491924 -0.3653403894822869 2.246784722741924 1.3294320840759812
Ni 3.9367863948336157 1.439541416965767 7.772707770473647 -0.23328030358852728 0.47414459017189947 0.2365540892437926
Ni 2.816187808421463 3.8073783266574606 13.174014518900648 0.3493455567159274 -0.6160021217720553 -2.056469352750697
Ni 1.9898820265858501 0.8808693178392 9.356159474382585 0.9362918987726068 0.15069004229012115 -1.5761165768855565
Ni 4.237465547874935 6.091297338424982 3.2062447761860278 1.360217187777638 -0.1963677468328941 0.4681508344823099
Ni 8.15420666583913 5.682744628411348 6.281776805282067 -0.11602668657998082 0.3433425450549571 -0.26362472020833955
Ni 5.489043664460299 8.925456459336031 3.347600523743287 1.1484061098064804 -0.8937527398588155 -1.602830852951949
Ni 3.116117776092093 5.521066770853791 5.3211283818714055 -0.3317507264522996 0.8165450830285617 -0.19411494624297537
Ni 6.250097227790256 3.986561539949663 12.439956297214302 2.1306644480068724 -0.18709763438487778 -3.223527530440726
Ni 8.19706555088674 2.272562457916705 11.463929473609195 0.08705601037924363 1.0986681191514047 0.10909653511905082
Ni 6.9254787030597935 0.7792368404610067 6.790610718084565 -0.8354318926307355 -0.5058982284344126 -0.20505344753235005
Ni 0.7459921964570125 7.142504913978769 11.036090722144484 0.43275908524657725 -1.109848047027624 0.09733630925932914
Ni 3.3519741217548606 8.112562922917151 2.2936145668330776 0.40213621815439776 0.7037132492367945 -0.4927277524907256
Ni 4.13428810407987 4.130916769911767 11.239185739731424 0.05612024003233561 0.07900511505030909 -0.692533321360575
Ni 4.173848746215054 1.081522173845829 10.318385755275175 0.306442072484182 1.844975548909642 -0.6155215825912109
Ni 0.5600708830320859 0.20665638901979985 4.957943414256494 0.412459968677909 -0.7070384569552856 0.7087402701377408
Ni 2.1114967396254434 0.9444303874166281 -0.013986925414492753 1.7638960678288071 -0.008527834965353054 0.4073149341418598
Ni 9.041479691316333 0.30119444639384274 12.674555473279424 -0.7604703515221806 -0.07141290452534797 1.191524538262509
Ni 5.044036690677754 8.252907270223979 11.036532010600634 0.0085219214280821 -0.6499070020496162 0.4206183361189853
Ni 4.629125041420219 6.114878404787778 9.200990393143066 -0.6136958422363817 0.3855405185792457 -0.222944468880158
Ni 2.217579560833671 5.79167800859098 9.21235608340084 0.4058851436738687 -0.18894805733005524 -0.29965693124154846
Ni 0.7593624144017306 4.191609921344568 11.160023341629735 0.4795529056716645 1.0946597693229598 0.16542297762492156
P 9.024887976277649 7.278938879106877 12.991138369915367 -0.014678942168413431 -0.9474931668050649 0.13734241733862154
Ni 5.913685587129836 1.7701331663929052 4.5970854894942 0.15309042420149765 0.9305781362172812 0.31047741889582015
P 0.596034521747265 4.803073093524556 3.413243780466814 -1.3734177456283119 -3.239417462198105 -0.7302028108868909
Ni 8.8361206720848 4.5261303257643455 13.308109563847093 -0.5597697816418875 -1.3104509149877883 -0.05107316452673139
P 5.402202116309046 2.0164598344314046 2.483712131879249 0.5151400587476548 0.24021662569704433 -0.057260781394682034
P 3.60589314397681 8.383000568922105 9.260028027634782 -0.4139406669884936 -1.0574821318313983 -0.9009538855929452
P 1.7262510037658172 4.286747327015163 7.593160928184452 -0.39407375286123747 0.884757992559373 0.7086867911919859
Ni 0.3595176138613168 1.5014497105241986 1.4794839609118635 0.6253092581055941 -0.27268734463124006 1.3986356396548365
Ni 1.944318765078191 6.230444816420099 2.7570368824834466 0.29105710538767937 0.41091833522240195 -0.866782896138191
Ni 7.603610236824177 3.750001690951004 4.686317121706092 0.7478500916550088 -0.9731265511024532 0.9253960777957094
Ni 7.947760414179402 3.7987444220806137 2.344335330069446 1.6693023543116217 0.018796563881212792 -0.01863458438205178
Ni 1.3477662090563152 2.658466015077424 4.004957695362871 -1.1250121563625721 -1.1733586659867599 -0.9145287960639024
Ni 9.064476027633713 5.401626522670589 8.89237627065731 0.2674350950933652 0.3000747355052574 -0.5757810694684793
Ni 0.06594932635667454 0.38035775813622563 10.469249761555316 -0.39425141608968234 -0.25586950174295287 -1.995415165751854
Ni 7.14985058517431 1.8516116436588574 8.98426933821654 1.322105468507581 0.6994958687213373 0.6827978392403661
Ni 6.087679321268969 3.121627029488748 6.579866700591028 -1.2712374780131201 -1.790382287044794 -0.6925076103289622
Ni 7.474576761333367 2.359285232777483 0.5004896323262713 0.23668752949786337 1.4017474458109407 0.032336250238860435
Ni 1.1100368999668244 7.862252781444254 8.810673037780152 -0.8257527176697586 -0.1209050977182047 -0.20924923078125252
Ni 5.1932159435145415 3.5584843282633063 0.7850201860664506 -2.129588184223558 -2.0157307373807543 2.904543102515159
Ni 7.682219882304807 1.4202818710948737 2.968154579021632 -0.30073448057644336 1.3860161511186129 1.8710447351928678
Ni 2.8152833041324596 3.406143878618488 9.358847405310108 0.3632837640635743 0.7402033737430284 -2.8456165033822796
Ni 1.2679688306709342 8.157258225763645 1.2068161179680639 -0.06474500558686914 0.21936420772806736 -0.8310170513924913
Ni 5.550769229879538 6.011061412505539 11.433989468002498 1.3280871400123127 0.35105739720071155 -0.44810291469249924
Ni 3.2217894589871374 6.411427901883347 11.287672651466163 -0.18415115016204414 0.14602271872143885 -0.0140644485128661
Ni 5.874956358027978 7.711566021459128 13.345057193591824 -0.6515175410698457 0.5544298574862129 -2.6695293611752926
Ni 6.448476032104634 0.9417168745496188 12.390412303194333 -0.984665147869672 -0.7005063122637225 -1.0233373676288893
Ni 2.5365772098290424 8.804225475388742 11.479120577460966 0.2174047700088514 -0.5569942757792794 -0.3830488625056435
Ni 5.246015239334225 3.3633306756056767 8.84344807046642 -1.1143521055455647 -0.5070451975546622 1.1499896522435162
Ni 7.5011819783998 7.970665386427187 11.254443539353998 -0.5709903329480553 0.2672036958088495 0.41151431693518803
Ni 8.672962716599782 8.34468247813343 2.757290874596924 -0.06656946039011762 -0.4531967842756389 1.0744606686672658
Ni 1.4189296828648488 6.5276155891889225 6.635802524919952 -0.4743068267813767 -0.4094965151742109 0.8064501606864046
Ni 5.754081693952115 4.164237246093526 3.0742885641088336 -1.2456750561629837 -1.3745675429620392 0.5584523483820447
P 4.963672855060876 7.518988835564113 4.849629482468726 0.3149945900398833 -2.0106687494768143 1.019192235112264
Ni 6.891153222112475 6.358171785715682 9.554039430876966 0.9768736768497112 1.5365575836460117 -0.5100392471859797
P 3.5897947949139475 7.892503424887578 13.330655475301363 -0.43093951553933524 0.22179544287737932 -0.4899357915678853
Ni 0.42117831079114243 2.709675576086133 9.413298563508091 -0.2466577533366978 0.0534411505382757 -0.7469023830297588
P 5.74317282404232 2.502425320613957 10.811440179617701 1.1437701536963656 0.2006612320019254 0.2418752443463899
P 3.2253800669222703 4.903317750685582 1.544579033217813 0.9583733040526785 -0.15610581398905374 1.3688491524210231
P 7.915764717006788 8.37088569329364 8.925766183531962 -0.23989986578757394 0.23195592835014894 0.5674481241227518
Ni 6.718392902912891 5.2794453523995 1.0184663475732683 -0.1352989045460315 0.7708997743856207 -0.3549230508037049
Ni 6.4729890119773135 7.059920931470701 7.0731751170470325 -1.7084733680841284 1.3671997897430583 -0.04339636470776397
Ni 7.333062953935706 0.2216985694381295 1.1662130117987861 -0.9217199144957029 -1.7879520803367466 -1.0882451240458677
Ni 8.785349658610153 6.161254806514846 1.616494433319124 0.8958687577605539 0.7764790682456112 -0.16085515574858106
Ni 8.323860606672442 3.457581849801187 7.370114738719778 1.3672198443477164 -0.9601386234832174 -0.6151631708105276
Ni 2.333876885022761 2.402409073626922 11.146945488707726 -1.6354272988307317 -1.424584241199798 2.3515795451618273
Ni 2.616155314447392 7.824665603212349 4.704289347836374 -0.09438519705080518 0.08080437304257697 -0.2707595314809079
Ni 1.7411798927378475 2.36647558505471 6.556572517406764 0.8921033771808508 -0.2050315931554791 -0.25110344781287725
Ni 3.469358678372146 0.9857086740602221 3.7320605286043853 -0.43209136975559137 0.6311479762745582 1.062768062820686
Ni 7.187967675009872 5.87909515038069 3.4479438540994765 0.1677994482768981 1.6552178511940976 0.48131642532999047
Ni 4.28803556039647 4.884880481441055 7.114788709826046 -1.3881301121378222 -1.2672355559425788 1.9797052112157647
Ni 4.775225325111612 0.5270482537172105 1.014534951658541 0.03244706478511186 -0.10778372984489824 -0.610868914310548
Ni 2.1534145747562112 -0.40444315416319393 6.950420180418878 -0.05426981708715815 1.8024142785086636 -0.2252144958612573
Ni 1.2798918417532472 3.905978430565754 1.3819080482237447 -0.7173416386535065 -0.3604810045074566 3.152447326664448
Ni 3.876961202061979 7.230013419838075 7.012225232578666 0.7996382799708938 0.01875774022347737 0.08944713631923949
Ni 5.787694535156582 0.14174952669721874 8.72304575863037 -0.8929019618227461 -2.4081787817131106 0.37925957066654037
Ni 4.599641856161504 5.707741837852887 13.432096088133404 -1.524833353230548 0.3313023260609714 0.23275605565394109
Ni 7.952127616706103 5.616441723105336 11.669819318085082 -0.42200030406817646 1.4842896274802309 -0.6989543943955705
Ni 6.553499030105545 4.877808902454303 7.782455403058872 0.5101531470560247 1.333898090267135 1.0420148894337344
Ni 7.379055626570468 8.223360130116546 4.825934211018934 -0.780879511306152 -0.14318550638295985 0.20379823496901028
Ni 4.156992075374542 2.0101008951875046 12.503299006665394 1.3495687069248565 -0.5872890701080788 0.41365424609632634
Ni 3.2494636356678472 2.2244592752742696 1.8889503116214605 -0.6781559695929804 1.3072902578716195 -1.3420184053814241
Ni 5.736868703240178 5.188492421116414 5.494684482117172 0.3996005962167376 1.5640372771235194 -1.9081444682586426
Ni 4.454318167061679 0.28094085944574193 5.737039554050322 0.4778909445882092 -1.4311865770076642 1.4677088403034142
Ni 2.0512512721336638 6.172510859889105 13.356823972115128 -0.6926022269252975 0.11491494157304079 0.1935865845433311
P 6.616384919208657 7.334707507188439 1.761835481592172 1.301062788904669 -0.2599364727234749 3.3294153288144916
Ni 8.533659919686352 8.03619169714163 6.896343614906239 1.4920049938466176 -0.8327939407872561 -0.12766452792922528
P 3.921373276292725 2.335832076112121 5.735407791767333 -0.08577200146049745 1.408650343578361 -0.4709044859680471
Ni 3.3280275991136783 3.806948915530359 3.9570180544050135 1.1262660833743314 -0.8727815369237872 -0.5444457496903075
P 1.573033459052875 9.29592862514194 3.124273846584952 0.08501044070412456 0.24152300321329367 -1.128201352723831
P 8.333252833026938 1.6643518466143452 5.531778294373258 -0.5765999658253489 2.015266910370458 -0.42592072216850513
P 0.7687592089597067 2.5297431774232417 12.959192922981032 -0.5700868472971795 1.2243153595402851 -0.9399469790266909
Ni 7.4305575526018846 4.100985900712029 9.909281206281179 -0.3327827672612398 -0.997445587463792 0.6746153034295737
