# total energy = -340863.88057632826 ev
CRYSTAL
PRIMVEC
9.35149789637913 0.00000000000000 0.00000000000000
0.00000000000000 9.35149789637913 0.00000000000000
0.00000000000000 0.00000000000000 13.68686243524473
PRIMCOORD
 96 1
Ni 5.152114261436573 3.2565749855100985 10.509840842685888 -0.3790646810469149 -0.23314120690750167 1.5704578359378825
Ni 6.232848172508017 8.672092888725963 7.1834270004450005 -1.050401570835533 0.12525746114962943 -0.6339527927132049
Ni 0.49959535977495484 3.988862732760822 12.380204951074674 -1.6480832970318458 0.2688430311844854 1.1331219299539002
Ni 2.9535303440679925 3.4050487179107742 8.169154368446302 -1.5514897794758118 0.8038692873331059 0.5426920002239943
Ni 6.105527528391672 6.381060062967066 10.710352855535644 -0.7820066829320597 0.7460575185309603 0.05808996216419673
Ni 5.733740025774448 8.28238791610309 2.7232478376049882 -0.43997822870283587 0.6911166435187065 -0.818545658398358
Ni 8.494910057725422 8.033105036175847 5.454187282245282 -0.22826151021769722 -0.6433910553079694 1.7397446673935844
Ni 4.6751785162600985 1.0817438728462936 10.132945551907344 0.2847383622585032 -1.62127157615564 1.1381715765626657
Ni 6.4730039904699606 3.9031656058653255 7.010630021966718 0.4158162867446516 0.49530682607181153 0.7324648674481901
Ni 7.538999940826947 7.419609366942747 1.182496911385368 1.0580230919365328 -0.0986264888256624 3.06054015884049
Ni 0.3249813852517361 3.326243644978829 9.250895435843221 0.6295950299651415 -0.10458039241625214 1.0060194451757318
Ni 1.9533782905323938 6.153154707274122 13.500324565915845 0.47410370963163506 -0.26982390704051595 -1.4087387895271093
Ni 8.01099809510416 1.795553060216452 3.471781942183903 -1.3382735936270114 -0.6305543085546172 0.5427364803086846
Ni 7.22222730044523 3.563921315993226 12.06819970433016 0.48197257085675055 1.6768809379898282 0.5858248268577265
Ni 4.399702090672196 6.194310649599206 12.723621879316566 -0.3277642310007259 -0.6188223648296697 0.02534696340522086
Ni 3.6754098741390258 7.942086906966566 0.7237068127636757 -0.13311295263830622 0.29731439915130087 0.2020210884639295
Ni 2.562965033636914 9.458572566395654 12.310976747157753 1.792701422096274 -2.697706852050773 -1.8239128147020718
Ni 0.17888947937007826 2.553426505763343 1.2276375269721478 -1.3601179431956125 0.11209804094953597 -1.085790748968104
Ni 8.464779531442435 8.484763682487358 3.194458595757736 0.147530670725533 0.4038876536278657 -0.9349060741686738
Ni 8.00819264572958 8.571124765734838 11.535547734574534 -1.890569178379041 -1.5526568032007195 -1.5239884887317496
Ni 9.092021902610979 7.1874677826941875 13.112794751708062 0.31020333929882704 0.3483546535575678 0.1235582190703356
Ni 6.283580048698335 1.6741332112846399 1.6402059768480555 -2.491913441028605 0.9046580739174096 0.6757188209063976
Ni 9.340912019625778 0.6821309881821952 5.063769725481265 1.2320996314713941 1.4942629366428588 0.7598841400014075
Ni 2.0164354409750316 1.9169542061524334 13.316619065119404 -0.8370874259562874 2.3096831620383576 0.6665844627052971
P 3.0119491515446586 7.18441919437381 11.399842537427363 0.4661008939318166 -1.5267187431787193 2.4086238396703292
P 8.278301311514118 1.8553652408824923 13.116284730730039 -0.09653155396984667 1.5709319473608236 -0.3089548116037066
P 1.5487763817305011 6.918172697228276 4.537810622783592 0.4255733661314155 0.714259400183757 1.0273282339558372
P 8.554320123981105 6.135377509737202 2.924800672172713 -0.940447315701877 1.2536557603756153 -1.5644831064116862
P 4.812393045170794 4.2331706157971425 8.634822493784672 2.1408719846674935 -0.18425348006786332 -2.4379724680357753
P 6.711121181886375 0.20176604872019313 4.686559289222978 0.3777403058085365 0.12075648795548237 0.20360900177633967
P 1.4167706371586082 8.833303361287232 0.5531055659958977 0.6967702422600581 0.3612803604803003 -1.3649703861919074
P 6.361992358717839 8.967534762362959 10.00359095699443 0.3625407152499627 -0.5368000602195916 -0.01809285294596884
Ni 4.512817809455252 0.7704119339516795 5.440089899138019 0.7510991947199258 0.25182361380835344 0.10575384389906303
Ni 4.187123840062373 7.776892696293395 5.586005061709079 1.5102225452959088 -1.956724434049875 0.3324690926755629
Ni 1.0989880350020438 5.560615744869131 10.59052463154901 -0.31519539319677975 -0.4502608415757665 1.5777116892868184
Ni 1.1902212486633776 7.152240690047381 1.752520272259773 -0.6123413850910164 0.515418509220022 0.9312900746826412
Ni 3.7964463116563114 5.1996198708461225 10.091884994860996 -1.5714443682208679 2.0418546881613153 1.6167119818094158
Ni 4.367402016872869 3.1861395032123156 6.309930699523971 -0.6641563128797788 0.3477797548907043 -1.1115665723806276
Ni 6.0728440431778195 1.6026597127182631 12.78024426404371 -1.0589507459571246 -0.5611954583448205 0.2805281808318975
Ni 3.373824066371702 5.564403101524814 1.809923507062841 -1.0435688641844156 2.3469129929240937 -0.6681356092425009
Ni 5.753770934308948 5.837560355629729 1.4820684065017438 0.4330835584655316 0.046543909197810165 -1.2064443927971351
Ni 7.677748115395746 1.4615082031852402 10.954964662254211 -0.31384479270615623 0.24658627666881403 -1.5222553080907268
Ni 8.43290962654721 5.379318254785872 8.07059519131815 0.7221105207970596 -1.3171496671642025 -1.332342315744241
Ni 4.172329770360423 2.7302259253493593 0.38709777500409803 2.285095959617297 0.39017904579252155 0.25325006184223486
Ni 7.431794368726338 7.196716414132386 8.726853390218178 -0.8982107756301693 1.2614019799799372 1.4088912559445737
Ni 8.851333049267865 5.536760073687288 4.9951979967179945 -0.3907932823377528 0.2437495785509673 -0.2057162779273296
Ni 0.5062115445500054 7.70515735578539 8.887728144004289 0.7181240253454858 -0.2903135423534355 -0.41312485595541754
Ni 4.649433842499372 4.066293135499223 2.842733796767923 1.2330460545450634 -0.4107568699438732 1.2531183998149065
Ni 2.7959763071915935 4.191388123111735 12.126299625727915 1.0611441540640176 -0.8505399519167675 -0.3347900274992557
Ni 7.388010655487064 1.4029117172481842 6.846798324539802 -0.9641096923158234 0.47072733696023444 -1.5211777587558317
Ni 0.5781273689677744 6.622459630151739 6.59801200915186 2.166830356404468 0.20521105615613688 1.5310983603036534
Ni 0.8726340928132422 3.1365765642614067 3.5265293515790357 0.1311324318731677 -1.0703294201077116 1.2531502814941062
Ni 2.225142171447935 2.0202415006265446 6.368551499355607 0.4797711923300576 -2.1305983706556275 0.014311531526665677
Ni 2.722015310179756 3.369064153932831 1.8686125728292582 -1.2051758104973567 -1.9205790944775698 1.795003073646257
Ni 2.497261409284256 0.9722752382501915 4.105319741749002 -0.3777853001138591 0.5523220671145906 1.0470056577801066
Ni 3.232625799349102 8.044859869055337 9.623766777068825 0.20659790920133453 1.1266520059588403 -2.1565662554742993
P 1.3617370719272686 2.611284223365093 11.023905775185133 0.9603268282346236 -0.9445952764319796 0.19533519180332165
P 7.839173672409065 2.3500314261063107 8.82318129994375 -0.9839886906279376 0.17405828470241638 -0.7033381252855629
P 6.807806318832309 6.581518772278705 6.735934446454741 0.27806737799623077 -1.4480560990694933 0.1527466677088337
P 6.152948974319986 3.8697433523161657 0.5729101682808476 -0.2764447547911433 -0.014067276726343513 -1.2659479474794069
P 1.2650986924709111 4.364409537539983 0.9485953752291552 -0.11459046835408651 1.7548570975549906 -1.53672573379276
P 1.1763529772550383 5.155434043196492 8.61032343954626 1.4681888652636261 1.2543957238654333 -3.211329188602321
P 3.92618899373271 8.802518230150177 7.45282495238798 0.31283666315661607 0.8746594706727905 0.8729538008355933
P 8.538347765541833 3.4752691157565057 4.864652956120467 -1.1304317847162468 -1.2739417643181608 1.1513865325910428
Ni 7.668284399505497 0.3587337466773052 0.8191425895881299 2.731233008832677 -1.6485049579502964 -0.7782814115616725
Ni 6.469188579320532 7.257005521192104 4.697003042094746 -0.4649516108187219 1.1163084579409872 0.8029979404717461
Ni 5.132391952333276 1.6071110257259296 7.787428093844733 -0.5895189878798621 -0.7168099345197526 0.6654629475063443
Ni 9.413124286527463 2.5450662666270953 7.023728665096631 -0.2975468268770811 0.26333778509554007 -0.8174380271564761
Ni 2.6480169071762574 0.6965351004210792 1.9132725214231932 -0.04750061668412465 0.02089998337746078 -1.6171909783283633
Ni 1.883560007097019 4.210287500398487 5.737601259263661 -0.7279358692295851 1.5828402687626353 0.07875443249208372
Ni 3.0504212139680624 5.88485088058723 7.42577948526724 -1.4422443774837226 -0.28377317013175646 -0.170028594717733
Ni 0.9442020415085634 7.729396438381759 11.240404173721036 0.722953071303013 0.8728352729798581 -0.09762504414434155
Ni 6.948003975577974 4.389106843534201 9.66824904720237 0.6324409840543689 -0.6996203101143434 -0.7823236999518463
Ni 5.134626960335025 8.453286540504575 11.955515089601 -0.4567737029936198 0.7311217231567344 -0.32754671567328103
Ni 2.693848598458975 1.1994418256078296 8.980415515591446 -0.6106891941995741 -0.6102307665059168 -0.6333586107726318
Ni 4.922796829558424 5.349346703967445 5.487487031171752 0.12188006003696429 0.24200508505603482 0.628292251993318
Ni 4.983852759447194 6.569661072922147 8.400968650267828 1.4023835367330428 0.4593059824971703 -0.5531183377636409
Ni 7.263757302686926 3.611548494875675 2.334650082335281 1.0610279402011276 1.3644787912674694 -0.7327942257631509
Ni 0.2461407766277127 0.3527497231613266 12.53589336411698 0.7661604599284224 -0.08280006331636708 2.0999839882038804
Ni 8.238342360922188 0.10996893973456888 8.568783150656857 0.33007745251493475 0.235517163338846 0.9310872146432159
Ni 2.141053502193864 8.614225819626299 5.982568422903008 -0.6762849778225127 0.16014193173164035 -0.6383434655817328
Ni 6.718826816168554 7.044848087988467 12.996962422780621 -0.8741856163601656 -1.1931610454246677 -1.7761556019224507
Ni 6.742757299333719 5.151431602088758 3.8772142640006715 0.9577755225676795 -1.1546001544323339 0.2722865096483956
Ni 1.2525770367623703 5.3191600686969664 3.176200731227971 0.4150207874265498 -0.20866841857711807 -0.24888535711563586
Ni 3.243118180010031 8.06745308801862 3.476052771281805 -0.5027347431047665 -0.977291224003104 -0.7232454057324511
Ni 5.889685605009422 2.7597111982761926 4.341417944765511 0.49190217126563673 -0.8855812597916168 0.9771346438205818
Ni 0.6182228514292684 0.6048062573702364 10.331144939322655 0.6128286091400801 0.7810504896663775 -1.215399287997578
Ni 8.72188026362684 5.280772169754801 0.6695541586359541 -1.1321215137138438 -0.6179186220684777 0.9675860809001982
P 3.971955224530021 2.004110166722711 12.136373994432033 -0.5369239873919656 -0.4099557141988165 -1.3437413016098019
P 4.4703339544262 1.9069106973914378 2.735565630658976 -0.8806162024768576 -1.388003870972603 0.11110225269516993
P 5.579674097620443 9.061825915842585 0.49586411210676373 0.366714129901362 -0.6671665604610123 -0.15896668047661655
P 3.103060795733094 3.0441650618627496 4.46080851864971 0.12107221942368825 0.3597189295304514 0.0760948833820496
P 0.48702414112746295 1.1404899827499937 2.766128196145648 1.7656166500643402 -2.700831770833 0.5804126547032198
P 4.899324569791107 6.193506420778494 3.4765315679750666 -1.5329678094122245 1.7859638462621241 -0.2945831162630668
P 8.089541326094478 5.701402545983459 11.036483539881166 0.815670393733092 -0.02914371144349174 1.0439059358088603
P 0.7285022608946241 0.11947286706585357 7.243675896063684 -1.1396849278833985 0.8523839471040418 0.8124395455006201
