# total energy = -340896.4030880289 ev
CRYSTAL
PRIMVEC
9.01815804784504 0.00000000000000 0.00000000000000

0.00000000000000 9.01815804784504 0.00000000000000

0.00000000000000 0.00000000000000 13.19898587241314

PRIMCOORD
 96 1
Ni 6.346068822036043 2.108346159131936 11.375189867136907 0.2689114225285756 -0.6131065453918151 0.912648291211738
Ni 4.426770310714238 0.39279218784161307 6.146226439005345 0.13525211046849608 -0.917980759168245 -0.4709654211129695
Ni 2.5696069085567608 1.476687312804358 4.753654192051268 0.5411765920207325 0.6331662922561676 0.5102115110977858
Ni 3.2520199485529653 4.292949862979919 4.844449909406475 0.4752643055986395 0.09391545650323825 -0.0050820425085977
Ni 4.938929544336952 4.481239985511413 2.604621710930104 -0.14008192775697167 0.5517281422843336 0.07851609122903251
Ni 7.3038513189745915 6.128289322586209 2.6849248013603906 -1.3861452204973093 -0.08128619777500194 -0.6764240745035383
Ni 5.0464079523225065 4.350774292582483 11.374213200616952 0.3564901381805087 0.5886625534168378 0.2204715818596332
Ni 5.837561942435324 7.892186933890642 12.381453981908175 -1.1327524624296235 0.4177353581442354 0.1342306111825172
Ni 1.9801440238808354 6.3458704225583045 0.3637338788794509 -0.09413117205847014 0.3306505514095854 -0.7166803509204238
Ni 2.8379963111459565 1.4413180968185098 0.6508197267980351 -0.22655146950512595 -0.16298762871055156 -0.9940401613266686
Ni 0.6165813878352939 -0.02839727797497125 4.690180788228017 -1.1033004757170934 -0.07384593944687282 -0.13663073598357758
Ni 8.66625151444375 2.4603970142200393 1.3667947439010562 -0.11550346708665914 0.259944700253591 0.9082403919520292
Ni 6.67873965541237 0.6858787181459657 4.763091694480945 0.5145240224302107 0.08493305049896985 -0.09074425786410824
Ni 0.6874361540462094 7.414648409133218 2.3749066792627107 0.5737077318792184 -0.0654883115107969 0.061023590871223936
Ni 7.723006288328554 3.9039876868744576 3.753936358229549 -0.4426154092153668 -0.44368987322646813 -0.3692592649207189
Ni 7.642843881164299 4.094324931289886 12.575703303298274 0.3686098042621781 -0.7286061558237322 -0.1605581933334525
Ni 7.643673551707567 8.818568204398103 6.98426944023413 0.8635767304960675 0.22585187233494006 0.26792669001780306
Ni 7.069884225772949 0.6454674499781472 0.500451860804554 -0.5863971544214288 0.5042239260557833 -0.1851327973490231
Ni 1.7042154411375934 6.550366175157768 9.191113725536548 0.9539803171913054 0.14877019955958895 0.16660722774100983
Ni 0.12903270761017696 4.927683901212436 1.3229214048467086 -0.316303538659294 -0.2757220176925058 -0.11061785685958368
Ni 6.410602761249385 1.9222745034878759 6.827109097575543 -0.49075391659380646 0.8426515503076262 0.831116295974517
Ni 3.3684804419852052 4.1329587205003335 0.45296314217633415 0.3112744608758188 0.3864139223231345 0.006072174336008897
Ni 5.8408535701341595 5.353277835434806 4.743965984826996 -0.1818045043067385 1.6471538432390407 -0.10135237239725772
Ni 5.439978407206337 2.9696974917317105 9.189965714013091 -1.305477630142913 -0.065200605067049 -0.6877114744918994
P 0.22628272070252506 5.756551828411644 12.176698506356036 0.278761575849778 -0.5633572418828299 0.3393696764501381
P 4.042073723380145 6.005200482965903 12.619747987356124 -0.23956330838376158 0.24245322833704694 -0.48411352845915334
P 2.351971699636191 8.37312530424385 1.3513385227694534 0.9217376551075158 -0.11451076415608666 0.5193782651987183
P 6.133330472952371 7.87773984464808 5.800914853449681 -0.5447972194924553 -1.3243076183652223 0.01819878239621382
P 4.69103841506133 0.916253878984742 12.611960807854905 0.3515415359259817 0.7485466035014011 -0.5183500810445202
P 4.105759955734062 6.050011710460467 8.264373532337542 -0.7532956881506123 0.2039357889881391 0.17798873010507413
P 4.633475512043056 0.933694996709533 3.9786499194263283 0.41806677334172515 0.8977371784278603 -1.1710523864510864
P 0.1449109785398768 5.6985470356475 3.496384978019699 1.4836147129003934 -0.9399027560523169 1.348032472785988
Ni 1.3796699681904483 0.9804000374006875 2.6505674227110068 -0.3881658720172347 0.6685600983744292 -1.0732928736114098
Ni 1.884596639033803 6.42891864030784 4.8467468342691955 -0.1153116627908272 0.8837123249036781 -0.8073605883158159
Ni 6.096139589034565 5.436912233459476 9.14275295102209 -0.36082887476517855 0.6636492913363733 -1.0679043556059866
Ni 8.685090446670786 2.2436004940008174 10.101408405662685 -0.026861857387850515 0.30895506871402273 1.263444978551895
Ni 2.216041002911385 5.442043565406429 7.022903229444577 0.2660333296498322 -1.1893100471096938 0.19755739626562108
Ni 0.8046244128354243 9.13079487340933 9.192103919293622 -0.9250510357514649 -0.5093759025703679 -0.08708377829338551
Ni 1.4414623873477739 1.1239961684926456 11.501028343155504 -0.08157827509412402 0.362785227160601 -0.5130438383402584
Ni 4.156000114392185 6.81445391634328 1.6126125986343165 -0.31495808037499307 0.819023626476041 -0.112851888396425
Ni 5.664043562837236 7.845292511879829 8.154069735425837 -0.8360654124496762 -0.3006732883212047 -0.21437755314675339
Ni 5.3482817758590375 2.9526621911204747 4.761639771030225 -0.6099970532285559 -0.4166143571659148 0.036753148359633475
Ni 0.552214284546413 7.491627406495584 6.904838405690083 1.248327406184166 -0.20264458098054136 -0.08093292820064127
Ni 4.893054174189067 4.430747318427078 6.993060340729541 0.7684114607461281 0.31336579618720867 -0.052048126845491004
Ni 8.221620248516606 7.072102692660383 8.908510803999036 -0.5735023007366317 0.9763026348375896 1.3320687503678799
Ni 4.61210247739582 0.2819969013146031 10.340006323037896 0.2002927929189131 -0.007077218561755553 0.5473318129888509
Ni 8.086997184713256 7.222011534407644 4.9405122310798175 -0.22348234366149897 0.12536339059987442 -1.504942784954208
Ni 7.247109068341508 6.254814080434615 6.871656093038393 -0.9993302060810144 -1.4858225191849896 0.647821323165181
Ni 2.298088205114151 5.19953627650397 2.5220758045855693 0.016977765504919147 0.03501328285039132 0.6989685354629575
Ni 2.411807178490373 5.227249076280745 11.233181833682663 -0.4349522362431541 0.5593352652076302 0.4268355206732907
Ni 1.093604975766407 3.3482076226236073 3.783607901941084 -0.3785615161582513 -0.04095895891086494 -0.8431524012034448
Ni 3.6448599326323974 2.5214679807310447 2.7617423736931426 -0.23120799444053086 0.11060602978504178 -0.1720775068269617
Ni 1.0496865459216644 3.1070169848006826 8.133334284554786 0.42859955455224896 1.3090206102991648 -0.3658687511819312
Ni 3.5547144244746876 2.544283920670922 6.927078987144519 -0.3591419739810589 0.4543000446421466 0.04583222784276623
Ni 4.100132625092764 6.702881264589859 6.128090923108472 0.6721601570208617 1.1448438463765187 -0.505993102141064
Ni 0.8747036174515456 7.68388551858184 11.303492804961415 0.11269530821390268 -1.2735399008940518 -0.05764773242045556
P 0.22593011072163607 5.452161938771069 7.876283412118321 -0.11342575862202402 -0.041981229527792215 0.1955174830174568
P 8.518867756958612 1.4602472106263362 8.084035621600112 0.06806841353314728 0.6977320919526951 -1.5003271405590677
P 1.6862242157699832 3.263274609835561 10.285032533204104 0.7325530562866223 -0.33321599814391645 0.24948493837284777
P 3.940267736826285 6.239014267480203 3.7915934809200404 -0.6465123745457705 -0.8071461583121649 0.03552441815885495
P 7.029212332836647 3.882605634069143 10.279594583882465 -0.1086717888768064 0.3693271420441769 1.4782267091156027
P 6.458444089858494 7.902215125674493 10.189075723980284 0.6356430359314343 0.36750037324808327 0.11155939483724658
P 2.312589403305187 8.48433722967411 5.8523381944477695 0.61928259229554 -1.158922950177404 -0.0014966391501845192
P 6.774368203682113 3.891091720821484 1.637888692098145 1.4262878541544664 0.8745771953716293 -0.08135304645719538
Ni 5.354269832823497 2.8195181052420804 0.4513894735915482 -0.3514248078424593 -0.5751030695648482 -0.38083617112504087
Ni 1.504508330478081 1.1070149768298838 7.007856432689761 -0.7524433674526461 -0.3191397225565084 -0.22349545628762155
Ni 6.734453836024448 0.961344669379755 9.189794369009588 0.3075808140743154 -1.398272856998779 0.4692453530980693
Ni 2.9177348648804977 1.7149109766192903 9.216733410823187 -0.3070254557914777 -0.5552742077643793 0.22889477292632193
Ni 6.356024868555261 1.9976572868702585 2.6886601224367133 0.6228934495752497 0.30617030688003394 -0.1458337426390843
Ni 4.485460483492387 6.758947153367019 10.488244100093118 -0.7092945999793139 -0.06894773081430705 -0.16425569678969776
Ni 8.140646207125242 7.0795607093917186 0.355731165400144 -0.15726512440447754 -0.030269340407502707 -0.21914926350378386
Ni 7.684534825963529 3.6568991736678655 8.1805596729671 0.024331377656512936 0.45228301421211786 -1.1626387084660945
Ni 3.0455943101245966 8.375966024038735 12.351334235740113 0.9772408303811427 -0.30783638172854727 0.11588913256085202
Ni 0.020045561778006954 4.820656401130834 10.04436224310234 0.1352089159353865 0.050538632179500054 0.5497062267582984
Ni 8.565644942914398 2.2760207722948316 5.644691497415503 0.24361485274531594 0.238660336953518 0.42611098380244034
Ni 3.4013245737089326 2.664441858915552 11.649028942653246 0.9545097073322142 -0.6090182342550543 -0.4088223719253217
Ni 1.2589348678287615 3.4248439299789712 12.449270530662275 -1.6170115153277056 0.16377695738106635 0.9714273090231591
Ni 3.0342133946288947 8.382432043381382 7.974761698341029 0.7767729453369461 -0.4960992400661198 -0.0011050601387206775
Ni 5.578452224509422 7.782246568749521 3.5546053047619313 -0.4313593766855732 -0.07579509275344365 0.46813283676018086
Ni 3.0429790442816858 8.483525595447 3.5977797365651565 0.30714809741227106 -1.543685967160677 -0.531276302187885
Ni 3.3800777932748023 4.174848064777301 9.228558921512183 0.034991685583836515 0.7664378819595252 -0.511123481389094
Ni 7.10875248709345 6.138362605160456 11.205133558425349 0.9593292402080447 -0.5196649432012018 0.7919537668424426
Ni 0.5912565963178388 8.944218200912847 0.2658011912205223 -0.17139719293048547 0.6512316343983108 0.4342210145040844
Ni 4.914291936465117 0.4812927839657129 1.6402243950406066 -1.0014333684669463 -0.8361397173310373 0.109798703392398
Ni 5.963329175005094 5.599491587307735 0.4635811214985518 0.01494145180118072 0.04196143203345032 -0.44509009600810445
Ni 7.997455893146839 8.996135736973665 11.570983097190133 -0.6540626760892025 -0.32626759185054127 -1.4720915427521422
Ni -0.017633204491873763 4.995229905224166 5.684961180501482 0.13574627649609525 -1.0729249487490296 0.06729065482685831
Ni 7.776853710218277 8.665575152587824 2.6237474205840527 0.10378592153941481 0.5695284036905482 0.6274602430103259
P 8.42828035905503 1.5845895742196239 3.4989190804398986 -0.14202002531994898 0.13938798701374058 0.588440924324335
P 1.755321342971301 3.1549034042001867 1.5738606715530346 0.2563299863191392 0.31887875558563794 0.3256834372122972
P 4.776765025760328 1.0782019617674705 8.196530830925013 -0.08016108303162324 0.24792299320236658 -0.08296795635279905
P 8.481316146717644 1.845394705864379 12.520003551739125 0.29041767203146757 0.006194301736169977 -1.045702879808283
P 6.256743966263523 7.727380094996869 1.3686164118330144 0.1885791040264107 -0.8093976733505028 0.2852592677589797
P 1.6457326859952615 3.1539835520761286 5.857050182044048 0.4512198630549262 0.3831856451938239 1.236450452240922
P 6.884678313304472 3.9899668059996687 6.004614302690768 0.5186550138794487 -0.4212780811901713 0.236786774079889
P 2.591115215575182 8.467834000389535 10.12191930439757 -0.15313901805124594 -0.08621603097645153 1.0151496896117742
