# total energy = -340869.43546197127 ev
CRYSTAL
PRIMVEC
9.27019301077333 0.00000000000000 0.00000000000000

0.00000000000000 9.27019301077333 0.00000000000000

0.00000000000000 0.00000000000000 13.56786451673728

PRIMCOORD
 96 1
Ni 6.471503201476582 8.909341479070138 13.155699857387985 -2.5468669144463494 0.654943278921943 -0.7103199559200348
Ni 5.5435939617208465 5.615512119110003 1.0159362115423067 -0.15355116588800005 -3.0412753970736075 0.7260849320637753
Ni 8.667509953959167 2.3839506456132553 5.3435672990179865 -0.5476570575387535 0.8308671560781884 -0.38172731548074257
Ni 7.6345786975674725 2.2247814315926555 13.052733042542847 -0.41176217127993603 -2.278269937834399 0.7945914615756058
Ni 1.758416561531598 6.227919609886293 3.1584771258266477 0.10378129355372448 -0.8173660362679602 1.1799753999723293
Ni 5.467522757862195 2.6354787926150576 11.667305477917658 0.4279228402001985 0.10190233136345676 1.1715619790976532
Ni 2.4712480532097603 6.1052378755619685 10.514783169551931 -0.7045969373933284 0.7890263087830024 0.6357710768688664
Ni 0.3733412642408757 0.48953849855311876 1.6634740257578777 1.5077427162968484 0.09763764254983184 0.1478122065216938
Ni 4.878939663127428 3.647858031098558 3.3122687008808325 -1.3967358515289623 0.4535163723985866 0.6185045764789349
Ni 9.534764320835649 5.336358796931649 9.5465940141386 0.04615490128950761 1.35321915919325 0.45749412609941215
Ni 3.0281734388076402 7.1989074365700265 5.3302580829102775 -2.8730342332736005 -0.9269202277497197 0.8550653505909468
Ni 3.6025638680406287 1.3601505293386438 4.187856971275342 -0.7673920183426783 0.6256661272243806 -1.018782144158039
Ni 3.6893606852144707 4.0322836651242 1.2020650008811777 -0.39943553139378307 -0.8099003240185342 -0.02553671081852376
Ni 7.564996628817407 2.162050035478654 7.318356654590973 -1.4940868160763106 0.19410491894064635 -0.2647308087883247
Ni 8.09043116875262 1.2999962468820525 2.9995832365385118 -1.7804845683151078 1.2235684540719314 1.6079206087700308
Ni 5.571960752338379 1.4988882379602106 1.0420744477596908 1.143496845430321 0.2269052533001189 0.1454514195990011
Ni 7.741019053734306 4.103386045528277 8.809533018984279 -1.9780586767512773 -0.4608591859169031 0.47463155711064714
Ni 7.0687353862917925 3.8354403867017526 2.2966597271518587 -0.7640310722902455 0.4575884855854313 -0.6942320492192366
Ni 3.8206173480751398 7.112713181941982 7.539336734559456 -0.9079948516001266 -0.12935528536808688 0.8917948448014965
Ni 7.892392035431591 3.7216302270901673 11.376938930271669 -1.1320052998509538 -0.4277472338542827 -1.6708946384994061
Ni 4.724173790787654 2.7628419744105748 8.386609200398 0.9437540114776068 -0.47356043553365534 0.7249752439393644
Ni 1.5070923587760658 7.977297733230931 7.524411723809709 -0.8283420756634895 0.3881057082032606 -0.21018022723595414
Ni 4.585806889886578 7.784375746452673 3.974108568875727 2.1730159163898897 0.007750076259064071 -1.2277953476690853
Ni 6.756394773129529 -0.008797413168640043 5.61715016221527 -0.6041215682843853 1.6674105366055478 0.32038156538340956
P 6.22324743260811 4.559164355169327 7.02721789986706 -0.15981540163015703 0.18421542774107627 0.8980354263945695
P 7.413169407662521 -0.14955602386688074 1.6834188460237671 -1.0811961876188863 -0.45948981637320224 -1.6636796088082058
P 8.94965754848048 2.1532526223100144 9.121132943724863 0.20345216448350123 0.07190887032516002 -0.29089821121231196
P 8.117398160225301 7.874129755197428 6.3594886782514735 1.2489285301032749 -0.7594269978593308 1.0602938902485803
P 4.910347077052984 7.117023821692684 13.19978147919991 0.9237382304773123 0.4056969389224626 -0.31043448147302666
P 1.2039755876610054 7.631204347311008 1.4356831349832828 -0.9830641219311392 -1.162927700461423 0.6671997276917929
P 4.085160846066162 0.45112559976819383 2.035071566693146 -1.9108541538803219 -0.7910759922231795 0.7829708466175419
P 2.9720516903113845 3.28623707188309 5.301480622742301 0.7752238556822714 -0.4034747344601632 0.7224756174459621
Ni 2.326753554727577 2.109024531448495 1.7144628683832421 0.2697094929498387 -1.3833427180515079 -0.3454241101743341
Ni 2.355732178083919 1.474155363003486 6.624388151654168 1.4280025228527278 0.8700996192162499 -1.5164957798991303
Ni 1.7220125135724313 5.482902008069543 6.590142204628257 0.9433590900320334 0.4458002347012516 1.5033235041832302
Ni 5.836096361836862 7.096805530732933 11.180585118040268 -0.9856439668431735 -0.38735880273490714 0.8208115716143992
Ni 3.5441060309052816 0.3357385803252228 8.322039525009666 -0.12171499521400973 -0.5772013468547736 -0.6618582608742215
Ni 1.2133941037614675 5.342004344476119 1.167978501175077 -1.4382774224161745 -1.7267747374964777 -0.01449125163763956
Ni 7.300647804879642 4.456061268486908 5.177280430802568 0.23428020560795135 -0.14905070691448524 -0.6634795985277283
Ni 5.459448419748512 8.960763239709175 9.510734126509254 0.31122638124670277 -0.7356445507277524 1.49127428632818
Ni 4.417552886713957 9.208017827732323 5.8643296616750185 -0.24228610663156336 -0.40165567897355337 1.515901340848241
Ni 6.051294622423597 7.437716878759001 7.157631902182914 0.7564553168255166 -0.37274619502805484 0.13527447906599926
Ni 9.17077019220904 3.3541597760839594 3.0174524605889554 0.22165583197572147 1.7850343924693193 0.6059593928240725
Ni 4.5292309019327215 5.12121615750299 12.203588924735127 0.11325760847527591 -0.28057137536500715 0.769064778059411
Ni 1.0897389991708568 2.0218198257821123 12.887422325651622 -0.3423650116330362 -0.9305650235911587 1.5905044701761122
Ni 3.7988602050753526 8.426336612552063 11.906208549056055 -0.7271339421535798 -2.04007985564908 -2.0769245352812553
Ni 0.3548611344709243 6.59043977782395 5.187971744403615 -1.0438406297885636 3.111694570227118 -0.22508825469603816
Ni 8.67297009764339 -0.2511137693741539 13.2835905131659 1.7105960708540862 0.8438016047516693 0.37676251527629956
Ni 8.11984549118054 4.4094507380212375 -0.024891395257234335 0.32396953984498394 1.1203936837539543 1.6611411586570681
Ni 7.281912744801852 6.887262087883682 0.3026152536730966 1.9941812933447527 -0.191742846466373 0.04557871707106344
Ni 7.53354286392679 9.031745107604094 8.28259763480038 1.1118488795077366 0.5605439408037507 -1.0314440558964237
Ni 0.7412353630677442 3.207570213981004 10.84635479811814 2.080246914786269 0.7476328334378802 -1.3558792225239165
Ni 9.12928607847915 1.1232414767171846 11.129773336101438 -2.135202959307174 -1.3894580869206263 -0.09092449219571437
Ni 2.1973231198903247 3.8326222480260235 3.3184009335584466 0.7963588378886737 0.3507290673270153 0.6427323386780479
Ni 2.0274746435195943 4.571058012804063 12.520113176003825 -0.8493662433236405 0.8527937809479507 0.3711695945695543
Ni 3.18893712602635 6.163093150151519 0.5161958655791897 -0.16042166775558825 1.9659801483201884 -0.13078816115987155
P 6.041811214972049 4.494755054120105 10.773047038796445 -0.8133700277346896 1.582421693167978 -1.6647751558652297
P 8.933712816499384 5.514068396976781 11.787326666847461 0.4895958917299632 0.16689621973633836 -0.4491246710887943
P 2.9531775773384115 2.7621281695486304 12.172464251696445 0.8743545378378619 0.38599688939037397 -1.1528073241979693
P 0.0027309988614134424 7.768746201033992 9.316957427935263 0.2474589090817545 -0.23759204359000372 -0.5051227837209689
P 3.9725836221252093 7.350623415408766 9.746082078627447 1.102233982125792 0.503721532498068 -0.3700005139621176
P 5.557202605062852 0.8477239242382415 7.630756596988515 0.7052050032909726 -0.05507380104569225 -1.0238320478771206
P 2.144937259178012 9.099834675279183 5.15793261096667 -1.1959095547040823 1.0388359774851206 0.6031275798022322
P 0.6827932852605183 4.6437919471783 4.958823697372025 -0.8973561409393577 -3.181789527271991 -1.3537956005220104
Ni 0.33711891206474914 1.0090326988060725 7.2831753450901235 -0.931949048422879 -0.9472915923172203 0.5913156747689687
Ni 3.8538324496380874 1.3244232054693723 10.593069949540515 -0.6890088531470844 0.09346088546432291 -1.1079222907598212
Ni 8.620324671526733 7.753125925808325 2.8612728838148107 0.8007867917530402 -0.8737122762681726 -0.9502185361560279
Ni 7.2063699419449 6.893176471025508 4.578882982725717 -1.256762938546029 0.3530340613111081 0.1261329217760473
Ni 7.206064025575495 7.056767567112959 9.441646159046742 0.5283244186484127 -1.3938392467074574 -1.4961239011109975
Ni 8.396180674683164 5.856027276813233 7.38952021826893 -0.2905076606421126 0.6592174808172646 -1.014963541742897
Ni 2.183278777476742 9.033469363504375 0.2085255756565046 -0.5694096187244968 -0.7271198010861929 0.1414312426960145
Ni 6.611381143838658 1.819247568078085 9.446327606517935 0.8927201848292433 0.3494406875328949 1.2737458462572708
Ni 3.7576078461707705 1.031012326438154 12.93613162781527 1.8188279439799968 2.304817092195308 1.875163899567564
Ni 8.972944273327291 -0.18245779290601377 4.722512572199856 0.6948380582343517 -0.4641106029746652 1.1681174721924787
Ni 0.7558600195638944 6.911624155119916 12.935099855333005 1.3553593454647044 0.5939736812171061 0.43192733337390127
Ni 5.190130772356172 2.4202527214492875 5.983549905928561 0.211905437457177 0.49201504269441726 -0.9061997073729169
Ni 2.486543871679999 2.722043854963594 8.732711856510937 -1.14868970248517 -0.8635044824972354 -0.8020283774696252
Ni 2.4082478214984038 8.377241670359105 3.1150462715641836 0.43736418811875644 2.4430316277262376 -0.6862639434120956
Ni 5.84418924033657 0.41573941900177364 3.420241419952594 0.2940794371537709 0.6096887779595178 -0.34304995351520273
Ni 4.947511280839157 5.268881061995367 8.877806136481013 2.1640599927481823 1.130620503688285 1.8986915503758595
Ni 0.9399883012507184 1.5720300608269864 3.9656560068871434 3.3264706443638707 -0.8604780369660857 -0.26977428474950316
Ni 3.8375447205155364 4.507065870440394 7.160155248720853 -1.3395635160830284 -1.11677382761318 -2.063449383612956
Ni 1.585740676292127 0.690415237955203 9.534369410613326 -0.8519980245195327 -0.7018155179934493 0.42976246451209854
Ni 0.5293493424442933 3.5468685484229368 7.510246868886967 -0.2362607263730899 -0.07518625552485117 -0.23577530209623912
Ni 5.4480275419574005 7.703159585472213 1.7895338184158702 0.1929507507315451 1.9556335149785415 0.18260745982400808
Ni 4.885753254991444 5.924598894524961 5.641626252825556 1.5925405267695347 -0.6897953536041217 -1.0175498144128348
Ni 3.402355509554728 3.973288156794142 10.370475001949295 0.9853022672330387 -0.5261052995099068 0.7066659041072152
Ni 8.36846279757649 7.723832115889565 11.463556832720375 -0.3134131044853764 -0.3128819145722547 -1.5101695805707862
P 6.730762689450614 0.734421771203729 11.303591309120021 0.3698125663210276 -0.20332592331828206 0.45776357771071485
P 3.9202255719919337 5.79545583567109 3.4374589494342747 -0.23107532551740848 -0.5366085130340759 0.10254176471966855
P 7.125886126212411 6.035183026968278 2.569020778910126 0.21223890953719576 -0.003529096199181019 -0.53699674961143
P 6.563389354614159 2.533349076198928 4.108620923522303 0.7753300422428325 -0.5787571213776678 0.634462642470088
P 0.5022164145166932 3.2277606943617188 1.0084060337584433 -0.3718419380462306 0.12358341588131619 -0.43118942676661226
P 5.641144202788917 3.5057552424135388 0.4268766288867095 1.0879838999646811 0.6182765196285287 -0.903900884036411
P 1.4806352279190598 -0.48526679361306674 11.642204576298345 -0.28501167052454784 0.44897374733322676 0.08371717581399775
P 2.219293477329394 4.908289094204261 8.648197360856713 -0.05863400759312482 -0.3850442956691175 0.2573787392986277
