# total energy = -340864.8427877328 ev
CRYSTAL
PRIMVEC
9.31261061306036 0.00000000000000 0.00000000000000
0.00000000000000 9.31261061306036 0.00000000000000
0.00000000000000 0.00000000000000 13.62994696532150
PRIMCOORD
 96 1
Ni 5.8064687087993905 6.700414157221346 9.89162051283428 -1.1639988220384148 -0.39876190236552617 0.5345596009248471
Ni 1.4136263814456012 0.04621662487294367 2.416725872302928 1.4137802086057587 -0.00908267902755855 -0.1529436142109882
Ni -0.08571326979337743 3.3515900013143143 5.023712108272372 0.3221268302092904 1.4937469162383885 -0.7707719905585048
Ni 4.903955658442416 8.399499997486634 11.393054570241938 -1.2510538039763937 0.237542678409307 -0.07552769802466992
Ni 5.764645773701383 4.048992798824793 3.4118351430947707 0.18454504316635315 0.9899605919406563 1.0817019236107113
Ni 2.515103361521774 4.178074897108801 12.064288931407416 0.4748601281816853 -0.6362235910252526 -0.04418466493701422
Ni 6.497091925648246 0.9967659842529726 11.541934347823396 -0.7811250516580548 2.1934438452269385 0.2616825088803042
Ni 7.812861392818662 7.94149648578432 9.897794773793972 0.8396240763352121 0.05285776723097994 1.222267732982637
Ni 2.0186201419982703 2.342484807752756 4.234143332945935 -0.19509839320216724 1.742437383734399 -1.2229814712202098
Ni 0.8557423251414936 2.782487042780733 1.6415907124537568 2.37927803951836 0.7535324867517668 1.4975860874788207
Ni 4.089782034124119 8.328910407630723 6.378133566563759 -1.0621358285533256 -1.1420256602014331 -1.234660707330351
Ni 1.8210624165097098 6.352103888119661 5.338169174597777 -0.2755412691402674 1.6796047646788945 -0.10248700022233317
Ni 3.9571145806825228 8.155071901847045 9.144726776493952 -0.7640272156355036 -1.4485734050255439 -0.2706654291052048
Ni 3.56262307462893 6.087197361333219 10.704156048913045 0.16773362803596917 0.42740810534730905 0.32631387170744447
Ni 0.3984931349138935 -0.09597204184948178 11.77716065273256 0.4031939699949508 0.37201214507550767 0.07527264459107036
Ni 6.3299119365858045 2.333712328380161 6.736533118205006 1.0597662998798847 -0.18105682750743657 0.7575390368079985
Ni 3.033024211104421 5.957454067682487 7.540250543118262 -1.168764361747858 0.32495787190018227 -0.08360661837806246
Ni 3.6482618435359164 5.006496815949465 4.616613189719185 3.196761832311107 0.27310309201241995 0.9997930046500458
Ni 2.3160835561377815 2.1247000916089136 10.239252823869801 -1.5019281664976005 2.07188285909229 0.4014741590903666
Ni 4.74153441349823 3.059174022227825 11.434353205351966 -1.4134799037565207 -0.5435926576613929 1.6158421776099525
Ni 6.457932397238734 4.598092269362268 12.556303029008513 0.3432109045730992 0.25533419806477314 1.561931029413794
Ni 3.2810283492908003 8.3893213138834 0.4809516472330439 -0.036943409993568634 -0.949914374652048 -0.865670894020935
Ni 7.4995851655425625 4.417362431587379 6.050170420796662 -1.3944365139718242 0.7256766408817631 1.0450487911640516
Ni 1.939351198877754 4.095034346614717 6.368170004269981 -0.18612087229390525 -0.4409071682750084 -0.3486091927705351
P 4.188979964354351 3.225115434054008 9.390761297496356 -0.19403755603782066 1.620509501178635 -0.6925927138436008
P 6.090009769794497 9.185232908424991 9.7891780690017 0.07790056913222068 -0.5180094098756498 -0.2742696015166954
P 7.554343317040287 6.873721844189485 6.721990545181392 1.5631340485829597 1.3372631500846257 0.6503867698995122
P 2.433562141366319 1.7162210441353245 6.149491277489441 -0.657460646027158 -0.2483333412669078 0.8138775634987272
P 5.669061136461137 8.22134975290305 -0.30747633327052376 0.761466911107495 0.06134754986954596 1.7528020147981749
P 1.1894252764612943 2.276635336793502 12.193882292024286 1.579886071230318 0.18047318708982465 0.5098834383344057
P 5.018426270382898 5.217567139707278 1.4683137571012541 -0.9970218696628118 -0.2319459010478199 -0.526765301691409
P 5.30776908790574 3.9388246130734186 5.7560763092442055 -0.11401351280469396 0.6488477075471665 -0.5666513392530693
Ni 2.3455859071488003 4.669622432908871 9.447189200110332 -0.6859746943064509 -1.0358725239814226 -0.13360223356989892
Ni 5.4533065694714615 0.07566123769700936 7.7743034590667595 1.4347082170076775 1.4252866665834614 -0.1877931177900056
Ni 8.873577075427907 3.137418578160458 13.53697775306201 -1.0170718463351516 1.1995702913851212 -0.3803875136233965
Ni 0.38633365899372696 4.675778068646965 11.326186299661282 -1.0101247255933572 -0.1309128596631939 0.3368733923908456
Ni 8.243476516161314 8.302797846950517 4.95785239344124 0.04734069406749266 -0.6869738249949267 0.4921921917022298
Ni 8.376246408321698 6.217527349464283 13.14131378930883 -0.5735442097181606 0.48685355309813566 -0.5807047320223419
Ni 2.9032995426752874 5.268181179399477 0.5364184884125675 -0.009535450294260997 0.008706526635062425 -0.508610228048937
Ni 3.3752533453544027 6.614523947822788 2.4411100124188536 0.30196989564544124 0.2948068022380987 1.0696365078057448
Ni 6.201314094063341 4.208331569594534 10.419249759174814 2.114462898546346 1.4098582478435333 -2.4297081711444544
Ni 3.0556817931782247 0.15448038171593687 4.578354190773929 -0.5048340488359564 -0.7658745532568875 -1.1152558483067567
Ni 6.3596750406991935 0.46887225976574815 2.84961327268052 1.1619139144849278 -0.0958368418956672 -1.267678042796636
Ni 3.3617593723067487 3.9295306274960833 2.4065034194289394 -0.45352511414933505 0.0665306367323822 1.0150496736988002
Ni 3.9281057980438465 2.950514479425877 7.237597210980506 -0.23492735227364703 0.8272799529475623 0.6547327055730336
Ni 7.3216304857857555 8.105761627666697 1.3009931476157488 0.5615824093705941 -0.36079185087965604 -0.4340778040580008
Ni 4.232227728904594 1.1176436724231202 9.711350718032858 2.013735818437912 -0.1263229262996663 1.6567520284504371
Ni 7.163986610181421 4.943180375127521 1.2025746829093873 0.4286828582946747 3.384798176460171 0.3766169908373707
Ni 5.122122191629014 0.714427181312008 0.6466909754048905 0.4776623735171709 0.6556986690307288 -0.71817621873966
Ni 5.7272370161220705 7.084829418390492 2.465166348634657 -0.1333345817308091 -0.7166826649132689 0.39437225793826275
Ni 7.561746842625438 8.548799773815125 12.330781395812917 0.5406050357879786 -2.159610955837894 0.13240332816579134
Ni 3.4513839386356784 1.296538925870619 12.300100999535832 -0.2544368830614844 -2.045938885533018 -1.166292760278914
Ni 0.4367372336818708 1.7115554261250592 7.248910170579049 -0.3897399013725739 0.039825873747686244 0.22009157281239516
Ni 5.896093275128319 4.083058329127289 8.143621115608678 -0.4078057577353492 0.46550851176345637 -0.32097651865493104
Ni 1.5993012155547233 0.7860700274492779 0.10200288860287067 -0.24886710228319073 0.7262132301115235 0.8960811308816762
Ni 8.598110047995473 3.6221958459097037 9.28899960551318 0.0743169655460204 0.36532624841489986 -0.5350234279351431
P 5.84164243978696 2.512216452174105 13.234856171000871 0.22236957021329445 0.05340926885907575 -0.3622650929910729
P 7.833172196971134 5.87313768950895 10.976714747992968 -0.5078692361178544 -0.18541998957213873 -0.3817699957932199
P 2.763293751924132 1.6792034162095666 2.3083950646621823 0.9913790695547378 0.23223720703599357 -1.598939488317343
P 7.800475620456081 6.507913179396606 2.925231672367854 0.22895545096092826 0.5302663728661319 -0.03319499869472993
P 1.7756261884217168 4.72573091297244 3.9323076480363257 -2.63175471352968 -0.9538738735204281 -0.963914802696198
P -0.120316137738972 8.76218893766187 0.5364091758017686 1.8237307805982526 -1.1368896245264486 -0.9765887986194407
P 7.525399722677204 0.487434155610181 7.0112448929016455 1.1838616224006127 -0.7897248775119238 -1.3584318137424412
P 9.33514731706621 4.034381312481268 7.289935946192668 -0.7920319283785456 -1.4241062731221152 -0.07804352246798817
Ni 4.262773092325094 9.064038591487678 2.485707174273863 -1.7445282048251571 -0.598294420079647 1.6821532421323608
Ni 8.621447450657598 2.373654116096784 11.336217844013891 -1.489994648284808 -0.7932668292269112 -0.8807627553570508
Ni 9.214921511651989 1.1492227356423013 4.827086575124786 0.2214066920793929 -1.3761197179405074 -0.6610411642895648
Ni 9.396051791691232 8.520023806446423 8.30972922316816 -1.0796388704340953 1.358621304045428 -0.38889092310871737
Ni 1.8610414546695282 9.212332605849884 9.835833317843273 -0.16387234530835004 -1.2700545134486128 0.34385882256974326
Ni 0.06986599999683349 6.1275395913141955 7.206289144735574 2.747021124904869 0.540375950496308 0.17324324500028873
Ni 3.5585814015421935 2.6914376469995664 0.3751259318972113 0.07199165984695342 0.721311679044848 0.8495814446582399
Ni 6.014149242226391 6.486522112391458 5.5648073898281645 -1.224418974997685 -2.508317336307925 -0.0942422437150377
Ni 4.622724124925445 2.021134546913982 3.3632577713842973 0.22936245659135981 -0.3497530765669912 -0.3937125128670768
Ni 7.665088884661196 0.955157239203341 0.25180927095882316 -1.950579497494402 1.8053383941339942 -2.3310953091655464
Ni 1.4028144403080403 8.655764421451666 6.408010284528895 0.6712214472566762 0.049630775653250005 -0.10319739602579646
Ni 7.423240382212911 5.857380752037156 8.635116500788273 1.281126197881742 -0.8599573885759254 -0.4028224455881449
Ni 7.374581990788488 1.523422062765019 8.874826827797122 0.010932844862419881 -0.11672242709542478 0.7885871643630548
Ni 9.165490173531254 4.887546838214697 2.6682669400707417 1.1002244078949308 -0.7508045462976425 -0.29958082658797436
Ni 3.0231994067115475 0.6828732621419841 7.882198436522115 -0.8943885736706016 0.014664286880394098 -0.9776439793568323
Ni 6.736602962785998 2.9518182449377273 1.5804059282436886 -0.2667897481998825 -3.5843309512846075 -0.07816385009593635
Ni 1.086520927133087 7.126857230926077 1.8699200978052308 -0.9591754882389996 -0.7443868156967567 -0.28953681208841103
Ni 8.757271879160033 6.002908920992078 4.884387069370619 0.08543904360111092 -0.16924415114322466 -1.1111469683447057
Ni 0.8496174210190355 6.96923198054334 10.820651222441214 -0.37776575972983323 0.16174398611143756 -0.7525325847323426
Ni 4.585613370891697 1.4422347218199227 5.58814199870705 0.04121195546193548 -0.13786178017720127 0.4451857410457042
Ni 4.677100459380414 6.4546729834591074 12.844821680475649 -0.42509051295772593 -1.4160265814377742 0.4515157970287902
Ni 6.7822068178683725 0.870757047532613 4.964108605375963 0.3117596280423534 0.5772054606198317 0.596500818514334
Ni 1.4313296545743723 6.863682849748235 13.057585036876706 -0.45070589953298507 0.7761353117529471 1.1532410693012785
Ni 8.740155300511596 1.0338022374003282 2.0879711546179225 -0.9220826971517604 0.7151382032442846 2.5487245364803783
P 1.1243115017551562 8.525490308985395 4.292983201756833 -1.4061903120736428 -1.7124680910658185 0.49322706072464734
P 0.22039783473402283 1.4848399162250403 9.520258738221997 0.5539531749601105 -0.614033942302091 0.15097877717513353
P 7.569075867324199 2.50981379858798 3.5688923242187722 0.2925537445378639 -0.4921063168566428 0.7032625348526211
P 4.860232950741427 7.5857175028218915 4.367770916560902 -3.161034554112827 2.2906282022894358 -2.139387429702167
P 0.7084326537407349 5.068295301211183 0.28356806756642366 -0.12454860800806292 -1.840226978481063 1.2302589787182299
P 4.893125092083257 6.828090051274715 7.661638562360191 1.6259707814035222 -0.5640329277936158 1.0483660284627427
P 2.82099468843432 7.775853077503703 11.859989806961508 0.5083099231996988 1.1594996486164806 -1.04158217277169
P 1.4504670697661795 7.011390169630109 8.788917061915887 1.5263382199108486 -0.5231433886681055 -0.30228742688586
