# total energy = -340873.6706111433 ev
CRYSTAL
PRIMVEC
9.17487233670019 0.00000000000000 0.00000000000000

0.00000000000000 9.17487233670019 0.00000000000000

0.00000000000000 0.00000000000000 13.42835307506935

PRIMCOORD
 96 1
Ni 1.8044588390029161 7.921768260023684 7.227851564125292 -2.2544905760266145 -0.1783491987682864 -0.7068268551651117
Ni 5.715761958988157 6.81913210439879 9.834334619593484 -0.18932780926697718 -0.5523341512994487 0.5810199492699155
Ni 6.533032060790443 8.292194555141004 2.6152120289950807 -1.8654939805779678 -0.49683483268056366 -1.8933328571671073
Ni 5.799280821732818 2.8896535623442117 2.4204744464792385 0.2328851250326376 0.7618350930801913 -1.7533092934518963
Ni 0.5004342359161611 2.9757230395943126 10.085055438042028 -0.4957074039443399 1.0471897487664545 1.0814509839421698
Ni 3.817590974091143 5.670731685633131 6.1754716891298775 0.827421363621433 -0.45055163334330794 0.7828394632460002
Ni 3.7694779436360175 6.5123977729388836 3.4547256912541564 -0.2768443042224071 1.3961403840368083 1.7906275702863808
Ni 3.266465568597452 8.056730631876256 10.262511231052668 -1.4480980080510222 0.21916546145369997 -1.7021158012972168
Ni 6.144054173838595 -0.2784913219919401 8.839347240919388 -0.4849676489293325 1.897665680214506 -0.04368072871740219
Ni 1.7502353435815223 2.2155756928670858 8.142510183160992 -2.062172059562429 -0.6417702318750947 0.521352872426586
Ni 0.7055871334916256 6.576034687362368 3.1406367821411565 -1.1474411747900497 -0.810493734628159 1.4143962449232028
Ni 6.570951808096131 5.416688645916891 5.915538381383091 0.745327068122839 -0.6497848746494551 -0.5746477271949845
Ni 6.4539997106111056 7.104076114094599 7.394322282505133 -0.5315588664253104 0.23758792982494564 -0.0222230730642585
Ni 4.757547468579534 6.5263252291232625 1.3247001778637622 -0.3030163346320846 0.08717453823497891 -0.004214809412295967
Ni 7.326227297620523 5.0827324682784285 8.345264769111557 -0.8762142167544201 -0.6134924679763241 0.47840542233078254
Ni 8.187169791674219 8.710669656607196 7.702208060441415 2.4203953783839602 -0.6786591344816442 0.4497031693000836
Ni 2.301562596266291 0.7582050262567177 6.105562831987264 -0.999911275395465 -0.5728399845622844 0.4918070404486691
Ni 5.357740091249809 4.810422257769634 12.95948880469173 0.6506186834046601 -0.40737226974235646 -0.17802498265964822
Ni 0.24036697503347673 6.404005831330026 8.369247885360545 0.18039605399498607 1.5306247631013445 -1.0305660241668446
Ni 8.700861718095272 5.679860683593248 10.440181716075639 -0.40137542872897325 -0.922839629922443 -0.0037406979893548475
Ni 4.844130738679651 2.372897228567702 12.044292538137979 -2.5801850689825048 0.23302627859619224 -1.0900796061514453
Ni 3.805617765711292 0.9014330405839324 8.16194072776394 0.640171262819091 -1.7880130154816691 1.0179056550903565
Ni 8.9569691040839 2.1825186278919113 5.2558980909914315 -0.02715213493475969 -0.14677193818263756 -0.7503682300911723
Ni 0.8331105188657438 6.182827184270205 -0.06700684502725322 0.9147159723740439 -0.024334720090622607 -1.1971953633950412
P 7.476181410846793 2.5510915988002427 9.313448675784965 -1.6330138042932327 1.9724346456962807 -1.1784065128233123
P 2.308397876145976 5.814226688744909 7.979423157693403 0.4995136650643075 -0.44864850278332413 -0.00992882907793774
P 8.681631185708937 4.551388087510376 5.911926234150028 0.07498930902269665 -0.380188510238713 0.18464583041027555
P 4.680735437502053 0.3416685753121053 10.232525913330807 0.566456963854076 2.266697145395135 0.6781467136215998
P 0.04895987117042041 5.079181792689921 1.7572614608054993 0.953257580092668 -0.9829527931642555 -0.6922834101332981
P 6.232371494807519 6.739457513156931 13.345029784471858 1.9904897034257782 1.0064418774251314 -1.1737271050697722
P 7.640457499767278 2.02022431139292 3.232257974633133 0.5003009368522933 -0.9412723827063336 1.647582189025711
P 0.22665696332312327 8.950335671395294 5.644071341640664 0.47152360760928475 0.8634052379152097 0.2315070137381884
Ni 6.614211331093065 2.9422714551093034 4.891854754548335 -0.12927635250103542 0.32951078137818735 0.3566911984477211
Ni 1.7302157721755187 3.3618383663817824 1.2984894026150586 -1.204063037049152 1.138782213563471 0.12090638326978531
Ni 3.3807019038752486 2.091026801099671 2.716636572562821 0.8580316323081222 0.5512694574803603 -0.17105755020287958
Ni 2.130533801317018 0.9700867751929352 0.9206195335831234 0.5796873465014211 0.04915615000967664 -0.46083167511307727
Ni 0.897611706261934 1.525359222976046 3.11630410325671 -0.42108087757770063 -0.06645556052007263 -0.6805805198740731
Ni 4.408526150588798 1.7989630904822032 5.506028047662455 0.8066041697657658 -0.1501269706977995 0.21573278162306717
Ni 8.689989494394029 1.9070339115598003 7.63729492127798 -0.25000661520427264 0.4131978752851981 -0.5482286137715074
Ni 2.9632635629814104 3.173863582254283 9.925862228387778 -0.391541473357687 1.0198689494643147 1.0775961289724538
Ni 8.061685062929987 4.57885765524162 3.6577894704019642 0.6213564441054331 -0.10412479293607228 0.4389423312391537
Ni 7.035319620915592 5.172765490371514 1.4782600159124712 -0.26335449726608834 -0.3744755190143357 -0.4462234382815992
Ni 8.721551055180761 0.93851603953388 9.852664179517827 -0.40979502025123615 -2.26692725912807 0.5283228759865158
Ni 3.721062142394276 0.2618811331406894 12.408281742834376 0.04153205780551557 -0.24873006248469423 -0.6377287148158695
Ni 8.31319583788543 7.2637464171095765 1.0134784163513009 -0.32380087547760367 -0.1713380575577759 0.9239937981315441
Ni 3.7230897891773767 4.272426094568332 4.345750756676325 -1.5915056577471172 -2.2167077008508858 0.2599058765958556
Ni 2.314976259600653 5.774857311612387 10.374128140282613 -0.4985024501909737 -0.08964922502771656 -0.894295499736163
Ni 5.030013651917797 0.9994188420054897 0.7095956352089872 1.1606620443556979 0.5785609462064616 0.8359615398819602
Ni 5.587442194696513 7.744968470384046 5.1087634160296265 -0.3735797466729437 -0.4688200926351926 -0.8735433547904762
Ni 8.414541477551204 2.3600065329556785 1.2935946082314185 -0.12053897262803756 0.857955013433916 0.058359927996131745
Ni 7.909611554197398 7.442913323808219 11.915689270291592 -0.798555074209044 -0.4720123743202452 -0.062476521267666604
Ni 7.318547929487239 0.4331154452299692 5.827341251241582 -1.0951811890440686 0.12659649167602713 -1.4015255596081218
Ni 3.539243697594654 2.9930176739207637 7.438662605461564 1.8606345956031374 2.829514198503779 -0.9314857356332151
Ni 1.6103735899091485 5.821584936346932 5.435327399038475 -0.41503158605982715 0.547820065479179 -0.35838375565879566
Ni 6.08683967004032 -0.12527370668083132 11.843417883526133 -0.5873062964992595 -0.671958839643333 -0.05454132558098993
Ni 1.5089729010094453 3.5773469423467774 6.096982491391986 0.8245229590277156 -0.5429681367035165 0.5837481468343559
P 3.1079971738566203 7.447519109713725 5.40636232711879 -0.10343779417137669 2.3152130907176516 -1.0126127821225335
P 1.566701197657738 0.2612535718738834 8.845994435916477 -0.6659933660885176 -2.399170150456597 -2.118563293867964
P 4.210303034077932 4.8449289525716415 10.713207566625528 1.9927646155028844 -0.6041894454078433 0.0662429302886343
P 7.225909243654783 6.6897664046624685 3.7552523041011834 0.21446599909550162 -0.50834437598206 0.9192303153046297
P 5.258908366600189 -0.062471705638624614 6.708200558131279 0.34893957952676036 0.9694820123713305 0.401214991891709
P 5.106633010676521 3.8587219267094355 6.2389608881089815 0.31379722729767245 -0.13399355547104666 -0.06262641658196956
P 2.462599955257206 2.183830634633918 4.615298413129047 -0.8760905466923622 1.5376248485682615 -0.5926557337366309
P 0.9113730972572891 4.502357569823078 11.555352582266474 0.5560468242643456 0.007458513160574253 1.4687624783789093
Ni 4.3398522312606875 6.872896856204097 11.837509265750942 1.38469074743897 -0.8007297132628597 1.6204598788876223
Ni 4.706902173363612 5.303186300424833 8.272026350803387 -0.03921986473257117 -1.434939359181877 1.0535120914400566
Ni 8.662217155876167 6.885714152837546 5.6418822171047 -1.0321613936784224 0.05267727578905766 -0.07826258045732973
Ni 3.358709734920074 -0.004087405619328428 3.8827408249604787 1.2845557923885813 -0.1888624395947844 1.862328952586425
Ni 2.4174962829236066 5.872349504903036 1.7458607644585238 -0.4827999518540524 -1.083432790258889 -0.934590599810784
Ni 7.496632201251919 0.25747260699010055 0.4155162051424366 -0.7385660952499216 0.2691533633360526 1.0868695838545797
Ni 0.8098577224535644 7.79759553802146 10.41516459171599 -0.23782292865388718 0.7394531258405652 -0.2725508190533758
Ni 8.170141228645099 4.755437247945537 12.624961949994855 -0.6493688701579591 -0.4876817054263859 0.8897855276809516
Ni 5.106311890145261 2.844990283882055 9.303069142727399 1.891937262371161 -0.15434486543388903 0.48292439324705866
Ni 1.978671314647828 8.290075159634686 2.472844617691644 -0.33484659176880394 -0.3627723716447946 -1.4703568194492225
Ni 1.943293006975257 1.0781759460151759 10.645997956919965 0.47044837226723496 0.10131226318794165 1.7266181573139552
Ni 0.2958657777075905 4.169896896373056 8.18270162885354 0.4471891446289783 -0.23777844856919697 -1.368883090982752
Ni 3.9609575289904155 3.158862666008263 0.5482353207123477 -0.5895981778572298 -0.19530819522012816 0.5567901301882734
Ni 3.9143767022130187 7.534487724451355 7.876695782255979 1.8174380056110053 0.21553223557648687 0.07638310404642973
Ni 5.730221557767195 5.002947778568709 3.628139953007078 0.767828848769781 1.0558667077151622 -0.36672827096874905
Ni 2.950565539688143 4.968615406340814 12.713655440728969 -1.0934814327441424 -0.25578311267673365 -0.3216257222031558
Ni 5.631444882351505 0.9565354887737476 3.6652954334483674 0.6255334583012583 -0.40577767156172695 -0.046868125306448315
Ni 6.843986833518342 2.1791331000051946 11.471841976906902 3.3757921163068185 0.174455520140835 -1.6686354101515841
Ni 0.6213434558335479 8.749240819847728 12.684368330790791 1.1765008111601674 -0.03762706632415456 1.5358345894370584
Ni 6.447338753305533 4.567159693031421 10.846026688303745 -0.3193906622250499 -0.3494010925442112 -1.152486193413125
Ni 0.4868223953396501 2.5474216498715525 12.698884813778225 -1.1052159475722514 0.023834383415436373 -1.0419200157270831
Ni 6.296522202081019 2.1742612428023587 7.180100023639643 -0.525014123328257 -0.30322716509131004 1.2034817106243854
Ni 1.2524159462770528 4.117545074905294 3.6920181665726237 0.319852689463133 -0.42481411936788777 -0.5943963705768215
Ni 8.58584551867013 8.554531679436082 3.5337250118931367 0.9827159945631012 0.7616911113031591 0.8159475586538787
P 4.14954702956347 4.5282031851533775 2.157560222715123 -0.4794963414021161 0.05814858331627405 0.42352831067692864
P 4.258572037362527 8.607727589157443 1.8873015136574667 -0.47304261535697245 -0.12540221425760983 0.9673644518076953
P 2.472545516853956 2.0410696213078787 12.490557410379443 2.175787822708072 1.3110181003451677 0.7555688004555051
P 8.21403381783223 0.5726248838051888 11.946036995470163 -1.0769332985774744 0.6780199582357485 -2.26820638295081
P 6.546427374380161 2.894470370313117 13.51792016101521 -0.3751861719281151 0.5820869570818491 0.9724598640527317
P 0.25227137187091475 0.05111780114049009 1.4130789704772413 -0.43175198413830157 -0.28867934918412214 1.3462694673482944
P 2.434754217760771 7.812633153756766 12.285640307022648 -0.7154184534888647 -2.451528095233023 -0.32450921439853786
P 7.743472966195605 7.397350907858534 9.428906186568783 0.2271471941075959 -0.04906256185460582 0.23892413213786595
