# total energy = -340854.11202898255 ev
CRYSTAL
PRIMVEC
9.33803820133678 0.00000000000000 0.00000000000000
0.00000000000000 9.33803820133678 0.00000000000000
0.00000000000000 0.00000000000000 13.66716281101865
PRIMCOORD
 96 1
Ni 7.167056446315056 0.6808214310792752 3.6496788864249377 -0.419938022222509 0.3999548942323628 -0.5687280192764399
Ni 8.938034084653665 3.5602391556548576 1.164603717550049 0.6115538561927145 1.2060697830665357 -0.3832954312988109
Ni 8.138100372324566 0.4275009958752059 7.419943596542332 -1.4226996225825757 2.1957380405777536 -1.723675529745864
Ni 8.029405606594377 6.976616493368198 10.313965079204293 1.2837132418826278 0.8240367634199162 -0.2851217137398509
Ni 5.55155714555442 3.4683155066988474 7.080437736913283 0.5248413451958187 -1.5759571684895568 -3.7121572016026785
Ni 5.255503979514056 2.9326296019842504 1.3231906880757527 -2.095448562227372 -0.5967026501124949 -1.3986626362380299
Ni 9.30611154004772 8.951144690416998 8.887455534043616 -0.2815797620248634 -1.3260310288142325 4.339608702862255
Ni 0.17573534404691646 7.620997163812981 0.9016641691003899 -0.9502115941774927 -3.0927275422063123 -0.4997229528616361
Ni 1.1277081944506897 1.8282104750362316 8.524442096815841 0.3193490103538371 -0.32513630645957553 1.5257412097567982
Ni 3.728314506890049 0.7336355080566628 9.358029165348983 -0.3620126106606346 0.026939247593005217 -0.16405335097090454
Ni 4.078584323259406 4.635346180401239 2.692444985246904 0.335878375467428 -0.2419950577537058 0.8299739548399577
Ni 5.5603442395881055 0.9742748872588768 10.917548794150914 0.18983251681753757 -0.4028381293174288 -0.5367766631808238
Ni 7.299955407300625 9.21556992075907 12.821165796010547 1.316303002893191 -0.894753156098872 1.6361541496944272
Ni 6.706719172586446 4.044285708609323 2.3373987622906927 1.057103922556373 0.6658959212787048 -1.7418869105475678
Ni 1.6301880349954803 2.8820641246278105 10.806133857865984 -0.7346371925091606 0.508600200746608 -1.0115187777274062
Ni 2.995091740125936 8.95696228827352 1.9141138907047632 -0.0261000395211615 -0.3601256780505669 0.519397291362112
Ni 7.8022671631561415 5.276729340553979 3.776482909816684 4.455687325726094 -1.1191171310343757 1.02305506050178
Ni 5.61604563800568 6.552398751756801 12.034825466024524 0.8872375644481171 1.2937760254352684 1.4381103007106908
Ni 6.750860079597321 3.062036136648248 11.110351270785893 0.9381814024858358 1.1755124791049691 0.008400565358869403
Ni 7.209217689207822 4.978780552740141 5.950942241933318 -3.448768251554228 -1.76716471127775 -0.5397126058806963
Ni 4.437024923135113 5.611703450199449 5.498750539007667 -0.8694342177181091 -0.3784203625946967 -1.7339918240702072
Ni 0.13121811409283396 1.1819621969328535 4.328321753170463 0.044605811634832855 0.14173823241347205 0.5612731056602914
Ni 8.246206841642294 8.673851643307213 5.385668762887442 0.5072639984336876 -0.7475922100079319 -0.9108840002224636
Ni 8.188871286523451 7.386220205051094 3.352199801937236 0.7094835760616685 2.5112748762743524 0.8557780603872551
P 5.00649585039368 0.7444881761607541 4.426370221442833 -0.3842251422019319 -0.13324433600984795 -0.5275070649534399
P 8.457461281944186 7.27479873213936 7.046747962359901 0.8055299628649804 2.410066742764443 -0.5387975502655946
P 8.985779474445629 4.060851388541053 11.949159236528635 1.0103219292058276 -0.6874422799909129 0.4440742531490804
P 2.3907899300345856 4.5410226556039355 4.69118578178555 0.8069551253472812 0.762810569619583 -0.22211863054475295
P 3.593379853556613 3.6178828660373696 13.475399030658245 0.2454717034483966 0.7325797957594996 0.6673236548641669
P 1.443156466025556 1.4728420897589123 1.6213084943826936 1.4768815079416178 -0.037394381488058175 1.117233797968734
P 2.0114974906506737 8.892212330750056 8.72826065722504 1.8529356842969829 0.4623823074296488 0.10647066746042955
P 3.7478590210372387 2.827091093197088 8.930671041459659 -0.3130480078364738 0.4368286273302606 -0.22698675727033168
Ni 7.816255544519013 0.10235797294457658 10.66057811977812 0.5554032771430757 -1.2396617600893682 -0.5410891745132488
Ni 8.065375730098904 2.1448446774743055 9.386456955324276 0.10795830774954955 -0.2896535401719334 -0.6016288837695186
Ni 7.604123328617582 6.148351172858222 13.599989005170729 1.481636763238416 -0.07982375429686253 -1.0084853902177213
Ni 5.551762582396865 5.496406691396131 0.5437082134120884 -3.0865913474015874 -1.1959285808674758 -0.7461441647074957
Ni 1.4653529830479493 7.516579219620976 10.333277076197986 0.6134713849304015 0.1530865675467557 1.176374055774316
Ni 2.1993041167989147 3.4785966868594085 1.6532483205599728 1.8832284217432536 1.3284144414447445 -1.74320305825583
Ni 7.80782329594046 5.675388871357513 8.09413128521828 0.30118853739472645 1.068510878841734 0.9793738175637456
Ni 3.1319687054243106 1.2224706070477633 0.06637944520558711 0.734796086684528 0.20722165882826246 1.3487246137570064
Ni 5.528725641928105 1.644512585736898 8.00508935487948 -0.026110581044122776 -1.6664918814460201 1.8157158807135763
Ni 5.704252747721089 2.003242664799687 12.964506551415317 1.0639903652635612 0.2258945526474174 -0.006446012735659867
Ni 3.2696300659392947 6.781133999743135 12.617060557825754 -0.06961261809181558 -0.7482516979688016 -0.0805878861563967
Ni 1.3478804613223692 2.1273918839047417 6.375266437181256 -0.8814476972392175 -0.6301956396636179 -1.8904161977409444
Ni 8.658611964813083 3.553058204207563 7.364974300326927 -1.3755440479426957 -1.0311285815385338 0.42602510895685336
Ni 5.882665307346599 3.19837149572563 4.316390541643533 -0.31973956092403644 -1.3821016465555553 1.3155573829764182
Ni 2.678476213764448 7.1274071357231 7.074137362477016 2.0603566036202454 -0.9151648869860046 0.9216510089309805
Ni 3.865705064294538 1.8317402535109746 2.711360115613147 -0.3181639889068004 -0.6032857026466513 0.7328592746731314
Ni 3.2516916943784966 2.0228898973680987 5.158985081914073 1.0339405970660323 -0.3570557808759915 -1.5733523838768582
Ni 3.8817197999669832 7.953590073693743 5.340840576258204 0.428497738867062 1.3183506294508391 -1.2758245831631705
Ni 3.2022094294640415 3.841491531000863 6.738444223882987 0.7887270323750287 0.5430511833356261 0.01569967012344393
Ni 1.910628001009997 8.595533516144062 13.261740045495912 -0.7400048845789772 -1.0365227559709116 -0.20915230019207207
Ni 3.2603760699909605 0.4473527314822338 6.949683723323609 0.22483705791718056 -0.52758342671733 0.3030865257483877
Ni 0.08494533293967282 0.4478859334687625 0.43674471998141834 0.6072552288173606 0.8414822125898733 -1.346974720945435
Ni 2.543448180048082 4.856797758519057 9.220346327345924 -0.42812158647456594 -2.9324115467906533 -2.699141270504455
Ni 6.5275035416677385 6.527951767505802 2.2233738443028774 -0.08112190428299577 -0.412071989210871 -2.872390171931698
P 0.343831238966353 5.9991853491662965 2.712918634204244 1.022969442766509 0.10234173289372052 -0.8729314322380901
P 1.2927673593172522 3.9356096189557213 7.494156722071893 -0.0018303683405194284 1.6429385196061121 1.4284324113012947
P 3.4734607657982743 6.262658099602484 10.235638547806676 1.7924085734462034 2.123176110049627 2.8464374566216786
P 6.60324437026203 0.11847822844973309 8.944420369042229 -0.3516569784579234 -0.5170987251359223 0.7692624958925138
P 6.97693398667016 3.8480655099591146 13.62752781390053 -0.14474796577407328 0.19177215704241166 -0.357816570301416
P 4.978659158242333 7.828787191908181 7.805385134142166 -0.5386376276489626 -0.3881033942104155 -0.571595570632222
P 3.917120303135638 7.029880663791307 1.177457527260324 -0.0994027048700546 -0.24388019059156063 -0.0778800003069304
P 5.364432196201566 8.68481450026316 12.665277518551513 -2.6184058030266004 0.19106664633495482 -0.966502360917716
Ni 8.605020963049721 1.673628589134383 12.079503310237246 1.6126987468849645 1.772401534196657 -0.010454105453788448
Ni 4.933696503861675 4.470324367687849 11.52266207976992 -1.9619558576521436 -0.5008858628214858 0.7769241262028297
Ni 1.5236783702258485 5.2825376003722075 11.213688803947402 0.18099537814188182 0.4347092669944126 0.6478413777698391
Ni 3.7893759392877895 2.3167206102947366 11.828970279463629 -1.0676657572326194 0.13895501324138004 -2.4507886459638373
Ni 5.817663222789226 8.001251421141069 3.555567335096884 -1.7333493053902018 1.966295108457446 2.0801355860193853
Ni 0.794173076506167 5.564714441509216 13.382448197490007 -0.6977503467851403 -0.22490673481285137 0.4138977295657001
Ni 2.989423550882102 6.688575364183203 3.1527682519180753 -0.7249955556543385 0.29865574367054376 0.39839243484124937
Ni 0.9015810605595825 6.460923328638852 8.334906065975742 -1.4401473857453777 -1.0485665745093231 -0.02929129276494956
Ni 0.5341152466737189 8.800755583708694 2.748726275842472 1.1542656539110507 1.1391928187383284 -0.07061483410408484
Ni 8.97230468518887 4.497843566537236 9.820198562190672 0.1940828074534593 -0.27613930773558254 0.0711172276618001
Ni 8.766400940828852 3.3678942428962326 4.904884920512542 -0.3702931055018719 0.024180968121577707 -0.03538377881593261
Ni 1.3107710971461008 2.8594940860736986 13.32046790212424 -0.4264431703308785 0.16278322600922934 -1.7930726893927635
Ni 6.086682767971438 9.257628445230612 6.315732707848246 -1.9377504640505339 2.4011121046743162 -0.5744093859319334
Ni 9.234414082034284 5.630472907168321 5.942919933235827 2.5711790088291524 -0.8278790199841419 0.19720104136746683
Ni 7.612891746574682 1.6284138077198158 0.7643511174137335 -1.714140336561919 1.2055200812106528 1.1464978370401737
Ni 5.343430948080674 5.43047080300946 7.513249275165702 -1.0660241078641384 4.560622530378604 2.8966387600664176
Ni 1.2557233614090346 7.197563817418194 5.086221219927583 0.9149268028332693 -0.24078483949568852 -1.5311492681462469
Ni 0.9336609573112563 8.544286361992235 6.957009414364446 -0.22054357274814923 1.3953484842631323 -2.647725377926324
Ni 1.2710470822478006 3.1349288635631827 3.508688515258509 -0.202685975741438 -0.6436993305770075 1.269483214326175
Ni 5.36453491462279 8.01523980250394 10.273578997391022 -0.2479584744259923 -0.5823461242805067 -1.686296317766457
Ni 6.42797872954125 7.120394268965079 6.185839661389185 -0.23125478851806625 -1.2129428560372852 -0.469498863869772
Ni 6.3503983074032435 5.5852674637920465 10.10693516742614 -1.1269222289010914 -0.6310729000622487 -0.8582982557059476
Ni 3.3387035351924044 9.155152813003545 11.498211360303607 1.1863558495773763 -0.9510785701634782 -0.011702633148908877
Ni 5.471268692311452 0.45813256288764 1.0178302992687833 -0.3746981765481031 -1.5906114280676218 0.6400499067498783
P 1.6856373063791443 1.0729125857475337 11.88984401729168 -0.9110840320484116 -0.012385775258862539 0.9230399188587071
P 8.119965901959615 2.551086695371733 2.8192620818922607 0.46317163610016365 -0.8271681099600464 1.8748710509174935
P 6.758816088222933 4.0364791085963985 8.73543507204553 0.13075242282592967 -2.6154675463338823 1.6314284620839838
P 7.721175638619979 8.810878017218275 1.6382280859657286 -0.7153521190273034 0.09572371335657062 0.23529193470191737
P 9.231528628201756 7.622874109509868 11.937460542155199 0.0683329800484436 0.047150689543873636 1.7727398913726822
P 1.8562339279534383 9.123244736156462 4.364785858900686 1.2957917703137165 0.46860232019743164 1.0842198049365586
P 5.841923446274365 5.399179036689714 3.8744361300984655 -3.1073388643615836 0.4251131386655453 1.41653360298118
P 7.55172759575572 2.0723161340527967 6.104001093789583 -1.1847525096459983 -0.15888491939608768 -0.29225318257830957
