# total energy = -381163.5056034581 ev
CRYSTAL
PRIMVEC
9.33883682416282 0.00000000000000 0.00000000000000
0.00000000000000 9.33883682416282 0.00000000000000
0.00000000000000 0.00000000000000 13.66833167625397
PRIMCOORD
 96 1
Ni 0.9895805049405825 6.3720751399631785 6.1224695110524125 0.6488641626073987 -2.1035171981681193 0.10600221246444325
Ni 4.632772815002307 3.7578078543705056 8.23633203547778 0.33020780744521194 0.27636736458598854 -0.05833935917084146
Ni 2.608607950478917 7.719164996099784 4.580162477769068 -0.09443070557675995 -0.17632188392561246 -0.7861597858684848
Ni 6.270029670015973 6.997403653522702 1.522378889390203 -0.33196155691152507 -0.014562471195207177 0.5947105593831307
Ni 2.9560780520919576 7.0966754889339585 9.735611311990304 0.8350418562811683 -0.5372178644833006 -0.5584065827457738
Ni 6.573261701606142 7.554222460160591 8.14680434240595 -0.4888533571369839 -1.4816863855294289 -0.1447765050191636
Ni 6.5482989907825955 8.010097779596197 13.018771851030548 0.4044383839250131 -1.5434347703818194 0.8940255339042281
Ni 1.8062617849701579 3.185346496056807 6.129330754465079 0.2622247545370193 0.9802382224465699 0.19580544657152085
Ni 4.5475372513335826 9.240480191976031 6.121662635551044 -1.6862364110627992 -1.9662388012982137 -2.0972948714074913
Ni 8.76701984280577 3.2463477781740533 3.4974522903946506 -2.4080661673946464 -0.25252063987537804 -0.14989814251644507
Ni 8.592579709819235 9.246802584504106 8.491095503964994 -1.0382135134097732 -0.9604075608738878 -0.5339818740445063
Ni 0.5048687251679231 5.491404150033516 3.624964768353757 2.923120094186398 -0.27703019498096804 -1.5336774338847394
Ni 2.8049383169747633 2.7519777733607245 11.107337019661706 -0.018719173676058083 -1.8264402091096157 -0.877555818383979
Ni 9.354993009079779 7.6597232997317075 4.277818569560613 0.15784619371892816 1.3414635613192187 0.592221988633322
Ni 2.3635662111227584 -0.08366757296641474 13.491039630738722 1.0103319565081568 1.057227849728747 -0.8713525177867444
Ni 7.855250526260916 4.240336214094326 9.465592853555368 0.7286200397808033 -0.17590973608885835 0.6372378912223798
Ni 5.853143994309622 5.600761929211862 9.436438872766388 -0.00766651540632228 -0.3956380120245638 0.6004199510630821
Ni 5.455813842907241 2.3450006035218576 1.9090693040019886 -0.7189424074817231 -1.4728525892878825 -0.21564844943937697
Ni 2.3030038543361173 7.256967284136104 12.015980627522445 -0.04570315846406968 0.2025455935088318 -0.7410456671386657
Ni 1.4727439055682572 2.8232611148183087 3.7160230967806105 3.4029792182445715 0.012795094882139254 1.1811074566942434
Ni 3.998516373441544 3.4085633737614027 3.4385559820969434 -0.11408447525194546 -0.432622559668713 2.8516349416622178
Ni 1.8922444555845923 2.4799561344276024 13.082602800704674 0.38016408475868074 0.09686759715302672 1.7489091075016718
Ni 7.303698823590285 2.736568692605449 7.222688149699551 -0.16149124667068315 -1.8495827086643502 -0.2971804446765979
Ni 7.7906164366201525 2.0704761563206064 1.658132890844176 -0.41423891495520276 0.20212316125943255 1.1222322796245898
P 8.404271404152954 9.156374627562693 5.835871815608482 -1.4025051499125718 -0.6058215816946276 1.2439213066966706
Ni 6.559486917294608 3.844257466826009 0.6375549187260732 -0.33259764783362716 0.7964405989692026 -0.21083611565239815
P 8.862397383262511 3.211682015893095 5.724242831315177 0.08719484994995305 -0.9904814974411328 -0.7868969211448255
Ni 8.482913749025784 6.42261692484048 8.922304153704292 0.32753411726779075 1.40350942280737 -0.6087611239389258
P 0.7868054071543026 9.091712521411468 2.7531843510780463 0.5393210268692324 -1.6098746471726082 -0.7038975973334587
P 1.8281520184794697 4.821146492526338 11.857974979574173 -0.5070428835618171 2.1037326566130345 -0.13886682440294795
P 6.426296426548103 0.20836719327492148 2.1385880287936505 -0.5903013745718415 -0.3844210602628218 0.34124375354439934
Ni 4.934109062717736 6.544544778380401 11.60047709966566 -0.15045684323339248 -0.2741209917539731 -0.1542654183462053
Ni 6.529854788060373 2.464453665304114 9.461574352071128 -0.6965846086118131 -1.5195088556938412 0.8911566969968653
Ni 5.055691379295267 2.0982311793537445 11.526558338457082 -1.5546275537738452 -0.8401346974230435 -0.8833330871873883
Ni 2.2880897319323754 4.849508539952865 8.180059006443198 0.6431899950407568 1.775482487114826 -2.107901186168428
Ni 0.4215644329538601 1.1614991519853446 10.065004227168203 -2.1225176505300216 -0.13246426331071381 1.5372029305394945
Ni 1.3623681931763811 8.559370806082413 6.479540870801512 -0.08409718486123581 2.0173613310056417 -0.2149434529525524
Ni 0.29802563006225075 1.4962217413372032 6.910776603167593 -0.3646580187032817 -0.06224820730694441 0.8670634034930874
Ni 8.061424026766494 5.777686192792882 0.26074125793657804 0.3905341151390952 0.38541967673066524 0.7808106057414295
Ni 9.17077511394126 7.460451199637126 11.91759598160922 -0.2750602157387908 -0.21890809402725525 1.6377376921314633
Ni 5.092336974982357 2.1387056981376 6.186697361291444 -0.19335569947944767 0.8373489071477903 0.21563585103388666
Ni 6.426445847937246 3.3720671994634546 4.607649476185433 -0.2713485712151585 0.9436146576862653 -0.174399470091919
Ni 4.184723440823016 1.692365331096622 9.203461976699769 1.1055183093040186 -0.3231082202859532 0.544384814545385
Ni 0.7832323681864432 1.595176056296533 1.7108646329560913 -0.6183353978909222 -0.4853358309020287 -0.9463644525172605
Ni 4.123544720806163 4.478682007449556 1.5537881992715465 4.184777384710251 -0.34212641325966886 -2.6840920894808162
Ni 3.4922860458650637 4.5494236963715 12.934177865451453 1.527252504195002 -0.4308695815333483 0.7696011101788552
Ni 7.61178705032757 5.243317949873587 2.774343353664244 -1.3613811261787523 -0.3301553569407217 -0.6838630472800867
Ni 0.42611991755532863 3.432825671823345 11.362894289278737 -1.2701095350562643 -1.3420448877439854 -0.44681787733248857
Ni 7.152064130121556 7.328792278129329 10.754926673370155 -0.8850896648671789 -1.9001843328713017 -1.245561413403255
Ni 1.5091373526611702 6.09560821470308 0.20163295804302525 -0.24894603515024222 -0.7857602364372209 0.568396346968634
Ni 7.957996408969725 5.27503263971899 11.736408539019239 0.07834279887596185 -0.5274556428902142 -1.1656890652566438
Ni 3.4138304777286606 4.645912558409986 10.255130804363604 1.2984022113533704 1.993658330961747 -0.3261994576167672
Ni 2.696038140800665 8.188665678457781 1.9318000328252245 -2.6407967691272907 0.9826203495255013 -0.685509067523942
Ni 4.501618190682863 6.284430156394538 7.673223522240693 -0.821412695533508 0.0265245286530898 0.7717497810907419
Ni 4.315672610732389 8.685818656643882 8.471181368327086 -0.4502364160957343 -0.19528994038768305 0.11608659328363878
Ni 8.597725408907815 3.281349738580581 13.540067590167277 1.9982474929943261 0.09582630037270592 0.7080761541911805
P 2.7669666064590372 1.264590571656545 5.085316037460044 0.21974190278246025 0.06752693920738048 -1.3161716195216495
Ni 8.856140362592187 7.134581827591935 2.0808534717965226 -0.7906844132117157 -0.4175070441835132 0.4057265066088173
P 2.3656394328971047 5.01406818358238 4.776562885541075 0.16920249927201184 0.09618548348433757 -0.183584993245929
Ni 5.667618662016111 4.203896072817306 11.65154185940496 0.82540793273583 1.1622023922596243 -0.134342197059717
P 2.125042979867923 1.342074900763525 9.071193229147534 1.8629876692163465 -2.680714945478467 -0.08617515043618708
P 0.5273958673484531 4.552692289258983 1.5592420799752318 -1.0957712572195837 0.20174983708041383 -0.3402677627843753
P 4.026831726683965 2.1005285332118038 13.60928424703629 -0.2092335470519687 0.49371994120066587 0.12453292427877909
Ni 6.540790565978207 8.296323789334636 4.470597376413289 0.36747363377520587 -0.39621419624300797 0.32230269366552233
Ni 2.932917736774938 1.208697633280593 7.157613266960819 -0.1856516459669706 -0.13062463899881374 0.5327312894668568
Ni 3.9782604363759737 7.277522063979959 0.06268974381455156 -0.04508583659504493 -1.4429156925191344 0.6425400201615836
Ni 7.2824156144743615 1.1862283918883556 3.9967429283291644 0.2701923461235282 0.3634963942950127 0.05213682990455537
Ni 4.721370359926727 0.07353680278258304 0.05234137873278172 0.3373755288382448 0.22130359084262533 1.3987305133614878
Ni 5.545793535681225 6.13644694812297 5.6829782469362335 0.38485660513834363 2.366310423614099 -3.0169262788052817
Ni 6.459580040979498 1.4997798381661485 13.07175013843455 1.4914051554790895 0.7136945288192225 1.1168702439817282
Ni 1.3351548226788834 3.110766545201276 9.193962511885061 -1.5493308241512802 2.4277708449124256 -1.0704734018847435
Ni 4.0707616150917305 4.454260949161651 6.0086122802935265 -0.7719600973293351 -0.5430524688872067 -0.0721423264922048
Ni 6.546851471075282 4.794175931786196 7.002204749532573 -0.5125458156579172 0.39769772276706994 1.2849309163398126
Ni 3.1764092292187476 6.106730769357343 2.37007538038726 -1.2726922081817758 0.8819308075232232 2.3312750292765205
Ni 4.956568965273152 1.0047934701226084 3.9070648799845102 -1.1636424671402605 0.41204267863483235 0.5065191498478631
Ni 8.291588999066196 5.159735360322247 5.048959011830734 -2.095291210713901 -0.24754606947892202 0.7333403280746079
Ni 0.2556030299174554 0.9055543206402267 4.508867929707299 1.4465702585525861 0.5857309815923396 -0.5588321003189666
Ni 0.37999260084349246 0.907269864964314 12.436200267974026 -0.9737359025516779 -0.6971412524462316 -0.010014961033840817
Ni 8.782008675904082 4.569259385780109 7.3450876144989525 2.421099346429521 0.882154750608571 0.8952414085892001
Ni 3.245236456592309 1.1590710544117862 1.9310342482058713 0.15482257640125593 0.19119622993428362 0.04113327970520012
Ni 7.460908802641374 0.004079203923578256 11.371545787710062 2.9931188919730385 3.0595428279242274 -0.49690168136275714
Ni 2.3230823535020817 3.314035667455407 1.6490844918479421 -0.9362857281250198 0.6185189746566381 -0.6294433348786256
Ni 6.331255084216932 0.2809290214933526 7.188490263143344 2.533325942537121 1.4553107237493774 0.22322677600726717
Ni 8.017531493706015 7.04452742412338 6.235752403346784 -0.8697314372435536 0.678916759018405 1.2597050518934887
Ni 0.9069626172328907 8.186713861562113 10.0946643729129 -0.5358904039211287 -0.1890817546944421 -0.6936003291725086
Ni 5.2807106525063885 9.029104959360943 11.425577495907515 -2.4803442481337674 -0.21842806906704315 -1.2045877992043705
Ni 0.5403161480908307 8.332763930611655 0.6033458255656804 1.1047436359215235 -0.2924763543327092 -0.9980809070549457
Ni 8.062787496942416 0.13692135605664515 0.5445858642855651 -1.2794799205275704 -0.3426429478847712 -0.15409032622092173
P 7.785975034719928 2.7786681689962247 11.677416040702271 -2.156698410176789 -0.6772779378634013 -1.3478095581419047
Ni 0.8191131131378624 5.295634113746951 9.977007169451396 0.43000749064336913 1.2646775654074156 0.41221082878158044
P 1.4245461687331211 7.248907867959255 8.142197494201964 -0.2268196355648481 -1.307691092854464 1.0266497198315738
Ni 4.531904038494594 8.227076314304112 3.0053105320469022 2.0375318924162458 -0.4168514128773853 0.37195480947501103
P 5.436202285582345 5.408904865553455 3.47878208782135 0.20257104743012855 -0.12064233097512127 0.04588364990599194
P 6.1958886444910455 -0.12320353864972187 9.409471113677291 0.6838134249890739 1.3178495214447046 0.6484823537879476
P 5.449276657132275 5.4756868876631355 13.594400008910378 0.10912481725382496 1.6922525353498923 -0.5554667833911594
Ni 2.7722990822840443 9.576136665010027 10.945312870229195 0.21141872762874556 -0.1958445273395724 0.008927641506933013
