# total energy = -340890.9355946024 ev
CRYSTAL
PRIMVEC
9.08224976584473 0.00000000000000 0.00000000000000

0.00000000000000 9.08224976584473 0.00000000000000

0.00000000000000 0.00000000000000 13.29279058018959

PRIMCOORD
 96 1
Ni 6.156212371377859 1.9469709945497213 11.50800805215173 1.33767864035549 0.3478373476015171 -1.047070706690087
Ni 4.614981809118486 0.4214091298277819 5.855660741046153 0.14519353795192413 -0.6166317849362541 -0.30681359689098775
Ni 2.619257297074594 1.758568802504438 5.079760498696299 0.13256196523084268 -0.9341396283162945 -1.1909139012617038
Ni 3.698946083622571 4.2861498690301945 4.7500721024418935 -2.9453729920473273 0.915447965444062 0.6035001326503026
Ni 5.273390433787343 4.575855476524431 2.754545583445946 -1.0310396213691535 -0.7016219139254045 -0.43875155538458627
Ni 7.046845043887338 6.163841461298706 2.3651595585609178 1.0008255596796183 -0.3370909077182904 0.8891931455125912
Ni 4.765828897803413 4.567372655112442 10.947955652837404 0.8165085733636712 -0.036169507942021575 0.44359782773329415
Ni 5.609624407548837 7.832841115232445 12.441520751141317 0.2565367030133066 0.21205893231590575 0.3345583711044238
Ni 1.9890853873627747 6.276552182629306 0.28056795586404193 0.13054904856587193 0.617967215918226 0.10624878125761059
Ni 2.837630913808917 1.7269171615828314 0.43846650337580767 -0.48553329162481546 -0.5406029789054496 0.4886091023366617
Ni 0.45008451745526806 0.25323764944760024 5.211424967355249 0.03695909372285248 -0.32471644531333754 -0.7279788066523786
Ni 8.715327009576448 2.381356843042867 1.1858348576466864 0.3805546353288801 0.028684255308569953 0.025634926959284886
Ni 7.032122716790085 0.5184765839206844 4.696968187242859 -0.9969678764964248 0.837396472556274 0.7489932041205165
Ni 0.6385993293993828 7.158302414730941 2.317278845282691 0.8214983132687788 -0.2399518020714319 -0.2953786155811687
Ni 7.492919748009209 3.9123153806588147 3.8786638283079573 0.9352673141628345 0.26570757087929725 0.29161606321494293
Ni 7.609408685300608 3.6967209323956576 12.531964520377942 0.5946542522238983 0.3500562096297068 -0.3808742234518279
Ni 7.785295536975742 8.679651931946584 6.990506031271868 0.34590259247264943 1.7232700667773289 0.7412145886163622
Ni 6.8046305211503695 0.7645719520423875 0.3092515175164433 -0.04460735429672963 -1.0961142423812993 0.6590927823139422
Ni 1.7398593676985528 6.592986851596222 9.251715606761291 1.5909490139126987 -0.29241927584252864 -0.06068317681266968
Ni 0.10200093224171652 5.088375920956912 1.2193002238744755 -0.858164815451877 -1.6844114420389187 0.24338062524732282
Ni 6.476080130809157 1.7414578436819683 6.94580228901068 0.2336402580311073 0.7690871466569141 0.3072838516591869
Ni 3.492660941512827 4.2721632041753095 0.6529619994003667 0.6292415032804648 -0.17312034626917927 -1.0566097565287738
Ni 5.759063747498369 5.579398679862436 4.999617817302798 1.2011409783063507 0.9336660311139855 -0.18272933011385306
Ni 5.288557791129978 2.678255592462473 9.303690598297038 -0.2691834452430396 0.598976019527704 -0.42705072200789035
P 0.16384469652507302 5.616000146982688 12.320994753766804 -0.278395707869927 -0.046628498491816474 -0.09090109515694668
P 3.965101417111147 6.0378615728557765 12.505551521201983 0.26571039909277466 0.5331375237663399 0.634746492259094
P 2.109516021113279 8.610136391167824 1.458246044870357 2.963380484368342 -1.3561250199861354 2.128305717966709
P 6.2474344894314084 7.683610667030745 5.838047533803894 -0.3179369604976589 0.2298208842850171 0.17761977680142957
P 4.6102136279179575 0.9167804699881886 12.640221306354753 0.7245576967859715 0.15293847200466562 0.43494426582335416
P 4.038204446602686 6.126804046182978 8.448259818197332 -0.46345394322727285 0.9701080759911034 -1.0855755476335047
P 4.600731759016334 1.4862284568300328 3.73406441933321 0.9823480697007211 -1.8206577980998837 0.9468789302598338
P 0.03377688739955691 5.521090635467395 3.6138444937805194 -0.07450542740774266 0.11387544456493293 -0.5253337114512049
Ni 1.4381288613290775 1.1812555872441977 2.7364410264837855 -0.1575371471189416 0.25783331033754303 -0.20613459641167078
Ni 1.6015548661334944 6.693754414300735 4.755947409905936 0.6600597742129019 -0.9463719087164284 -0.5387355866794077
Ni 6.1482926494600285 5.803430538288054 9.227350654939082 0.42426930260801127 -0.18079303232308863 -0.485042468031326
Ni 8.76753178203481 2.263160442769182 10.287383636240993 -0.34637670389559055 -0.09672670069978825 0.2713861093213133
Ni 2.3205057686742108 5.46283708457179 6.957951614709628 -1.1883859926335276 -0.7308561282001736 0.5225008699881002
Ni 0.6927767665372793 9.065166193696784 8.915567914373902 -1.1642225080134467 -0.7725540221595921 2.195267014478606
Ni 1.582373154332509 1.0772184145736075 11.476171133332045 -0.2856570174180306 -0.08378376738587506 -0.2954881445758395
Ni 4.023028007010145 6.95499625059029 1.6567467905858653 0.47908445067567823 0.29604196019678053 0.14330017758395322
Ni 5.565112300760661 7.914190827638422 8.02949725599209 -0.05984705406461951 0.2777462472113862 0.2528479413078097
Ni 5.387236436356164 2.99593452966648 5.017722374264959 1.9167928879622604 -1.411695301052272 0.2498585196621826
Ni 0.6563505868402094 7.37958235143511 6.942040421099709 0.5709782487631972 0.08843180768084771 0.36206711804765385
Ni 5.229677564990874 4.691899383570449 7.28878255800218 -0.6009578258444231 -0.26095822911976996 0.010668278347123562
Ni 8.551238000528908 6.990026488476843 9.463948714334322 -1.6824558609744444 0.9942890441126813 0.4099811681201133
Ni 4.754421591921766 0.30443520039141375 10.374278970439434 -1.5436520285989481 -0.5207563764931677 0.382979699830605
Ni 8.21115315280737 7.410770797611522 4.687516289765924 -0.4062669524933196 -1.3107717886623167 0.12609281256673122
Ni 7.399499725478463 6.404757222299149 7.222066166644377 -0.6469849433068148 -1.7222010020828662 -0.3750257350908509
Ni 2.3502228903658886 5.163050179682149 2.4696544766267583 -0.4083981399037096 1.011584597968335 1.4833354910970777
Ni 2.2897895994928983 5.198134911068136 11.348427471957416 0.6317748112252798 0.04228616236272072 -0.480965726858791
Ni 1.1215761231133858 3.5193355094860723 3.8238569912515907 -0.8568005881144986 -0.019403344227276263 0.013825850139498769
Ni 3.284114319176547 2.804408043653612 2.8679065938697996 -0.030106332467077182 0.7558688481944273 -1.3136287984951376
Ni 1.0112721980078148 3.1920203051320444 8.133419992313868 1.1520534767510804 1.0659927404055707 0.8406849134995587
Ni 3.9758820477492955 2.616105756357292 7.039769062985752 0.6174573661613431 -0.3997759454523373 0.6548669171580528
Ni 3.9151399603795087 6.875408494666032 6.152049976246045 1.3831719968015983 0.5770725345863933 -0.8704402903851203
Ni 1.1072170860123642 7.4589158043620065 11.580825898996228 -0.16548134166668274 -0.0829854398542958 0.07890998423334152
P 0.1007757367294282 5.452265345681474 8.038004599478825 1.4484569340523377 0.24354466162901284 0.09927877769768063
P 8.537287664673647 1.6175214614678373 7.8289221243981055 -0.337384013478677 -1.0219528285765367 0.6873556338143775
P 1.85867336096583 3.2202933490887045 10.395095487223456 -0.031744382291132425 -0.4419404946355292 -0.6107958949807674
P 3.9848825574059132 6.149291696949662 3.7970988665792125 -0.8467581162768321 1.1058456107364503 -0.7295381807196984
P 6.90671501009122 3.972676013532559 10.36534566943212 -0.802085970180438 -0.11290973821755391 0.8982681112306659
P 6.555831367231719 8.007592685669357 10.293871087348684 -0.628168324820944 -1.8667077983804108 -0.16350981976260873
P 2.3798764363082263 8.449171676087872 5.838804993446034 -0.4484662115691889 0.8464477841252648 0.6162258077470871
P 6.909294369064457 3.9028607585069084 1.4385720751244788 0.8480212992599718 0.9455990351061456 0.17155274467174325
Ni 5.467441785274015 2.868047368743339 0.2092087183544107 -1.2886736712116968 0.26997663056829635 0.939019582116415
Ni 1.539895471523225 0.960584161283715 7.182546572629403 1.0305302858329026 1.1259521516783384 -1.611126003081206
Ni 6.802060244427038 0.8363117358230705 9.38758152422665 1.7124099841343734 -0.1757099613732264 -1.4132029959460501
Ni 2.7473079384960384 1.5416392635051328 9.226406100948884 0.2191333226641839 -0.14682464579744392 0.4920111860396752
Ni 6.744033749779075 2.038638142848653 2.4997094580149306 -0.8260100850962032 -0.8695026090621992 1.0231987851684958
Ni 4.33950808722659 6.933008123568422 10.41694828872173 -0.7861924388786331 0.8472810786598376 0.38638564018836036
Ni 8.04558373702519 7.01059778451341 0.24420171901635015 -0.39637489019058836 0.9939766550785848 -0.07329340937751248
Ni 7.8051493352697525 3.6927610714367414 8.445242694778635 -1.5048142297961438 0.1280285961368634 -1.420195110993167
Ni 3.2238717555515777 8.350747333859047 12.804095066079524 -0.45964536811445994 -0.17545130839520107 -0.27864073400119754
Ni 0.17676964636597364 4.746928735749506 10.204689750848962 -0.5043753640319829 -0.28097478145101284 0.6210085738477111
Ni 9.246366161566792 2.630900741453791 5.934393857254278 -1.1138142307642238 -0.07020320048796297 -0.7352172333823467
Ni 3.6117564845271835 2.6404189393550372 11.588176163844967 0.08748898415160417 -0.1503496282315669 -0.17960004045625197
Ni 1.0898790709422501 3.457603456876557 12.529704856601388 -0.5308402430917308 -0.5046121626331375 0.15015859526668332
Ni 3.085576336236425 8.384951087004175 7.947799693414723 -0.29841688818686024 -1.3660600197116604 0.7700834491319124
Ni 5.4679413090188325 7.978484074721365 3.8548029413555196 -0.27929610819700934 -0.5198750023294788 -0.8518892668558101
Ni 3.0515633103393185 8.443758655144032 3.840978848773948 0.3539905116871065 0.470158608940958 -1.5179014019974053
Ni 3.3486255402572285 4.192866080248035 8.899563173589954 -0.8050527661182457 -0.6698829309509108 0.6432982384838469
Ni 7.002342019349067 6.003285447464512 11.38120803654231 1.2295650379749985 0.0526245681742513 0.713041725726572
Ni 0.6972279772160969 9.146461412603326 0.19983674467664714 -1.9895430232417928 -0.0029261725078594766 -0.8013375220501877
Ni 4.743768112782298 0.561644517722807 1.7914165757386347 -0.6495159372587846 -0.5953870166248649 -0.3979319502650631
Ni 5.835781512452404 5.462346643076879 0.2050081777729923 -0.12567449408239004 0.04113225126393561 0.256527704152242
Ni 8.177448923407058 8.631261704448644 11.533490120712347 -0.597368565831268 0.33591488513231826 -0.1977926522048787
Ni -0.12567563307108598 5.1433780263862525 5.752335616768176 -0.2040851700818098 -0.87438256286232 0.45165103705507376
Ni 8.370610214402966 8.840534906777386 2.770815525927142 -1.460440331666459 1.086424011676729 -1.081715550457466
P 8.623341982530814 1.6822415742963508 3.8242956639220393 0.17068499735480927 1.500785825363041 -0.47915489890229734
P 1.5985123124150615 3.3454285882903974 1.4039578042836098 0.6095928758116017 -0.22106499246925798 0.7640678390654518
P 4.560887928679723 0.8147686390465851 8.141741149677534 1.5462732682718787 1.4681017048664589 -0.02006283218814609
P 8.460933189715844 1.4866280758258865 12.400206504544961 0.30915612898123535 1.3037897009175288 -0.34971322446799125
P 6.3428162779418 8.094418994768514 1.8152765544660818 0.7646553361378057 0.3772847063283567 -1.2633948420402499
P 2.229837667864914 3.432136828140779 6.273466034111325 -1.442475262547606 0.7713785137942522 -0.22417885550789135
P 6.921691640185833 4.084732812869944 6.233202603829067 1.5279348749740074 -0.644743969791438 -0.707407153148614
P 2.461743836958833 8.485219125963871 10.281029694206916 0.4463121413406636 0.5700673069131537 -0.3973997319106769
