# total energy = -381171.7421961515 ev
CRYSTAL
PRIMVEC
9.25269232175039 0.00000000000000 0.00000000000000

0.00000000000000 9.25269232175039 0.00000000000000

0.00000000000000 0.00000000000000 13.54225048935099

PRIMCOORD
 96 1
Ni 0.618455489148329 0.9158046276512042 2.7064189054964896 1.9611580443411967 -0.4619053677932303 -0.9941329781507909
Ni 4.358499101957474 2.6755084371195172 6.328347277767353 0.26811000967320275 -0.6699302392490785 0.9616239497794922
Ni 8.078395903067268 1.5117510928163382 3.7797635692998988 -1.2901438279993198 0.43917707295777914 0.47972516958347056
Ni 2.6509332869985136 4.644453550183987 0.8972862897550532 -1.016760999962952 -1.36615566474926 1.8598933465617387
Ni 0.3683283898614007 7.6229413889270985 6.2904565784975786 -0.08046267343244207 0.8226979900038349 2.0155376475333413
Ni 4.6267438975741975 3.700299599319024 1.7242530450957179 -0.12325225779414258 0.6643432320796042 0.14541490993411085
Ni 3.8072699722666608 8.411215236596071 8.241651327107178 -0.2368155704352954 0.16369031120453098 0.10416978724139479
Ni 1.9337478724544175 1.329750639924718 12.162673895604117 1.5861135401972684 2.1213742809541984 -1.111873304987769
Ni 6.336373062863347 7.921877364118886 4.035508903207864 0.4332612216939764 -1.9344707648579975 -1.8825401374269775
Ni 7.629575569136722 3.723986491001919 9.651182379081348 -0.25939371284612744 1.0883639090119193 0.6584780315480788
Ni 1.6854611336189451 6.044533902484363 8.22457455863454 -0.2958794664769872 -0.011390758335444898 -0.44808800229416385
Ni 9.605127104334624 8.438853027790138 11.846218873259051 -0.8074408067344482 1.147459686732811 -0.4634436588146277
Ni 5.9299948274286765 9.22060372755425 9.523032594000059 -0.44964891902338044 0.05487865431575065 -0.9816829253128965
Ni 8.564356542941226 5.519240068647909 7.9884106969408375 0.4301815543273882 0.2878763936668526 0.001646534464487487
Ni 3.2935605088938726 1.569941273204513 8.784180150450558 1.6988841817337965 0.2765296011954657 0.4787049558490723
Ni 7.363125795780342 3.8558743636769144 6.9071836647684215 -0.9848497530766522 -0.6101122386501814 1.4479041468726612
Ni 0.17601858747248283 2.8410853615981932 8.526959012158443 -0.5685500989376789 -0.03181483051775166 0.7889818286983122
Ni 2.189390501480476 0.19954170650585173 10.264253726717849 0.05257186055944494 0.42567183938249276 -0.790031353008749
Ni 2.782488062759218 8.306243445134179 12.680719170477925 -0.03441884379950202 0.3408159219783614 -1.2374593531214106
Ni 5.114795645854538 4.848123807888631 6.235610321021199 1.0801947429375653 0.4792513152708456 -0.6174398826598463
Ni 8.994356901214347 1.8782779835329502 11.456472351808758 0.6122632235549134 0.3694970919631378 0.8731080670252706
Ni 3.962955768929315 6.2443642929826 4.595996276577545 -0.3226107118242444 -0.01742770855814418 -0.9991929091722017
Ni 2.92693183856456 3.951167839240249 8.400000048545746 -1.5266338967743966 0.4344709257313614 -0.166717528066629
Ni 2.4762979769895437 8.596361604789326 1.7992368615793828 0.10758652623242762 -0.1559734021762475 -0.22852273429888384
P 5.045289423072543 0.5338868089559488 6.976994301119309 -0.9596287737263344 -0.2855387466726115 0.7572063360589282
Ni 8.839429825300911 5.679940824409051 3.1827669235855427 -1.8284811507990446 -0.4412244424051111 -0.7897601016252334
P 1.0939550353751477 2.693875030865825 0.6685837989414622 -0.8640189602398087 0.6633674984298963 0.3665233540467946
Ni 6.939861397329546 1.2529718011807087 7.446870061109854 0.7967427035906537 1.341110291744858 0.307671831126225
P 8.764806863807728 7.454625667597589 4.39061427084113 0.29836520901331837 0.10239032674346883 -1.3015235305911714
P 6.157444503736851 3.514385257684488 11.683616689278832 -0.5319609869597355 -2.1596487510543647 -0.07579894940818559
P 4.698452261067337 8.745385463166166 11.210856865172055 -0.7130211569012818 -0.5167079174554069 -1.634832088448894
Ni 7.528924784868545 9.50020157633305 13.659526303659598 0.009908260252647452 -1.5566078174286675 -0.02566089510121387
Ni 1.2280080379930325 3.8238600491367514 12.235666532755689 0.3566189504488891 -1.428658668379488 2.1058165357252574
Ni 6.856069018001304 7.95878635276071 11.412717296309054 0.4621305964301589 -0.132630613685249 0.8144838296241586
Ni 8.196774845329362 2.0955496985711313 1.2526525833045132 0.6135138081325627 1.5686763185574275 0.7274753846533987
Ni 5.811319799020546 2.0393210889004463 2.6278468950305482 2.8370495876488753 -0.14059794816144172 0.3446584356529032
Ni 4.99154053487491 8.793934338424037 13.22567312441118 1.8203497799411619 0.1156155671844912 0.6498712637156743
Ni 6.029054148661909 2.2919750983899525 0.14386918362819084 0.04256872660014604 0.2771806045159033 -0.38856567855881463
Ni 2.654069949608085 5.602412517607887 12.515734418291322 -0.3492010607182631 2.3429900037206037 -2.188138888074257
Ni 0.9629461684461973 4.098609487274208 6.715100553335062 -1.0644122832923282 1.1654777205767863 0.7032437657995436
Ni 8.275191410568635 3.850146947289527 12.635257918561685 -1.5735038218530577 -0.4549973278194873 0.7656007307702105
Ni 4.352012964820868 3.6923145260681105 4.20541053595708 0.13640447890538443 0.7230728847103288 -0.9678940990589201
Ni 0.3763134631123141 0.6027138841404737 7.584431684558267 -0.5584425781900318 -0.49437840072027117 -0.1168538104669665
Ni 4.532218395452144 1.585559817407922 11.956872742917218 -0.20496680135581474 -0.8563480739581122 0.40479628148506414
Ni 4.969768950449187 6.514672438929515 11.967584584519285 -1.7066129178366218 1.055236530330331 0.09070826241985024
Ni 2.628634299125163 7.1208533067862305 6.257507742058989 0.7944245969804382 0.7185415724988786 0.40561646339351437
Ni 4.008701078491907 8.689675004251043 3.9681095184087574 0.8671348801609712 -0.31236460861620396 -0.6697569468960078
Ni 5.991849073874049 5.535284236686245 3.343432519116843 -0.16009282366125976 0.08947336157148461 -0.3317350427230158
Ni 2.1950716544075455 2.962036552253976 4.4927094003404395 -0.24383545339655424 -0.9059706220812462 1.113378685888702
Ni 0.21165903203238282 5.170857707068078 0.7610117157726907 0.23217138679506466 0.11057851898121601 0.12032017174901213
Ni 6.880653420814372 5.445014972913461 11.66027029666388 1.005415750153462 0.5353095917169942 -0.7929806654450602
Ni 1.8487896539261581 7.2619568607566025 10.269710964496978 -0.33486741770441036 -1.1258709048184417 0.5947997766628272
Ni 5.6665706843771035 6.815468205226092 9.474618808046316 0.905220631289099 -0.19668964894868704 0.4187925957641562
Ni 3.448321036350163 3.191012922752651 10.939728005439099 -0.35774329386131937 1.096591439128034 -0.9975741426218563
Ni 1.0090985964595884 0.4130050134906426 0.2665099158547933 -2.2671015799224055 -0.40842565070753534 2.0522550575590333
Ni 5.074167075003134 3.894652396115591 8.52366782959141 1.665641360520267 0.6962614209444395 -0.3609026654259075
P 2.807766417477058 4.779200504706644 5.9307063594483695 1.203097073591457 0.1322878856338496 -0.05938451260590418
Ni 1.6820376375554018 6.349280568292111 2.4698081387761133 1.4109229416626219 0.013353024268138294 -0.037526793300864406
P 7.378476011913906 3.925028984160492 2.9109071011795584 0.6632186315568579 -1.048862508483187 -0.5609609737365113
Ni 5.213299805563953 7.670222645372253 6.047074691725037 0.27728447708361925 0.1692320669583666 1.3895395908908392
P 7.100377099249415 9.249999530240405 2.4639854196604705 0.5005786159937121 1.296563615482735 -0.5544108313228193
P 3.8993620163759797 1.6752831723489512 3.351964426468717 -1.6498843547963264 -0.2864260343735712 0.2465549092102463
P 8.739417476785125 2.1472259837465097 6.291675158042358 -0.35981354612678673 -0.041102683577580824 0.010527639004201225
Ni 3.568587527793238 5.482590155383867 10.123251952360176 1.1571871984332198 0.7848693491918354 0.4174448234870101
Ni 0.17607132781724555 6.172452370264061 11.951373868023804 0.3982967898036495 -1.3004544658967088 -0.07449154345067172
Ni 7.6748119806358135 8.369078476938297 8.095814095877053 -0.11162778618133679 -1.9773179419305107 -0.7251197399370286
Ni 7.758419306122783 8.95483865341058 5.522326766720336 0.9369274754740767 0.6006089271454367 1.3226603125697864
Ni 6.696154741065571 5.010379015916463 0.820026311023735 -0.4402515369688805 -1.4648986245481286 0.8388596873653618
Ni 2.022925318563692 2.305187942656817 7.146706253681222 0.305838377461912 -2.4844307594983146 -1.6916498687688868
Ni 4.824020545062873 0.04520217653845615 1.8389966046460113 -0.8119888311164467 1.0558831627753944 0.6246857655889823
Ni 1.4046696875639377 4.806116585919747 10.30492115887592 -1.0977859736567672 0.738079128311174 -1.9447965722640377
Ni 5.828039413579527 2.263384279913333 9.753534733420027 -0.2580055742493492 -0.1780632920967514 0.8938566124265317
Ni 0.7398017697552296 3.515458569963869 2.8544351457075994 -0.8455797796980146 -0.02620082676508391 -1.4848868947445975
Ni 6.244484577979428 7.56410352009447 1.495050908910691 0.2612449071222533 -1.6086472025234102 -0.10769914055089194
Ni 8.109494201093131 6.639454244099642 9.954135873167163 0.8766086239793612 0.14868920981000847 -0.05596803072518748
Ni 3.014203230108728 1.7822072818362702 0.8297416376905475 1.2370006683174375 -0.10270040178471991 0.6958405313569371
Ni 6.514579912008878 3.08754932009713 4.823735562147313 -1.0430908961067324 0.21112022255172025 0.09978759901329912
Ni 1.879536349653604 8.386612328398877 4.1115354980871 -2.0435593295572483 -1.4098883297505203 0.13447178065904586
Ni 9.097413385419069 7.8250849524412445 1.7793565274114655 -0.5612378815469818 0.5952517765985812 0.5154514193404864
Ni 4.481143535260901 4.278833423289611 13.010189029479692 1.1997366417596564 -0.5115767668764286 -0.9738809127699745
Ni 7.720918145188888 6.740567662970999 13.479712261902614 0.8036792828094869 1.5252771256361861 -0.8753732089103635
Ni 8.635796578364522 3.838608840286179 4.99187640759682 1.3756394358699793 -0.1403027855185261 -1.833140761058243
Ni 8.407791740532529 0.6553996380199947 9.704173471798967 -0.43022757707397513 -0.6001471570176696 -0.632071516530092
Ni 3.237553963832714 0.6503208353462676 5.7845859958410974 -0.7282467156017846 -0.2611808866535373 -0.013202614733203067
Ni 3.940795571436919 6.862148036687111 0.6968859334256965 0.2428178107653173 -0.6844970813196598 1.0869387465296183
Ni 0.8751816084150389 5.688064688040919 5.143441055214333 1.010324243198673 0.4289361119560613 -1.3081400074664244
Ni 6.833057572839055 1.0115042963961325 11.497451599689372 0.08670608323899262 0.8912204603552651 0.8141840389955527
Ni 7.413256881381095 5.935500179206537 5.370125533888846 0.08057914440564833 0.24815284982498556 -0.22358184535384074
P 1.2234464608056626 7.30170642586196 0.14230177759261178 -0.6426258950071707 -1.0043250881924444 0.37105980846456743
Ni 0.8089554649696006 0.866550697258084 5.104440032896922 -0.29846625336755694 0.6975814253074437 0.7195813266173027
P 6.63310689734399 6.287796429529283 7.328469837656013 -1.0450212803602261 0.25377122445302747 1.3638043909082642
Ni 5.823487089084221 0.6799350015651247 4.885109593874582 -1.1068036037743454 2.115140127119028 0.6704825122081227
P 3.878191856934392 5.630004045341635 2.5522264933329053 -0.12896550612883598 -0.23909433916714307 -0.6729366301755701
P 1.5305525630896364 8.218555682447148 8.257143109429315 0.8453563508332989 -0.41924228170706507 0.4833396264076063
P 1.474175910345933 2.65589272994462 10.2805181088273 0.06675252293520116 -1.5040878931530808 -0.3123332411576363
Ni 4.208938587440943 6.049012205443161 7.941825242938869 -0.6958472162251564 0.3452981261194311 -0.5528208611278801
