# total energy = -340869.46995906706 ev
CRYSTAL
PRIMVEC
9.29065250884631 0.00000000000000 0.00000000000000
0.00000000000000 9.29065250884631 0.00000000000000
0.00000000000000 0.00000000000000 13.59780906024155
PRIMCOORD
 96 1
Ni 0.4982957901133698 0.9218780102230723 13.078889241626221 -0.16810540955309114 -0.9032161992645605 0.017642138561795424
Ni 7.864853300192068 5.1156005481707245 6.3170798190448165 0.768934937349766 -0.001327717672488036 -1.5468916185821682
Ni 5.780876308230986 7.468690583073216 4.101289835323055 -0.3515518203386268 -1.2123062508945508 0.048523401521684176
Ni 4.077751037919327 6.79947558631451 7.877075153675097 -0.513386823501974 -0.5425678159413043 -1.940405642285194
Ni 3.0980145596225857 0.8522891641884196 2.972956801360584 -2.480814502901966 -0.05096492108364126 -0.8642364755672536
Ni 1.825380967752313 2.2578980084584646 9.007732708915754 -0.8598602008764288 -0.8613342143187941 0.5765963662809231
Ni 2.9060139331837544 7.84195184155606 4.4709732634932315 1.0315980649757845 -0.6691437387920411 -0.5168110186921744
Ni 7.1799556818603065 5.355912568081051 3.942317478844063 -0.6379752836090369 -1.2045296922729254 0.16095517166155504
Ni 0.5516362138321959 3.586507782187537 7.448621844412105 -1.2120722805068738 0.19502074588669638 -0.6839129266814157
Ni 9.114622596036696 8.987424271417805 10.193937217865521 -3.32969506483844 -0.8982097471889048 -0.6942096806217335
Ni 6.013402761270329 2.368466064940054 8.437399985810089 0.5958313032511351 -0.5311315490799046 -0.5316246866662393
Ni 1.6956184230183948 7.635931620357906 9.143248025733817 0.39330859256043876 0.35659118253474714 0.015472898824618513
Ni 9.130964853943688 3.7688089673217067 2.7889925894126844 -1.547983051874134 0.6300568000929084 -1.1125322787280065
Ni 0.2661632607438714 1.5360328834684192 1.9548350628202207 -0.49665742656243506 -0.31588959105032693 -0.11554023386186553
Ni 2.5893513302832845 4.155699613155067 5.5737551447008356 -1.6424494957848357 -0.3298833342262577 -0.4176129736337582
Ni 4.592527516663291 3.836695765801748 6.9067491773874465 1.937906272902108 -0.378157081630981 -1.6527184818110117
Ni 2.6753084480521836 8.8460948642085 6.964906804474536 0.8253305425306753 -0.7790290883609745 -0.8322707212939344
Ni 0.40201675731623415 5.936949981101687 4.328672054022943 1.0895782410349946 -0.25068281533569087 0.07271182584242962
Ni 1.7260917635157997 9.131708106150942 11.05644702896894 2.982714408810263 0.6546360320941693 1.1574859606205614
Ni 6.111846516121091 1.7490954193303037 3.4035042237175133 1.6722100148767203 0.8797430558432849 -1.789336362278783
Ni 4.034298655752754 5.399671541783116 4.359879356075011 0.331359661661468 0.3887410277944144 -1.60207237751937
Ni 4.325830043395456 7.902573349710196 9.822010097094697 -1.8601910803078157 0.9287451967736005 2.5421186011280867
Ni 4.978451934627222 0.08805215992809541 8.200934296072301 0.3321317639408022 0.24495414038202976 -1.852547447719629
Ni 4.5750982524031905 1.8162389656030915 1.3716515090511385 0.7573392620923666 -1.1180287830662035 -1.1177873564793588
P 0.34472037372429987 3.8474078882387928 4.814046404513205 0.6790304017781338 -0.4516898607128092 1.2374968912275657
P 7.64206345106775 3.6278047329530754 7.660244329122436 -0.13449183526370384 -1.663280316487258 1.4426938063163153
P 6.497863840610928 0.596324252793329 9.729083131752276 0.5042776621118541 0.5366681626274177 0.06321571342653629
P 6.065922820365398 5.5355937891846505 13.244986599577 1.1324328743066756 -0.5827266475483771 -0.23975742667243866
P 8.628061829210605 7.87692185790735 12.229176375401197 -0.308621596634004 0.42497429909483586 0.08681844044714081
P 1.2937233732510987 4.976863233034217 9.276792795137396 0.8071811253151583 0.43643576276721613 1.0366166012362985
P 2.4992505814589463 6.502258319286317 6.241570969179388 2.8849376695794056 0.14167369772412375 -2.308515109872186
P 2.0685359273553847 3.555783594070184 0.862758800592848 -0.10390804893957588 -0.05637940723099322 -0.21946422364104137
Ni 0.40989337258260605 0.9683089756102153 4.403650407625444 -0.06802136234529575 1.369062811093726 -0.11699085026546302
Ni 6.351201598814578 7.7345147349975285 0.2819202075376514 -0.902481377981065 -1.2172463685086456 -0.1453881704612335
Ni 0.944654974114364 6.285981217628059 7.443903121961302 -2.8923031088055415 -0.734300120884716 0.2890593582313602
Ni 1.0050999598692771 1.3410592482005732 6.78994337675648 -1.6576393161513967 -0.9019761562098724 0.08265016800206411
Ni 4.6740529931464385 0.2603854038977324 4.345900640187085 0.08296641369090228 -1.361140728033172 1.9754132687086303
Ni 4.044295397940317 2.646284449358924 4.07334633952609 -0.4101940554618678 1.3615441341191779 0.9008258446555131
Ni 5.616738348911581 1.739739732171497 5.8728398328997535 0.2507604626511617 0.4974295288417691 1.0809853571596608
Ni 7.570766983086932 6.775533574588347 10.54659645422855 1.0731445209590034 0.8710938648087191 0.7429323426384172
Ni 6.269601797110704 8.614116559672006 11.558096744667541 0.754036680081695 1.3392377573124936 0.023877320838229847
Ni 6.280722708261739 4.835868289318176 10.230611139901942 -0.4575584036784442 -0.7604266427684387 -0.9448120204284761
Ni 7.480619780999639 9.6132240486203 4.8051663987670405 -0.8831248278313242 -0.563483483048049 -0.24207836149613146
Ni 8.158939617297204 7.40294992534162 3.467604152201597 0.13386294343045332 1.3001315353396512 -1.9351652198218607
Ni 8.535777777027459 4.891370647894852 9.32797500025941 -0.3284167769830602 -1.3998810820261633 0.6810911409619045
Ni 1.8140742435494648 7.602578177557393 14.030627409275715 -0.2675443669777199 0.01809645249039464 -0.9180229252600899
Ni 8.435801064499234 1.8241174389999817 9.238147396621237 0.006855075248620453 0.9060747517592783 -0.041361079445290064
Ni 4.071071058706635 5.951099644997281 0.21028648886779183 -0.5219748222813011 1.5388060133605561 -0.06043609379887011
Ni 7.958280102643866 5.5453582650574464 1.1713180963037335 -1.3005197719170054 -0.33489081474317806 1.5881431690327874
Ni 0.7751117131177059 6.489019139344609 11.186890578537755 0.7242249960369012 -0.0036702497627356147 -0.26370468151665555
Ni 6.975997985537281 0.7747744624286645 0.3214417145931117 -0.009649350164305964 0.2949669819650469 0.48957326602214385
Ni 4.087654873580984 3.984667989613383 1.5988172555456635 0.07921825950237969 0.8437586673288758 1.1723700768212455
Ni 2.6632863435998537 4.502621871543356 7.766918673103274 0.9396754705328592 0.8518815535463264 1.948269875524619
Ni 3.787975583616263 8.591893318675117 1.2973207139342067 0.26169176485168477 -0.7986679456378245 0.02353690677967559
Ni 7.972903589821585 7.406619733114936 5.720598554222705 -0.05159047048278212 -0.6685582986022164 1.0670286378692526
Ni 1.0086954424218673 5.416338972530782 0.3410849413655699 0.6848135841188142 -0.01596655063158541 0.8307046623583951
P 0.982430767548037 2.0818308512126364 11.257326732088675 0.08620651789475475 -0.20318631241662427 -0.4447741074295824
P 4.753655304543318 3.9279299742421485 8.992285140853243 -1.5698628826663608 0.923985570601428 0.9629786640351738
P 6.047434421709961 8.093524132406282 6.128056846761296 -1.5217855675431597 1.2336458929125915 1.2462183302609635
P 4.991375232380847 6.468951329748756 2.2398992271945555 -0.7777119122114476 0.4307184006674647 0.345475789347876
P 7.741956547722656 3.734953829281297 11.297535747435845 1.0268664638280702 -0.4732045948561334 0.24184053445371254
P 1.8758570832774348 0.3345610451163999 1.1068056628446243 0.6046352746960103 0.4104223694225899 -0.04772173155599523
P 0.45400817827889467 6.531681816040976 2.054275704693962 0.2612991573989565 0.3866394080703793 1.3036457191404969
P 5.105613096635752 1.2262546541376371 12.567408157356171 0.695434297057454 0.1427121662909671 1.0400377111027057
Ni 4.160939541216206 0.8828721343863942 10.507925041885137 0.6171303218392274 0.42553634224589293 0.16569448611875334
Ni 2.63102919780504 5.936206728894433 2.1756218472459903 0.08679890006311504 1.297607740476533 0.5150277015395066
Ni 3.2989435032010523 5.64796423226883 10.130068626630946 -0.8460436067083107 -0.21096981301678505 -0.08921676547598828
Ni 7.340934819298883 0.6243457900720553 7.276133446544204 0.3964468810791043 -1.094152233558922 0.11907858603242717
Ni 5.732564914759491 2.724994858107098 10.991231293108717 -0.109708714781753 -1.083370826672702 -0.14729078680058502
Ni 6.588094658571537 3.1580135940531466 13.360935802039108 -0.31520542049910877 0.5418340230990732 -1.5264845156807259
Ni 9.119964721276332 3.2840041338352517 0.19102232072103312 -0.23756581833775858 -0.4439269289379386 0.27122155871899095
Ni 2.969915041702398 1.7412819805015487 12.554720842178348 -0.696528044342265 0.023617125198307713 0.5209078144693674
Ni 8.594541154663458 8.169187207104716 0.9736408811320021 0.8037283908798674 -0.11868417880748593 -1.0526021780312775
Ni 1.6466845558233247 4.231836511135626 12.166068688613796 1.038237167558857 -1.347688459183008 -1.2171918611216264
Ni 1.066427557620304 8.596835945853355 3.001703009541383 0.1874529608417675 -1.187451139524084 -1.0325635142128475
Ni 5.254142759602828 6.434120673186326 11.442937247675642 -1.130658298904756 0.19376964708841468 1.9522676838301023
Ni 5.498570538610822 5.811145254371396 6.053486352807525 1.2683172190425318 0.8760368106362911 0.22989056118068799
Ni 5.753933415718037 8.893876690482324 2.3119268695342594 0.8332012035280036 0.25511282608258645 -0.28001396019964037
Ni 7.825061435146218 6.698365414170225 8.119483144809879 -1.0301258513056324 0.8169595448581607 -0.3272883198055718
Ni 7.812965005473163 1.6227053814867998 11.79977077424766 0.6607323747998943 -0.3707944706183227 -0.9846499783610203
Ni 2.1484262489825747 3.9977306471558687 3.212821940881299 0.04266360030679749 -1.020937757048461 0.10517663123935435
Ni 3.8397152278937163 8.527156051423313 12.497378934388719 0.5776443479294633 0.5507922607336255 -0.017098864463815713
Ni 3.2138689974282673 1.9421273082066994 7.12100927836827 0.9898469491809276 0.04193829210499874 -0.5634564864648554
Ni 8.18652356483891 2.4591985781405583 5.749425591081042 -0.20208999402865196 0.7178766852213702 0.07468694729092944
Ni 4.364664971224466 3.7957797317924276 12.776161688546502 -0.6125861541119708 0.18826003012409515 -0.4255952205082864
Ni 3.338930471951305 3.2303970683870733 10.439555129470381 -0.016650206962171323 0.28517724956813467 0.8084450796292465
Ni 0.9079922008610535 8.176647601135025 5.58595284248713 -0.9801222656939959 -0.05421068171444857 0.26429346414058996
Ni 8.465085201465033 5.317365650482352 12.62731985965238 -1.275051966663204 0.14745893694733314 -2.3936764743318775
P 7.009788089009556 3.376436836459849 1.716383031558547 1.3123149647797205 -0.16134623645238663 2.3993928079903646
P 6.0671213145495955 3.4871442527302983 4.6641166402007155 -0.32983088372176744 1.388359711650125 0.6602266388080694
P 2.901201375141787 6.696943944323851 12.036454794321328 -0.8985907846774073 -0.5682593071701375 -0.14905996288586587
P 2.438378225684862 1.129083718691797 5.0905167152411686 1.1610690499861296 -0.5573825123566336 0.5594982731480558
P 5.831008669610252 6.681632948854424 9.224332196218908 1.1612685675914451 -0.33174944090071895 -1.0711858545707358
P 7.872666739020823 0.11030884727430963 2.597331071793413 0.05435877725653864 1.3967636194431041 0.25784847984619463
P 2.8334725177557867 0.23385594542506802 8.932401310514805 -0.5409883872693263 0.6017800646354022 0.6655999873048408
P -0.2452834481115948 8.381060539434994 7.542554987430096 0.9068807926003413 0.5006732325900474 0.41181436467411014
