# total energy = -340862.7055789769 ev
CRYSTAL
PRIMVEC
9.32557467453494 0.00000000000000 0.00000000000000

0.00000000000000 9.32557467453494 0.00000000000000

0.00000000000000 0.00000000000000 13.64892117971618

PRIMCOORD
 96 1
Ni 9.069578234327532 8.766030781677474 10.483995591666899 0.9946232875236484 -0.027697723025584556 -0.1474360541291977
Ni 5.9267476932368615 7.027258749680281 7.399735254297086 -0.616777566485499 -0.09517555416258447 -0.013822507705389097
Ni 1.4298530483877963 4.337464621792064 9.634909486418799 0.32447630427807345 0.5668755394487334 -0.23201454950222622
Ni 0.07728290167746726 3.9035736132068335 6.885443804451566 -0.38581022730086456 0.07621289701715261 -0.18626562540188565
Ni 4.1560915217431855 1.5623974399243639 5.623410066014902 1.9990674177924603 0.5549965286229603 0.594215364914267
Ni 7.520031436177415 8.735825245605783 8.711683198127426 -1.2886952684782516 -0.06040164101650889 -0.7284670591427067
Ni 8.382861573244737 0.5538831767341793 12.535715255492986 -0.09899621346025532 0.19083164750601325 0.45710126153636765
Ni 2.3293606702868437 6.4303660229730735 2.4157360071819394 2.135700467768883 -2.2399808124462135 0.5201205426813816
Ni 3.251520112846013 5.726592885979467 11.193657829009153 -0.49275706306676426 0.44742825722297785 -1.9150280827523536
Ni 4.689243946181172 1.051029557710357 2.1646775510676983 -0.07357803049746683 1.293233008447605 -0.10526687696031548
Ni 2.5844990652807893 1.3687891860236618 4.056049555297901 -1.2516752396104764 0.40552750322413383 -1.9376378497320697
Ni 7.516012113532494 3.224699760347655 11.86048956741036 -1.7466771328473596 0.6302984837900694 1.4865948785746397
Ni 3.4301701451168936 8.553678122866584 5.002588847487271 1.1286106723471079 -0.6110064683296768 0.31207484528992707
Ni 0.01351369012704144 2.107617157871695 4.718773378095655 1.3634310667292453 0.14075272857175114 -1.2612975931915889
Ni 0.7760351493160272 4.802773491144668 1.6333389508859466 -0.4187545434373691 0.09531413662297779 -0.48091173369240403
Ni 6.83391161186788 6.20377321177519 9.590987895251631 -2.6044010041070758 2.197190199643248 1.5897570504871266
Ni 8.41811224516539 5.298287896568964 10.882530549338698 1.3349838671321461 -3.031783141312456 -1.0983274479825342
Ni 3.561166491272819 3.298175962480675 11.288285366852023 -1.3647078765591398 0.3637486195151349 0.30526425012599684
Ni 8.730285854303967 4.724280129886433 13.063409421128023 1.0943507227229734 0.6672778892278959 0.6103359246252134
Ni 5.795089231285601 4.283273707894998 10.525569935711728 0.3287026836545952 -0.8729455733054772 0.22444522179540055
Ni 7.443095445874405 5.71878738005418 0.9031697750374703 -1.49961237388023 -1.3172072598750153 0.9966647434337094
Ni 0.5163533343856419 2.4516003019100987 1.8828959894924557 -0.2525275818539135 -1.5649903850654079 0.7379325754309807
Ni 2.886955425704732 7.326572391470028 12.832715222228895 1.167930295882337 0.8065535190334884 -0.0959617975093057
Ni 4.039689699808377 3.7300712981053175 3.1937929410673838 1.4327788611954486 0.07024279547664677 -1.0647174732375726
P 1.384484128045476 4.535325337702241 12.00185128971438 0.7718590529750965 0.16686819471188036 -1.2570539874238866
P 4.664046243660113 7.4753805850779225 10.341336681938495 -0.6377428558832565 -1.8204014591147037 0.3862838245031735
P 0.7726704820067756 0.4556876740561666 2.848993809253039 0.1050046244378643 0.9072782851490763 -0.30714629764005813
P 2.6184255056107713 3.1078596364074835 1.5598534231783443 0.14975133252593564 0.2759477605500667 -1.144646385653732
P 8.142989143841824 6.593740764078339 8.10709034448771 1.090089376343458 1.0014444242105398 -2.1280655769314447
P 3.2715887493468707 3.4601705185477765 9.142524743824284 -0.0754456798338249 -2.0366155512495636 0.10656708382897774
P 0.7376743982722173 6.29578865617759 4.060868079684514 0.7072639427025303 -0.3083151211371787 0.27035072607826344
P 1.8477973244374937 3.173670216233949 5.787293050934895 0.36563812322836386 -0.1787816583200147 -0.08055471892561611
Ni 4.7148146716855175 9.142121879002332 9.04332487676377 0.13201766269159845 0.49604961777510703 -1.2830930918001258
Ni 4.182482897810764 8.980836066603477 13.724535772999849 0.8101072978230177 1.3520914733467102 0.4844904521825979
Ni 9.101891350254796 1.6380185242112861 8.664416523357632 0.013655643110221645 -0.514600641304417 -0.8546521743129282
Ni 0.5486254177847445 6.507451222469398 9.363910154175477 0.5486798423763132 0.7835853402730892 -0.6030342487574776
Ni 7.6161408078213935 2.424518833323439 0.49844916374530873 0.2639080557767132 2.258462159079852 -0.7053932080423787
Ni 3.251408205951027 5.201227316317603 4.843388233564992 -0.1697429451565141 1.0703073086205244 0.1475576673087265
Ni 1.9760799283900035 3.8232804160542373 3.634967223401299 -3.7480752556555257 -0.5166104726455941 0.2532662597921509
Ni 0.9876249761260946 -0.14347116727451137 0.6989723311986994 1.0824943376050196 1.915399092938527 -2.2028448268258645
Ni 6.948662807101642 3.2434907931307535 5.962176483632033 0.1205726540794504 -0.5754375700861315 -0.058017199944732346
Ni 5.608204716658653 6.572338570412228 4.894721791410077 0.9436205712235362 -0.3033462071676775 3.127825928571342
Ni 3.379355089218578 4.688190156253385 13.347866490050894 -1.3086472861201461 -0.6913976650942351 0.11953007174754898
Ni 6.651438094018305 8.525664096821705 10.925470157502359 -2.3019508263911064 0.04072807384698147 -0.0484426688824198
Ni 2.227637302744391 8.1988493355891 10.18625797198154 -1.288438158162123 1.5809618207929999 1.7140110100729062
Ni 4.3940149060584215 5.094757231312818 8.901621838430039 1.101218139266768 1.550473936616788 -0.6450643292453342
Ni 5.477898463021809 5.892336323028606 12.207158476928432 0.3394429528902348 0.7850894356224414 0.246934146926536
Ni 4.560401807753731 6.861617893951546 3.140425475405925 -0.47261786911472803 -0.1586144393435204 -2.2403561935077607
Ni 3.1451619347362154 8.62641760460761 2.670506974537347 -0.9750777612915529 1.017658314966241 -0.7514743186711573
Ni 2.306764803074214 5.017700008540241 7.297477531331076 0.3745943039803871 -0.5620246391143353 -0.21203990615251225
Ni 0.5521346315000201 7.7001922115306085 2.302231641269815 -1.8110066481633649 -0.4320980546238106 0.647891257171168
Ni 3.969309588436641 0.08610116500237953 11.213203300775952 0.0804819567061517 0.3246956193777311 1.9937295505193147
Ni 5.144415915962943 1.9907397316331952 10.491297516564748 0.7283547019345585 -0.974949977464437 -0.47411399404428023
Ni 8.046338888872079 8.757982810813049 3.5662172224665287 -0.1719515227720587 0.8323702229862762 -0.96722201269256
Ni 1.8577943403895938 0.6260444728511116 6.175740534581148 -0.7583165384039714 0.7458747130961928 -0.2828002646955259
Ni 6.458864978896226 4.565726710840158 3.8118845639148096 -0.917655257508026 -0.6738614559826845 -0.8540793325285937
P 6.176626464166456 4.263111815648318 13.474515253336605 0.42427444481433385 -0.5147258540283717 -0.8250081261942501
P 5.465346239634191 0.6172103560494097 7.199874202639031 0.7468864421901589 -1.245661429316229 -1.42309582957973
P 3.5282099106993834 6.741103493625995 6.274435888056766 0.7599116508052333 -0.055941548362626235 1.4179016869732999
P 1.0906352729608884 0.5518651223945948 11.963634152519136 1.3600834904132513 0.6278826752597251 -0.11621951931707726
P 5.5214022684476936 2.490525250216131 3.7672794081307703 1.2707484541918437 -1.3335905863290451 1.4540202870727281
P 7.398052920642461 5.415612950387409 5.845696326870733 -0.642558532104345 -0.40823873150770984 -0.16700497740006076
P 5.3033330324179255 9.039624488769558 3.641040970126675 -0.4782979502186408 -1.7360641332182039 0.7115389159288005
P 7.691090450738399 2.961308231848477 9.522292915206897 -0.45976775262493724 3.364275373916471 -1.5631397050099143
Ni 3.168736987279974 1.858913409339456 13.322848771119272 -2.5499797490437177 -0.3590879808146719 0.02333918894657271
Ni 7.395581643378183 1.3891655664857319 10.639511671071757 -0.37758629672917554 -3.308861673032856 -0.4871661992425481
Ni 7.4299184089897805 1.8287731522898403 2.874571995217051 -0.1944407050135103 0.8160295768447238 0.6958734414774016
Ni 5.060056768292516 2.496484292374146 7.908007045749809 1.4773985567873522 1.7150713330166205 1.0473453005077125
Ni 7.679909086814361 7.677820158107952 5.599497427671269 0.6602232963739597 -0.38956043837191623 0.878435649885771
Ni 6.446900266707284 8.012766820376221 13.424000480939835 -0.33184765704148006 -0.5327392598866567 -0.3940598689041665
Ni 6.746745466248215 4.425759161936172 8.201568673137265 0.47446135008136997 -0.6920468686424597 -1.1048544504677746
Ni 1.814243907090799 1.3684627909132856 9.924785646731374 0.9974116489020628 0.5371618144343846 1.398068968518089
Ni 8.85090283594992 7.352497488808496 -0.11111608626162733 -2.2914080178782537 1.360784630245334 2.0616485829587914
Ni 0.7111552618328634 2.8425283883952117 13.168711011637658 0.7781618552646727 -1.5356530695538715 0.2857341505128692
Ni 2.911108663872586 1.8731255850027029 7.675347948286215 0.37888804625973455 3.2505714219323956 0.2054735657889042
Ni 6.682725396741529 0.7126660049151771 5.046306208571088 -1.2169468349903556 0.6041696479135015 0.8521900859256808
Ni 8.042636635762952 6.293531867128702 3.2048213655682734 -0.5705036231196239 0.2014027381536402 0.4584240941128492
Ni 5.181000145048848 2.3592491368227404 0.247531523807259 1.535448666852549 0.4853993371501125 -0.510397916076979
Ni 4.7187034362862885 4.433881737397254 6.505117031151479 0.808362547217769 0.5331771187550236 -0.00432176730380546
Ni 4.863259167884707 4.9954025597142415 1.4102199162199265 0.8339182841996863 0.21577443349428002 0.7309661714154766
Ni 1.0176719774298884 8.642084569905679 4.63532347394699 -0.8738621715824756 -1.6021417973047247 -0.4831143977706777
Ni 0.03879998560663075 8.852460206905144 7.301790609575335 0.8619713336821607 -1.4263176789511371 0.6618921994359505
Ni 7.8222733083859675 0.35263354702083655 1.058103938588401 0.4298249423189178 -2.0489018248160846 1.679427615671082
Ni 3.0302242280108094 6.967565746779727 8.697147425026177 1.0065120685414344 -0.5933013377404297 -2.6380333474495408
Ni 0.8584107472728246 6.873265536604692 11.916927944781731 0.7826096066233812 -1.4783598922593573 -3.053109670704374
Ni 0.18502779272763545 2.8808564999279835 10.82384004570573 1.799772212900126e-05 -0.7720588276907284 0.11501907125107287
Ni 8.813469979577038 4.334806833036142 4.217394118816624 0.913798088545465 0.12823119906597272 0.8353159358781614
Ni 0.688461476087121 6.6048568489803 6.26449948833945 -0.34622089504401665 -0.08240462765016131 0.14489683264711173
P 7.919790841791856 7.0694196723663305 11.592287907541692 0.11200933789047163 1.2818214241765535 1.196523277028681
P 8.507553830983106 0.9836802580778312 6.153493443857892 -0.9357344836072401 -0.2180408609309535 1.409983717677804
P 7.3706077546470965 7.67721399576011 1.7024433236548395 0.37120764689634134 0.9696452774220721 0.6810844560936852
P 5.9640966194385046 0.7271971152291347 12.561484615735933 -0.5668382584528948 0.41408567720679007 -0.12152730468323587
P 8.101210569713643 3.845894934416031 2.1611972466336278 -0.15260911368970492 0.8480254130250299 0.17614036404242567
P 2.076842761750491 9.489891206321103 8.21483523553788 -1.2128279277259757 -3.728352837525934 1.2584796641268199
P 1.4077421110534405 6.5385893159993085 0.40458445790326175 -0.30414530603020523 -0.0634046895088908 1.2795758226754865
P 4.226443656391174 6.9636023775822995 0.8770348522709024 0.21967351143837008 0.7284210363961197 0.2660580122401805
