# total energy = -340855.1197832639 ev
CRYSTAL
PRIMVEC
9.39473852651130 0.00000000000000 0.00000000000000
0.00000000000000 9.39473852651130 0.00000000000000
0.00000000000000 0.00000000000000 13.75014946826859
PRIMCOORD
 96 1
Ni 2.853980657244499 3.892221401106313 12.763219269237508 -0.9678074528823848 -0.5170251915855096 -0.5693512546827356
Ni 9.14165371008769 8.902538823940624 6.338076764758469 0.0047927934029530364 -0.4857055555366216 -0.35446102356562176
Ni 1.7859961710621743 4.860452553125917 9.016192613295201 -0.930947603741558 -2.406755676113339 0.01011626249839548
Ni 4.870749186601368 5.831455153024406 5.563049350956022 -2.1562836912368737 1.2577157893776016 -0.9236374432333899
Ni 0.6712794367987029 1.7956727517918412 6.447541440183575 0.06438093737923106 0.8856650777546747 -0.3660489855135373
Ni 1.9271615128524402 3.043106139447336 4.607564980231576 -1.2830450121710095 -0.8383495804981627 0.35294664380362445
Ni 0.3299516739306361 2.69267299595481 0.9810840938606299 0.2129595897533042 1.604466074562527 0.3576682176490098
Ni 5.197676694185519 4.523200227850596 7.588006334452675 1.113394883838618 -0.3083061222761142 0.2095891306191745
Ni -0.10044854481708504 6.4129331022302285 4.765856930439495 -0.13128721228347712 4.005153690104915 -0.04873706019438703
Ni 9.241003070491793 3.504387803356696 10.152353777824244 0.8160036087027946 -0.4371718696022922 -1.4561062230674793
Ni 6.00296550040382 5.424681762312644 10.068340388665877 -1.5624719895189285 0.9521656325800698 -0.9373589065845405
Ni 5.48849082669701 1.8673733965771007 10.847988134898275 0.31530080842639246 0.5083857707429568 -0.22076340206843914
Ni 9.25753781037938 1.4756409823198993 12.768677612348124 -0.9817114645579866 -0.5823576942447325 -0.724798609152184
Ni 7.212509907396455 7.1954678516259545 13.456735112763443 -1.7057701102203526 -2.3621262103294223 -0.6215310220100845
Ni 2.181683770258395 5.527676281282875 0.48671791859438207 -0.6212780254590139 2.186252983905454 0.5611599771211948
Ni 2.209520380648689 6.110788915000311 11.017403455576025 3.6209365183227833 -0.30639964928202074 -2.058387652819332
Ni -0.1479812246246086 4.444209265933083 5.374451853060958 -0.3790525968620569 -4.217408797592027 1.0688194112210883
Ni 6.7618818770283005 3.433053553375764 9.385219823370404 0.49635917859572587 -1.1181359980680292 -1.147921713970894
Ni 0.8924024591055911 4.777666116825117 3.170316536562022 -2.6641459853761926 -0.7333079321747759 -1.09120497800514
Ni 8.730154765873966 8.430453210672898 8.848799040358253 1.3189849206007285 0.5200354391667431 -0.09124099499486867
Ni 0.9654597041407184 8.146685132090774 0.6043710481592718 -0.16898266995172187 -0.96059139474992 -0.8018306596365223
Ni 5.266803180601915 3.637013327784566 0.34929544065139734 -1.4533731404070327 -0.13440724596969755 -2.8843483727348387
Ni 2.3103822939629635 1.6612716217737697 2.45880131340505 0.20242809409436105 1.4967556211577255 0.1135424867055464
Ni 8.606322716749949 5.870086318034493 0.9965966861915289 1.505424609686633 0.21023859127771535 0.033135863322020356
P 4.781405222776968 8.31514218943413 6.1242205727374035 0.3605825630823274 -0.0356210916377193 -0.23104550072073757
P 7.667929254436579 2.228366226225108 11.04244231281943 0.7955607674674104 1.39235674862466 2.140390931266017
P 1.0298606370551515 5.535934256488095 12.437147622337312 -2.395199338734307 -1.0479855051948725 2.1673872573492026
P 5.744093479038801 1.5032427242458812 8.62214157755831 -0.013959290393569506 1.613469820723034 -0.6469607749370988
P 8.909819746334303 8.393888888148759 3.836841296169187 -0.8024310122246826 1.582061995835714 0.12502786163732663
P 6.676962835071546 -0.06504916987593498 -0.0038123849127172753 -1.0836546764617077 1.4128934351254312 0.5387543557324851
P 4.50481472446423 4.361375855939421 11.623358456658618 1.188251266827876 -0.05836892685719625 -1.415875914792523
P 7.300341318310682 3.9808795490149205 6.409769893752871 -0.8511693579706502 -1.4275543795717156 0.43307507382509935
Ni 6.727365607512965 7.728525318229154 10.028245523386195 -0.08905298620461438 0.04539154076092183 -0.14680870495784393
Ni 3.6635158852975667 3.072201644806344 9.617528221421702 5.985493963801518 3.922546716635961 1.787630692441586
Ni 1.7937938040773427 0.22301512265538814 7.8444873948509946 -3.287623589589687 -2.320773101303932 1.8511091726112057
Ni 4.693404706568436 1.5535139703472862 13.04055946768833 -1.2390809478852338 0.42227181256200824 1.3118115427807406
Ni 4.283239815232005 8.11854789006616 3.9786060222803776 0.8477235655138948 2.2331931001004186 1.227535923360112
Ni 7.324748849122018 0.6656933252434991 9.744414500055637 0.47848075565340814 -0.42419448350601785 -0.4228420832431814
Ni 1.5816324228947547 7.0048016322972275 8.51827240842698 0.3527720658989731 2.3828948103353413 -0.08713494324629509
Ni 0.005013032502281759 0.6004712921778305 1.753570230879218 0.8815130032595141 -0.011773081375528112 1.3127060295705522
Ni 2.051472693643655 0.9638719933219672 13.415003684024432 1.468086278247491 0.2245624640995552 0.9852163923874517
Ni 3.753649007162055 2.935940356550919 6.4272459864454206 -0.2997597753679999 1.1997692947698047 1.2555174961747022
Ni 6.900369718325406 2.1367675251433105 13.121231148336465 0.7498781778286312 -0.6506755047845245 -1.723684014386296
Ni 6.7720657736408825 9.256861389202161 5.81111554401496 -0.4474308283261391 -0.23102518900576344 0.5754977339001056
Ni 2.084579752373117 2.1710489261943335 9.025914288770018 -4.886673378232649 -0.5200020148256463 -3.169773733758038
Ni 1.6543946731387058 0.38630413431001526 4.854159957230061 -0.8509739541303926 -0.19716710280573785 -1.3761752537687912
Ni 7.321648585393095 3.482526246698507 2.946588353248982 1.4337646221474856 0.7757288203431479 2.3306415094575796
Ni 4.894799717346948 6.581662606992186 12.001171626246817 0.4282516842945269 -0.9560456843607664 1.265064516433189
Ni 5.604046111138662 7.243080386711344 1.9798706936134067 0.22353196595251182 -3.294833477074565 -0.013060432728383958
Ni 3.9346762247154046 0.5874858845229319 8.66706345951654 -0.13098150811760023 -0.9882698345017947 2.057001313994767
Ni 2.2072844328684353 8.856391868072542 2.484707305018697 0.5994051366453226 -1.9843054289919373 0.04858536510787116
Ni 0.18369908120336612 5.769168036288783 7.334770216757295 0.794496073648322 -1.1835119523706779 -2.031572075288385
Ni 8.262841679801067 1.2160455660847989 4.3452122082254485 0.6638722059804566 -0.3422644814994299 -0.04567384788803102
Ni 7.802320989716078 8.33395045605626 1.5357269118079868 0.7818796704358921 -0.3472637344862342 0.9543430998473629
Ni 6.581117712154981 8.867834659653838 3.4668943411877375 1.2007352582274997 -0.7593709478104148 0.6923101496061754
Ni 3.39319167761268 0.7414431023535026 6.579556306604233 0.9799556582091447 -2.4495910261113103 0.25774589283005933
P 0.23419955892593994 2.502391960907556 3.2702117312771875 -0.08962274266515534 0.26539415340393646 -0.7043735085286127
P 4.6490521457677 7.988740787210038 10.492463982573316 -1.3635012578455485 1.248130973902644 -0.8285966148764569
P 8.864086158963413 1.1402582100205054 8.16538911711475 1.1056761750381217 -0.08529274783123375 -0.30740829305219314
P 5.490773748170126 5.19666206241969 3.3532630992057317 0.26283359176561183 0.5447949054996101 0.40282655935320305
P 1.7141358157211828 3.7680699308708308 6.8297955026949895 -0.4895449838873698 0.2780365247582953 0.18627051049789212
P 1.6179900611702989 2.4219823934655964 11.53519259305121 -0.32944239003409714 1.4479401423169191 0.6231988966308106
P 8.01016079115532 7.141109894245515 7.356247528607868 -1.3448692445666581 0.039490344785138444 -1.2355431099353043
P 3.194380219941603 7.966606783133247 0.5104546650716405 -0.47239084070558646 -0.5970412643988362 0.637301911691096
Ni 2.0179334769398585 5.623549588415156 4.900828321088915 1.5227661862888742 0.395906435194602 1.1230496333195625
Ni 8.994409972441023 3.816039466021975 12.308212351220718 0.35825622894199594 0.639413301607144 2.2392457340524015
Ni 7.814083202408838 8.693721969689843 12.05586967316358 1.6797168647767262 1.919097624836037 -2.2305088684000363
Ni 3.2437025974471867 1.1093495201170067 10.942286883845808 -0.37444029490102615 -0.15668714041382048 0.5575537478271753
Ni 7.539343467594881 3.8880125582258365 0.7867933843906363 0.8568748929958598 -0.41889029768428504 -0.7032926167596082
Ni 3.946635726918187 3.9000847972914885 4.370856086632923 1.8858712586827395 1.0883608236881255 -0.783380937571767
Ni 4.051142798798589 8.882405899179773 12.456659554878518 0.013835620331511657 -1.2558196007961535 0.1864350611002144
Ni 4.785614065657445 9.196697483383922 1.466398438512282 -0.6422132329497843 1.6442577526381683 -1.1533156312929558
Ni 2.185695323628849 8.335040245730667 10.332880255811679 2.92000057472081 2.172398080300233 0.04973284844875306
Ni 4.881788004424046 7.680048467195094 8.249525577348416 -0.42608475855019523 -0.8602726058234991 0.13625509781171372
Ni 6.65560859429627 4.469349586353072 12.040648317728428 0.33016101336767656 0.053080167654431167 1.106014789324463
Ni 7.171050926076047 1.5553365496303495 1.5661968674201503 -0.2190194227941389 -1.073905310384428 0.7757144221654447
Ni 3.0249367150481365 5.618194587428835 6.995773288529063 -0.16241787225001061 0.08336236357774031 -0.07587068318638546
Ni 5.1622397402900795 2.8836492416564288 2.348140687759666 -1.6099412387444854 1.340420207656369 1.320449420961397
Ni 6.980535022564481 5.759096876539072 5.399642905069239 1.9059261204510853 0.924521131389924 0.5551662214316051
Ni 8.902726718712072 3.3881748872149697 7.775846616418796 -0.04952330354110825 0.3844688827816218 0.3969315340250067
Ni 0.31516529489139095 7.35914298703591 10.801842118504052 -1.7919966827197653 -0.1388513977839802 1.1464973228195414
Ni 3.7651763513905028 1.3316102452650238 4.675518063800268 0.658450263633937 1.0797003197996504 -4.3262284249006075
Ni 7.59328805647813 6.227105173266335 3.215871623900036 -0.8280854795679932 -0.09639374284040172 -1.1181061732713582
Ni 3.2629806009979405 6.469808849548095 3.111122167764464 -0.7548933716550353 -1.5187334109803974 -1.3911958955473396
Ni 8.50639088255435 6.035133085276033 9.330301000097188 -0.5531417348024087 -1.395729007531003 -0.3879959220982737
Ni 2.772039747415223 4.2830331309834095 2.2776294168776845 1.8779514896150304 -1.814867930890984 -0.09265021663756946
Ni 6.083234146767192 2.149384659046167 4.79717992831404 0.24015980431717995 0.9556343078549606 1.2934615795186433
Ni 0.7333720824458748 0.9697906786226372 10.327338299527767 -2.3419700470965217 -1.7462130487267473 -0.42135084340963563
P 3.8257066520130696 5.502075618672834 8.984444033763323 0.8092873730248836 0.05589218318192955 0.40250748545088744
P 0.5122856996194193 6.756498691826263 2.5399276994000908 0.8047259789064463 0.8878692844948451 -0.8625341481641662
P 5.319667374549328 1.0733676713843623 3.176449421902145 -0.386183037259251 -1.4584937494630494 0.4126733702402957
P 3.3040825822525925 2.7769719851657815 0.8144655868559116 -0.33056544789494685 -1.1353474768503093 0.34916969325969544
P 0.8804589279583821 8.999614657610183 12.152863772607558 -0.40122116253929613 -0.7950388335256694 0.19455640465576815
P 1.985183418276151 8.134575314070831 6.183346359943382 -0.15303591681447837 -1.2215948752853283 0.6740666300149553
P 6.148987922036064 5.459010137056531 0.43488432746837163 0.5266804552870865 2.393879334371303 0.48652702299665246
P 7.85653802601793 6.330325165962305 11.35168328556701 -1.1461224559786263 -0.268206426041751 0.9507530685032594
