# total energy = -340879.62195304345 ev
CRYSTAL
PRIMVEC
9.17420232533907 0.00000000000000 0.00000000000000

0.00000000000000 9.17420232533907 0.00000000000000

0.00000000000000 0.00000000000000 13.42737244571696

PRIMCOORD
 96 1
Ni 3.2304568400449787 6.653085697414599 7.342583886580314 0.9967537036030899 -0.1406866512205061 -1.0127007138506494
Ni 1.1603531174497874 5.564126222912267 6.808872828086758 -0.11090016398669288 -1.8005417440762992 1.1390570644914124
Ni 7.818888291080114 7.841677009800427 10.337546290805857 -1.0751890621928581 0.3138617619870207 0.21373169203263837
Ni 2.4902546691468035 0.7243537362808877 2.403942855703735 -0.8124498299132652 0.8665463546473527 2.110115163100611
Ni 4.799685809317205 6.83190007606904 13.359953321461282 -0.46300040062962194 0.5549170815352765 -1.1084046297128782
Ni 9.3433746753286 3.434215874979828 8.603293603901886 0.3550125251937177 0.7718675376155287 -0.48779971906148883
Ni 3.3530425322916897 1.8035839691556452 0.4817676420191011 0.3083439174925851 0.008243470955714835 -1.1183542847264223
Ni 0.48864278928520544 3.559838228215438 11.060891782244813 1.6960320569969822 -0.09987887317552475 0.7814608377309187
Ni 6.280741519482775 5.7397663275420605 11.437221233691977 1.9716427459226042 0.5148022157922618 0.5629191259041466
Ni 5.4568614486458 3.6666718149698876 10.442104675369231 1.7605451490787034 -0.6759057401062231 -0.23123679079593726
Ni 1.2389393350658124 2.6302163007076347 1.4732246110111176 -0.5290944640452179 0.6713813698733082 0.3507936020163636
Ni 7.800530712110972 2.5368687914567527 10.07885396683981 -0.9542986197626727 -0.9706937732912443 -0.06943701174589977
Ni 6.851193423681287 4.7594569318660875 4.455994500269151 -0.7697816016207775 0.002717913151795319 1.2625114109940323
Ni 6.436207553071518 8.617153988862695 5.865116206966883 -0.43605292550650065 0.3430111298574673 1.0254585277369501
Ni 6.346804950845488 6.165284182487949 6.6044679293041195 -0.7147635935136851 0.9089608150578218 -0.5907425758743181
Ni 2.674894666314691 5.147690828325923 0.7293307410738709 -1.2614688286621307 0.6916704591396475 -1.1643047833146076
Ni 3.225933958269973 8.420532483382114 12.13571289345412 0.7567332530772516 -0.024772064738357337 -0.3626368745081948
Ni -0.19577931370178644 9.29374224043452 8.353732363568016 -1.0708629240136784 -0.8179604753188493 -0.1929911170511773
Ni 6.964779223389904 4.430470034398113 8.322903373878908 0.28279640804078393 -0.6190136549048695 0.29410154864095794
Ni 1.7329976560179268 8.93362727427974 0.49393355179970017 -0.7747685133124076 -0.15367997815638051 -0.7924633594890094
Ni 8.996443037998736 8.953324286796855 12.57626543126589 -1.3010005682081658 -1.3512268113535697 0.20239004176757402
Ni 5.930131026997176 6.483601482584054 8.914499979730632 -0.5234069267421373 0.5478617173503919 1.6299408217948639
Ni 2.540584343422021 4.138253340082723 5.345060948720988 0.220869074408368 -0.8725758486708842 -0.2755073305785384
Ni 4.7209436302606615 8.451999997557104 7.782827253771765 0.41198560014465174 0.6228060320677661 0.18847163191426894
P 8.960351725822523 0.4862006166107499 6.053207539071399 0.4671241929900084 0.07175357569421836 -0.23088917764853137
P 4.312554011164542 5.516622202971131 10.981899147463203 -1.5059750828734644 -0.674876013290128 -0.6975210043831536
P 4.701292488755464 5.199956259304035 1.324707118307547 0.9058284400764269 -0.2780252119043857 0.41968451145080626
P 1.8774087757346969 3.403280464543074 12.92278514690874 0.6755928368514945 -0.5429419114512714 -1.165725060700902
P 6.154587062508929 7.220207366147944 4.100437277858434 -0.10377923667119546 -1.0093773059043714 0.5924266484449604
P 6.982696440644642 8.107967408180388 7.9590077189219395 0.05532371227296924 0.48883510230453875 0.6658954070580725
P 1.7152547486084715 2.876974822213382 3.596816685762124 -0.14799706883899025 -0.2315072708485045 0.674710177136225
P 1.629723659788228 7.022576698405191 12.673761514834537 -0.8675557697484737 0.26321077259937253 1.0719926667427473
Ni 1.5568346218522813 5.05593963028975 2.906663458546235 0.2014690726152014 -0.15496912928144924 -0.6644190796228622
Ni 0.9925936526673172 8.014812557179557 10.530229311203254 1.8918261907145932 -1.714800852964053 0.025486317196562563
Ni 6.127403900846977 3.7876244991923573 2.345506856202563 -0.2589370849246831 -0.3078289255293795 -0.25941402456110163
Ni 7.84231002976488 8.041124169615088 2.050883768602012 0.8563622150254994 0.22748426573204047 0.5026789501661665
Ni 5.439604773962663 3.8114223801748426 6.289139584344521 0.5860138029400811 -0.9496876033532226 -0.11379754013914595
Ni 0.202304923857084 3.0004045410793645 6.294900066021045 1.051145648090409 0.23704079907222406 -0.6125167343266161
Ni 6.924504474926869 5.811031531656149 0.6997072415779398 -0.17356103335102366 -0.24486055222695896 -0.6737694104895106
Ni 4.1803262322129 8.25216752124234 4.0668963939448 -0.03029993653512201 0.6881413629404665 -0.41416743828731895
Ni 1.489349189120145 8.753124842386756 4.546307183371611 0.6608691574880747 0.49084621919729665 -1.3541074753354743
Ni 5.4180453983617225 8.214874388553906 11.057293660070052 0.4947594382087737 -0.07450105653236846 0.2770754463966067
Ni 3.207814908562799 3.3712349756179307 10.68135411222418 -1.6576323741728611 -0.4577430088854245 0.7073989256184978
Ni 4.325049274810705 4.546835617428894 8.476364844246882 2.681298071675447 0.513125085200155 -0.7510685985923065
Ni 8.61673197555306 3.38776688831278 3.2527813441246933 -0.014439058243465457 -0.06919481382810665 -0.8300323188817189
Ni 4.450176221117611 5.77321546943186 3.431418660673136 -0.024676419700757502 -0.6699328103522398 0.8602502372259959
Ni 8.960048977143872 2.1756712694207345 13.073654905103407 0.24975721819762792 0.18028189701462502 0.4868198716467229
Ni 3.4813162300160965 3.533315609125089 2.4119189072558442 0.7093516784694944 -0.685449160820284 0.3582734553331765
Ni 7.010145654175713 3.4557660763783855 12.53771543285093 -0.3810236045454986 1.330140937217548 -0.26475600559930534
Ni 8.949929831915005 5.785756604089939 12.299311857455725 -1.0183854229402527 0.07290800101363573 -1.038739304006256
Ni 5.00180266202543 1.4790740824507602 6.421184796668734 0.19256765636051354 -0.49817874830296777 0.31927393414152755
Ni 2.0638102197601933 5.59552034346819 11.128203822551903 0.18700970265676178 0.04269085400030712 0.17937841136374913
Ni 8.497797615854932 6.246026337664069 8.46066778396892 0.6093118542360731 1.0043415432526768 0.4218856328671831
Ni 3.4852703112433328 1.4575238810522029 4.461244896293159 -0.5569330835240409 0.6113653943309922 -0.0609963371777143
Ni 3.6501123796678883 7.220234888755094 9.792771144237948 -0.7084214533457412 -0.2775071346173866 0.07400123407781449
Ni 2.1017914176273824 1.108656487019446 6.446830362011232 -0.6928097149504132 0.4225070685012659 0.6018003763503764
P 5.83739818930598 2.644271178758972 8.38034580726196 -1.6977462114746116 0.6497871886423002 -0.2984477414247957
P 0.7031365584288468 7.153263211356427 3.2085644408975207 -0.7056315493054298 -0.6795191684890942 0.17525333345178204
P 8.104040849560302 3.9542280144745217 0.9724893055643803 0.6789748659498501 -0.08585864763703277 1.2313681526220084
P 1.562008871996507 6.624287876133172 8.81327091321219 -0.8067239831730816 1.134025415604776 0.2954472640355751
P 9.125826814211532 0.6517344198950122 10.551269426949297 -1.7061586039080228 1.7196067589931288 0.30797496418894055
P 8.021922564026676 4.774676933620113 10.378835706052495 -0.28797332425603306 0.3621923307716085 -0.5535939918484788
P 2.2930001437017697 3.155778832644273 7.318199774065532 -2.7008220006409873 1.2693842268544655 -1.6951684234451063
P 3.913558775309002 8.801417843732864 1.1820381796233805 0.47552141591476815 0.2788762470507713 -1.4198742373186386
Ni 5.435852525187862 7.527653236419744 2.156301775928706 0.33934576519073817 -0.34126869324506387 -0.8340465822474346
Ni 1.7894006522709414 1.1026198618511827 11.770824589799266 0.45090438869703636 1.3260973632757938 0.05584127533933609
Ni 2.6257759867540793 7.457121968496326 2.174898801580054 -0.0542163381414034 -2.1112099388266867 0.8424394342968201
Ni 0.9469886926195397 7.750512960716789 6.430744315552214 -0.6184148449786059 0.6385427260767326 1.1553701998291392
Ni 0.14822116596658758 5.037508657701541 4.782803442091311 -0.01086008264295549 0.32631258615586384 0.09217584810431223
Ni 0.18814454247833837 6.508417700031094 1.0636616114301634 2.1904719070828085 0.5248241188046381 -0.5622930622843735
Ni 4.829712973718006 1.4139647681359189 11.59475146281698 -1.196172578557482 0.5670336622931524 0.7016149719468691
Ni 4.360718573677283 3.77821176754701 12.730370930641175 -0.031926416394951466 1.0207829766381515 0.6560753356438572
Ni 2.257358367442342 4.655944406374421 8.89747357752732 -2.006341839966687 -0.33453728805850125 0.44915732409894255
Ni 7.284335040807764 1.6454390684709566 1.7631349108473269 0.0466161571966423 1.5631877846390303 -0.05612049714265173
Ni 8.071041243587288 5.7479680644728015 2.8149682231445996 0.03208685323221571 -0.19323511474118332 0.0055468979601581885
Ni 2.1896435796506206 8.709657471494307 8.35433694350508 1.0401557247378086 -0.24957029899780242 0.46585201114580416
Ni 6.613242136463584 0.15588988173885415 3.6413693647965277 0.2765627684262463 0.3953870723560223 0.32937168469716177
Ni 3.5716821234923803 2.265972943480335 8.537902641573874 3.1527635723532863 -1.196220401076282 0.2668054319291663
Ni 5.0082062552890285 1.1986095413884779 2.409904252412454 -0.9485398629020244 0.9032881901530766 -0.5655002563677616
Ni 7.616597128526605 1.9851139117155674 7.502115009245132 0.015309376663560734 -0.5220319007714816 0.26624570277095433
Ni 2.4550991256136947 6.4542073381477065 4.669221312063648 0.12138897933315868 0.5970860015938426 0.9409684783126698
Ni 7.043649841279813 1.249040131889913 12.02593071805365 0.3514296929384657 -1.7682492025911805 -0.4463504507777668
Ni 8.12561857356601 7.317417214602228 4.790241885383755 1.5940839599972547 0.15140146653484893 0.010262044047640391
Ni 6.021616173164232 0.83476250970414 9.410883043566695 -0.029294635199059223 -0.9483603999013666 0.0014169349521846565
Ni 7.594826746270845 1.9063258616471077 5.12932315773416 -1.967671419979682 0.38139410051103995 -0.4905065764696907
Ni -0.10470241954079053 1.0297583465223858 3.5752664843635666 0.45723753000391576 -0.004526684225759946 -0.3087725203895715
Ni 1.546733825028181 1.5589630368052252 9.342981102046354 -0.5273867373254917 0.719637890886851 0.27991240162476955
Ni 6.29845690428508 9.04866259796493 0.6171155672013312 -1.1622412159173596 0.37804909529820696 -1.5961238732454188
P 6.889037008512726 7.509213089629152 12.625839151264715 0.9056276369195306 0.43115240288108975 -0.42389494998772803
P 4.388332922851253 5.519126760221793 5.712125373181178 -1.4151218102353178 0.2871444005968345 -0.1538026197771738
P 8.179168392877793 5.131883677619363 6.59100020020532 0.7554327890982732 -1.2371526205142693 -0.6490284560994047
P 5.540631090608434 2.249468553392636 0.3817670011997924 0.4299265008937886 -0.5888150198343021 -0.20176474947874926
P 3.6362318114618355 0.6810542532920535 10.003916329511656 -0.6642352457468301 -1.9501218411316932 0.3547027072627827
P 5.430880107496069 2.4128610978406173 4.342398608937913 0.9863353364832432 0.3407382746628906 0.023870378859694372
P -0.11169683143787874 0.6641480331399624 1.4571523258556758 1.98245500604676 -0.9090724009350215 -1.2718558283234096
P 3.3565012065902238 8.570677479588497 5.962492108484308 -0.04201362542762442 0.05881398481441484 1.1579868115163798
