# total energy = -381174.788125126 ev
CRYSTAL
PRIMVEC
9.21536198453110 0.00000000000000 0.00000000000000

0.00000000000000 9.21536198453110 0.00000000000000

0.00000000000000 0.00000000000000 13.48761376742501

PRIMCOORD
 96 1
Ni 5.799992047363882 5.940176130862324 10.982761279126583 1.3013492097968362 -1.375820955753166 -0.8803994584803612
Ni 6.072610095098197 0.139690140106677 1.3491391024627684 0.4296377660087762 1.2239710888269888 2.1698094936374503
Ni 1.624391822131884 4.931103230586501 12.900673432597248 -0.5055940669304325 0.2858429081765916 1.131034451297252
Ni 1.9464779319369074 2.4800842408307897 11.919300988315902 0.6763824226323254 -0.9440849124544644 -1.6051451029074226
Ni 0.8355236778926547 8.402788045745634 3.1107559554234014 0.46675189725225424 -0.508698416887369 -0.3422331140408622
Ni 7.547381303262115 7.859247576845749 11.532219853365852 -0.5971783041973328 -0.15058951215651484 -0.653615561249455
Ni 7.477049662106442 6.28222271429722 6.43860924688894 -1.6246582332396857 0.5144818563383655 1.8884333629829606
Ni 0.40203858866595393 6.685864775914049 11.359456701343085 0.014393035496878436 -0.8164381251370519 -0.481945317163241
Ni 1.7055146519397184 2.7970742555677983 0.5406293361114842 0.8818297631689844 0.9936809782150371 1.5422849730480923
Ni 5.991828233676467 5.024427199399853 13.439678100425747 -0.27000234159990916 -0.5407042803700043 0.11945756663840072
Ni 1.0880209047020084 0.2713472493439356 7.925496812729939 0.37286189467031267 0.7169991677124233 0.6460308069236617
Ni 8.535691993432627 7.501101756369584 4.902032450294351 -0.11201525142774257 0.26628606909058655 -1.607934492727102
Ni 8.701043229970393 3.7544397608587565 0.6900278598603915 -0.8392245269039482 -0.2020146607060263 -0.14776489822352618
Ni 5.349416148167671 2.250059595274348 8.848063268842168 0.028051249710261367 0.655789171862006 1.4532690107290003
Ni 4.515020430557701 7.414311479062964 11.822243876442778 -0.44902388384487185 1.0282826274493067 0.7424160651236311
Ni 8.732762505240025 8.686344727920696 9.553060562388785 0.19077225502298759 -0.021613207394401486 1.2503212966857435
Ni 4.7637153990938845 6.161271090847507 7.123671869818686 1.6833205229675845 -1.8090065870142007 0.33247757731599514
Ni 4.438726450326068 5.354761058003923 3.4273506311397637 -0.5901432517274223 -0.3191790604348761 0.32830724798838945
Ni 8.213052961920404 9.187641978390602 13.594030802671154 0.595340993878278 0.200662517553506 0.784396780430791
Ni 4.055385830725217 8.713815721406684 0.34394494796294495 -1.0015863491050427 -1.1412103633889892 1.8855339299479785
Ni 5.456885697323522 0.16991099754980005 10.12710756494718 0.4281987195694045 -0.4552593232316224 -0.4221409434110988
Ni 1.9753773064998255 8.081890717611088 9.798562408065898 -0.6542976749181442 0.23622601648041253 -0.19410723293349152
Ni 4.551817370171773 6.597627686806925 1.2714637394993176 2.0303148058425164 -0.3155013544729728 0.27625500737784037
Ni 1.011745355193949 2.96087731132541 8.013125687959144 0.46208277391135905 -0.4984232602136061 -0.6979069269676625
P 2.3819774992501688 7.727854948491768 4.96145863231171 -0.3489195249221023 -0.8670317789242037 0.05029103494506823
Ni 0.7335649150852164 1.4446277597598034 2.118202512686319 -0.6467689706412667 -0.29864957302295664 0.45725038551972225
P 3.1622421817253863 0.7426835155731013 2.0873292076287018 -1.0977042125762384 -0.2649514094395631 -0.222846509849713
Ni 4.072858156672695 4.065836050991272 1.0780139433378908 0.10899960452987034 0.6930755670172902 -0.16081196121547142
P 7.94639725326205 5.372224168589616 10.408998109711217 -0.39187314566549286 0.4761672770288831 1.2568516416050934
P 2.3089549724527956 1.8128091092216243 6.327727249263494 -2.259921003013566 -0.2535082005996279 -0.22587321249117878
P 6.438192712536183 1.294537162340719 3.6555340474112334 -3.6116157551424894 0.8638829488825768 0.7739275054683511
Ni 2.611071393266159 6.0205340856418665 8.31968575622603 -1.4938068229420467 -0.7302709451206649 0.6784292778590252
Ni 8.016821048035588 5.734645916934784 12.88911368277208 0.610341066831536 -0.6694229605953568 -1.3464371032744102
Ni 3.0511417800255964 3.3170879058263796 9.935866691006012 -0.7452771887215099 0.04940040480999879 0.020729262127551395
Ni 2.362643670221788 7.535180164256597 12.713370282747514 -0.5425598455215043 -1.960390827157869 -0.026418856313160953
Ni 2.73587503794269 5.362317654668972 6.212070772696386 -0.6396608988415758 1.2426002738924018 -2.9038928705256697
Ni 5.843663646870792 0.13134470847269142 12.558155022638875 0.46031951136334914 1.3674898101796513 -1.4298981972135438
Ni 6.308044158023398 7.084742495487184 8.902769342552407 0.3279508930902352 0.7435149546147647 0.3965610380594654
Ni 4.014488055116087 1.6919312086662042 -0.013619383184482393 -0.22168694232397304 1.4279865820131277 1.0110631782472264
Ni 7.77764554822501 1.229697876809886 11.466952975048118 -0.14584994058900042 0.26345579873064306 -0.7625354615813255
Ni 1.386441965438928 3.5323126803534697 5.482957798890297 -0.4037734966475046 -0.7453008428705938 -0.03979142096532502
Ni 9.211666426568385 5.2775916184025595 5.308778245760924 -0.745946961095025 -0.18042176502659896 0.29893342281196256
Ni 2.5453935098127416 5.678201825991584 10.965254856340493 2.425686451579571 0.8653590192074708 -0.39227680886181476
Ni 3.6224481339886423 7.938693210808414 3.085480061114992 -1.0511168517350025 1.0775112825681314 -1.4066052881238742
Ni 6.022930079706394 7.373321549835968 3.0484573451371464 0.6052621096467319 0.27431485293233404 -0.11122540853659554
Ni 0.8674678079898804 9.09981036520209 5.71269216055046 0.9107958113840315 -0.14503258689402765 -1.6582872341480406
Ni 1.9948677966785795 1.3484931056015244 4.1238375380764145 0.302939201537246 -0.33322602544624547 0.07986077818238504
Ni 7.532093018058071 2.0864500621142557 2.1687681243458177 1.0280545705989004 -0.11870526185340848 -1.233118816764528
Ni 8.081024473603144 3.471224047069801 9.276631962555694 1.1306966083418593 -0.7040297520359489 1.3449831444367029
Ni 2.426220451187851 6.327037018665674 1.5701474380471565 -0.5776744298364502 0.27648949198614964 -1.0802844744378943
Ni 6.354563304322381 1.6822090019812939 6.91821537878544 0.967928037620649 0.4240944675930438 -1.0613339014773204
Ni 3.4783198756455174 3.549628345150575 7.423501959372785 0.9171829458572979 -0.2581716675135683 0.4229613824298651
Ni 6.258530019143755 4.633382537345367 8.64461572667841 -1.4948092960646322 0.8824522272443319 0.032688491371956604
Ni 3.9693788591704604 3.7085288284376916 12.188122306994117 0.2850448377553284 -0.09815957649157288 -0.9167605136078985
Ni 6.651233446319839 5.586960528942013 4.411757694057452 -0.10836402782840047 -0.7494284918857222 0.18780623041612818
Ni 0.7589449429818148 1.805188005024069 10.045682471272745 -0.8502039087335874 -0.7037387031580912 -0.3626168199035368
P 5.620845414231507 8.262963361356872 7.295490447258322 -0.5927660340622501 0.4660443296622683 -1.1151432339882923
Ni 2.9948635655945566 1.2194688252267103 9.19466777021674 0.21855739555605586 -1.4120310871251358 -0.04432479005930431
P 7.90398815831991 8.232165622265907 2.369759772593435 0.8414585584407894 -0.33843816577480423 -0.791197091182076
Ni 7.313172883454537 3.1009784565677716 4.912337067844177 -0.7225884888747426 -0.21830285634308855 -0.9358342424098979
P 1.0188503991314524 4.731461632840628 1.8584316008187667 0.7888990391765187 -1.055446589458608 -1.1652640619040835
P 4.903613806376939 1.8787726688904278 11.41828941406138 0.9948544296978479 0.23200477931021332 -0.6451142086466631
P 5.103052666163507 4.4523467550467295 5.536300920592292 -0.06832603806990813 0.7544192602320942 0.1225716867873502
Ni 8.910683495254776 1.7277513199308925 6.142811799652678 -0.4691432803025662 0.8732682467522186 0.6940962949723208
Ni 6.554951346372974 8.94490013356859 5.225169111343053 0.6946202857965909 -1.9617810226371764 1.3916239842236937
Ni 7.851755487713207 3.847026500729177 7.0676710377774254 0.7681180978754255 0.49142934539427624 -1.1214992581133072
Ni 3.4483423037535617 8.088802238951072 7.216453053822805 -1.517287165452174 0.8081895119750145 -0.19352204985398286
Ni 0.8167271044564353 -0.3228749447739602 11.677117594418162 -0.9135021545716009 1.658053777980996 -0.1448739498289763
Ni 4.537644143743914 7.3761322351808944 5.058542468734013 0.7773882103234419 -0.37044480058838786 1.077704372415544
Ni 8.285264536880552 0.6523444024424434 4.069078015267814 3.2087809682591706 -0.06081764550800494 -0.30939395602365427
Ni 0.04632746677382088 3.41796847130478 3.4433475776652003 0.6574843001762418 -0.903364809027283 0.27171058254026753
Ni 6.5332860308125715 7.456434897789718 0.15218893529790337 0.09226892203875077 -1.4056136136345663 0.6780585247831677
Ni 3.3703803430385464 0.30136721190010984 11.603488696815226 -0.9046351910992743 -0.12105884968724959 -0.9648200881192868
Ni 6.435216150679097 2.5504527434336093 13.57069750662737 -0.34826235095407765 -0.1680581012549235 -0.53328561930843
Ni 0.2046824006431683 6.887542968614772 0.8086701136463716 -0.22793060924083974 0.9381415503868358 0.40863776671834146
Ni 4.069918456262756 1.2189343342430847 7.028341716744382 1.4883177748030174 -1.0083239249391924 1.3330786796896332
Ni 0.7697315239530826 7.200975853702136 6.935600158795946 0.5765302889296781 -0.6104799064022454 -0.007712538152909299
Ni 4.639206645994527 2.284958170360372 2.414039585978263 2.385361269597963 -1.5600171002205327 0.6610846159329906
Ni 9.081785117547412 3.6223283342854162 11.560193084069212 -0.7517180592508473 0.2431559108310264 0.6634415462009412
Ni 7.672728654284057 9.023691476844403 7.512694681497184 0.625667155665645 -0.5833645382426921 -0.8038937128131382
Ni 1.4444434525240704 5.955685584749247 3.580678585154496 0.7871378335110379 0.5062085605859798 2.089310310540118
Ni 1.6662940721757582 0.24561335155472996 0.30275504538517856 0.3893454941476327 0.23142885220208528 0.7181337955374987
Ni 2.665782996193469 3.2000435957742033 2.663412805141945 -2.592934655338689 0.9479680495589544 1.0098197927584287
Ni 8.46341591093997 6.463120266169057 8.565403241368948 0.6508832499199565 -0.5126064936925236 1.0317369045464941
Ni 4.66743329914702 0.7534111182289346 4.825854583621231 -1.8776797240108825 0.7992796110798945 -1.350837803445267
Ni 6.3934521310620225 4.057837116960465 2.266593797391946 -0.26048643168967395 1.1509733563130242 -0.15103482722404957
Ni 0.9461872714437578 4.8142155816846985 9.66866358985753 -0.850453048629916 -0.5504942698772326 0.2496978257146022
Ni 6.4037733362630656 3.6824217084961273 11.219523275685239 0.23179651995414918 -0.9968426637724704 0.31931481468179207
P 3.8796765275392597 5.621564212450865 12.993589160883452 -0.9567900187259585 1.7055610795333402 -0.2942578717131642
Ni 8.467793207788628 5.442270133529903 2.8015390983534276 -1.672853304887674 1.6896446654133999 -0.2588512100790961
P 7.856916090313728 1.4205480194113005 9.056932208345009 -0.5757877543366987 -1.088001640576494 -0.16685842451986746
Ni 4.029324787592585 7.229856797541481 9.46455530625367 1.8497557439071046 0.8562246610063706 0.9919249147558789
P 9.370640632749794 1.724830050244526 12.92921248651431 -0.6930969071735289 0.2804983560352266 -0.01599149033224988
P 0.6351844772595321 5.044083566090767 7.556030841835059 0.15472281759859804 0.09519226633313282 -1.756283802699188
P 4.220617267559758 4.947654020355316 9.490896496384616 1.038107069738896 0.9607153219222938 -0.61416018346731
Ni 3.6240884683866654 3.0554822154271064 4.806729021769229 1.1549523955654304 0.3660541277198599 0.48405182198328245
