# total energy = -340865.32224973146 ev
CRYSTAL
PRIMVEC
9.39152644816665 0.00000000000000 0.00000000000000

0.00000000000000 9.39152644816665 0.00000000000000

0.00000000000000 0.00000000000000 13.74544826693345

PRIMCOORD
 96 1
Ni 3.364288960109276 0.8654235290031815 6.788478015176687 0.2908113079254604 1.8938681608452865 -0.5148688073641392
Ni 3.1528950908672337 0.8805128945774491 0.580993636733839 -1.801101987455143 -1.4006074186692268 1.2717696963675067
Ni 2.707764910918544 8.449603319845895 2.8140093715325816 -1.24236861749757 1.190698185706472 1.1157762395866009
Ni 4.812246336186858 6.734034397095785 8.66716460451871 1.0028826993189632 2.1295971830846225 -0.18558993949109973
Ni 2.1274530990061975 0.8093626900646893 12.035706986964817 0.7126285494485534 0.6288707502046074 -0.28809416610461347
Ni 4.928504042319837 0.6446287417678355 8.641131293152638 -1.2189517812355266 1.4811161148482557 0.5958788686596188
Ni 5.234433016977063 1.8679840057804153 4.883895230755006 1.1238235353711097 -2.413920312182578 -0.43924443586060485
Ni 2.153627283269273 6.89057236024503 8.141992322798458 1.7613054242834958 1.2082431365687707 1.2009278338542801
Ni 1.2403013343693412 8.73457979895561 10.45563994723088 -1.0779758809093758 -0.9418858479206165 0.6509272157840144
Ni 2.7346528511930996 2.2997594350932626 8.899985241394841 0.5020202335362451 -0.4862650275845174 -0.23986644144647726
Ni 5.389834605423821 3.8372650160321387 0.5520696135212733 -1.7560596025035238 1.1560664545652155 0.5697672591742315
Ni 2.661521034595837 5.2272578907564 5.694807522686723 -0.4757895819744903 1.0188317664490518 0.44948231153852913
Ni 1.952019384605676 7.55366108643608 0.974560579769005 -0.4401564061519129 -0.10747134081080201 -2.023773919400205
Ni 6.629854193999158 8.733434032726654 8.037499381870488 -0.5990904336183811 0.4413843650217431 0.040104324220053514
Ni 8.685396374848782 4.925564494535717 4.10143550740722 0.30698920323690354 0.25010097469029186 -0.12852739015015283
Ni 7.647012859516444 8.911516157590825 5.915916926058709 1.9792431839776814 0.8906453045780854 -1.0235302003659856
Ni 6.569898689034868 4.88632669695727 10.07561934197148 -1.384200695176429 0.6708175269500383 -0.09296903342956891
Ni 0.06838909573150957 7.639236675601902 7.029436409736332 1.3447540591450324 0.255189959177425 0.5598669693413842
Ni 2.5574441382903457 4.205891821381971 3.535480522004727 -0.05959560017544575 0.11345044121237235 -0.1487041222083439
Ni 7.897052860169521 5.695866886872183 11.67365143268383 0.6921875079853821 0.6233667896672426 0.8505047278034578
Ni 9.221436530996456 6.370225444823439 9.477678695728235 0.431260903434496 -0.27339388377996143 0.22312238921891894
Ni 7.533572611323515 3.318815188956849 1.0136020944442945 1.8109143455598748 -0.1256022460835579 -0.568190401605415
Ni 5.695106173228369 7.931275582614676 5.845938784049011 -2.0184928735069234 -1.011445758397626 0.6971458804319219
Ni 3.806160280373973 2.2472795851965754 3.041674999531066 0.059942956212535474 -0.24447771496624351 -0.771240445554491
P 4.918239103891584 9.113593632577764 0.6463464519586201 0.60925760395937 -0.6843808674567697 1.0743804502486336
P 0.20831063110297918 3.0285606719727745 3.6547914133920756 0.20911964718192372 -0.7462521510402697 0.8018771966037416
P 7.877922320756574 6.856330854746941 1.8398422967225374 2.4698019538415465 1.7776368144536674 -0.7211065050125774
P 7.155507321874511 7.044067468819018 9.516565250216821 -0.7809941825071454 0.46282222318054483 2.556898844761055
P 1.063458890998794 0.3902432818185523 1.8314434546032445 1.6200803840610163 -1.4508783990096366 -1.297212047700011
P 4.967572792421881 4.428057771481475 3.138828462525205 -1.839289554268458 -1.2665187323812124 0.3606522399779982
P 3.2272384143787187 2.934307312351595 0.5987530132826283 1.6988384160975258 0.4290358707587192 1.2809804163324972
P 3.7863347680024795 8.424659425549976 7.788115848917442 -0.5013545749277882 -0.22601822270947527 0.14185084673193635
Ni 6.629224961725879 5.370262664266932 2.2767408037230443 -0.330247916654528 -0.3702643091464656 -1.3928827963314592
Ni 0.21928556893212528 3.9032029233558037 11.436501302106487 -2.0094112229206296 -0.8722320921782204 1.0245236746275066
Ni 1.0975407405469466 0.4358466560362211 5.246458866617849 -2.2279246526126277 -2.3190484053033416 0.7253048593646412
Ni 4.355170134572351 4.204849361944152 11.22515157303884 -0.9812414669001036 0.1570769196530714 -0.1945756879294778
Ni 6.8634871979146705 3.3685151470193526 3.370493941645915 0.2510155160847612 -1.4210302052999526 1.006577888782363
Ni 0.6768069289011602 7.047072757288406 5.009294648750806 0.4683891757453611 -1.2911966947438667 -1.2953870786761306
Ni 1.265949593150274 2.7901661641385753 1.7450395328030477 0.14259081022175443 -0.35483100531053086 -0.2970994549270174
Ni 7.525430157876767 1.7448517022737111 8.397149766223317 0.4254494389590414 -0.735063995633934 -1.368806729218862
Ni 2.0958881785511574 4.0026779716925445 12.96712571160311 -0.5754188010330542 -0.288832844042851 -0.47987737889061866
Ni 4.517211532231163 2.1446114178611095 12.734869505467637 0.07624452158603644 -0.19990841299630088 -0.3442534869050007
Ni 4.352775295323307 7.041757153308176 1.2601165160617211 0.6092599179522152 0.4624558409800616 0.5646872735481631
Ni 5.416760111804244 7.251113061306914 11.051601798847566 1.9978605419685527 -0.20653517428419915 -0.37792336835362006
Ni 9.293732501738171 9.152972303053213 -0.29660882379153725 0.02782807795586175 -0.6572588144289971 2.055719619068866
Ni 6.204051775519219 0.06747811766422634 12.77518451113183 0.9453123571036623 0.5420140003203633 -0.7927711205374153
Ni 9.185908386372411 8.511643743685823 3.38632899442165 0.04752658482605363 -0.3827490718770376 -0.4299110742748209
Ni 4.478340004184923 3.732549495926902 5.743947745771804 -1.4336080419649633 0.5793140223224023 0.12340960930761327
Ni 5.802883330961795 2.5808384307192376 9.859184101322041 -0.945827606177184 0.08750801031499768 0.07667081049017764
Ni 2.1007905553668462 2.2797648752453656 4.936347845224939 0.7810602598583903 2.7984161915473935 0.6728656677283186
Ni 0.5866229176980613 3.7548168051797735 9.103940082522502 1.0445983338901945 -0.1720253134327876 -0.5071827515737911
Ni 2.6568064883094844 8.189260814658699 5.867959096155804 0.3443133936086586 -2.1089283418813616 0.34911235765919874
Ni 8.330856859199205 8.369643863507243 11.589158686519635 -0.4460722574157156 -1.0263527574164453 -0.0029539404220013644
Ni 8.54770720531848 8.866634052605809 9.40492441849494 1.2271541145406608 -0.3044047303391789 -2.204257905123307
Ni 6.789481969355992 3.674190550461975 6.0519832398155415 0.5488765317681515 -0.8032859040258101 -0.24549767159032557
Ni 0.8445668270256291 5.446831779551057 7.3450452307229295 -1.819972341997085 -2.802069986249897 -0.915875539899784
P 0.0018698529195473159 4.260334500310227 0.09471730102864138 -0.36421373207701147 -0.8514758334674756 0.1909828283718969
P 6.964878117650646 0.29417735758927305 3.9656716008026187 0.08258563331271584 2.1969210051422614 -0.508326378259931
P 4.742880521702798 5.893736958001979 6.018705304932951 0.1600851103517759 0.4720095461067677 0.8348839905470653
P 2.276731412196577 6.3605146064567295 3.5740778174781354 -1.131476166820361 0.25238668540067505 -0.032654295699911504
P 2.181811254196252 2.9759587322320185 10.867728858763943 -0.49391277393776223 -0.07066419928478151 0.71374183711739
P 5.692241757655984 5.619072374952854 12.412071470970677 0.38076315179526043 -0.9227624968276043 1.06315629939804
P 3.2760649604798058 5.491563620112604 9.638088785239756 1.111491496168318 0.630485660100211 -0.9704114661641352
P 4.623270040621157 0.7266796910506533 11.07202742976029 -0.48149331722748695 -0.5292808690244111 -0.2785209205938816
Ni 7.149045951665326 7.217923406773112 13.400121100204 -0.5157129005319893 -0.4798658089263929 0.7090811984169271
Ni 1.5707515846314803 0.013055160941550598 8.341673080231061 1.506061986160316 -0.14251393423723197 -0.3108980513730065
Ni 7.0972047255683846 8.894545669265248 1.5375112158547561 -0.2001189863452102 -0.008621166010107734 -0.5231457026609507
Ni 2.8626687484625593 4.912538447326214 1.298218878090327 0.6310567021123324 1.1024725804991593 0.13382643376556308
Ni 0.674533240343539 5.74279634462697 2.026203052167224 -0.7213672148731318 -0.03759724152748364 0.28296892906290616
Ni 6.580013363039651 0.23996758851739453 10.28523821271129 -0.015129656552586848 0.07084803316081346 1.322289302383613
Ni 0.3238188934239051 1.9355842132887107 13.26551235135482 0.08512536901543405 1.8958841628340508 0.1053164992513283
Ni 8.606366679630346 2.02541416394401 5.799012143752165 0.4404873071287704 -0.2629413209880697 -0.3401548913555948
Ni 6.877781101197196 7.660818403422694 3.681072661056873 0.01846232047024562 -0.9818485043564832 -0.6638475233901082
Ni 0.013467448953444757 1.4359831798323643 10.535034033676231 -0.34194180805268853 0.7477649881403703 0.6198456638878616
Ni 4.30264332704333 7.151938541817112 3.9510874993522673 0.4987652169340571 -1.4966293799925063 0.6260723615238638
Ni 3.932570226617604 8.334585295206539 12.444276893530756 -1.0705695611429755 1.6423697915868358 0.8939769400544798
Ni 1.8270275588585376 5.430368433654691 11.11204002827225 0.4212443997387584 1.6549095759250596 -0.3201596791805906
Ni 0.3932861363938076 6.2983614842992 13.299669333114707 -0.44012529580366133 -0.5349437237371433 -0.15470481987646906
Ni 5.058247980459195 4.666818548847882 8.111601343151772 -0.13871924308149014 -2.7622929634622753 -0.9812183269716521
Ni 8.656705261492593 1.1452309119455466 2.3021702399372996 -1.8175974140070053 2.6581584003341896 0.667769998372966
Ni 3.544418437743216 6.086930048951291 12.990823350336882 0.12989444570100855 -0.6771560675735565 -0.7038891126930266
Ni 5.879555753037055 1.7100560967140785 1.6569996070923276 -0.23725625751713977 -0.14883396291798884 -0.38253104232896057
Ni 7.511511915652914 6.7768785408374965 7.5392131621194975 -0.9880690313448983 -1.7929924709741312 -2.0046711371324832
Ni 6.467822187866814 5.687865306322438 4.6294947443633765 -1.1631835252259708 -0.9227892363004816 1.599618773772555
Ni 7.80274315138954 4.392811372651435 8.17235606701839 0.23687470580800493 -0.32630307307416706 -0.4655229099411596
Ni 6.554402670364587 3.424216290494165 12.227511071149683 0.22498772456243188 0.5911871196109044 -0.6256080202929355
Ni 4.9449298221103355 9.192322798949261 2.851163189388037 0.2983929769274603 0.7017874929689913 0.9287035449023876
Ni 3.232544626832482 7.70184059102984 10.225596384730993 0.23430874485304165 -0.004398129067695652 0.007188547328639234
P 5.505923264080399 2.480527536526948 7.380467251097899 -0.2638134391803779 -0.4064721265255903 0.41336062611530744
P 3.2436266280633497 0.3541366191641494 4.550224626067389 1.19258974630223 1.3862629770220964 -0.7282246041145974
P 1.3810333584748988 7.913920041703961 12.410380057054 1.4588835287023003 0.7686006939387988 -0.36439653751177886
P 7.724990703770594 1.669306263374471 12.441637874593575 0.7992464438491139 -1.2279470427556014 0.27972136865988606
P 2.1075806290023698 3.48317629365297 7.243576361317278 -0.3856999269752454 0.426542157802588 -1.3777793650311174
P 9.167491602970944 0.2502653972882817 7.385388410966522 -1.6929986694872972 2.80831056784297 -1.0412368736171291
P 8.28989102075086 5.224759744716222 6.225918066591957 0.6861752403530311 0.3147289950833225 -0.948664818515663
P 7.975922899438022 3.116568666493507 10.006438540558818 0.2677207446545841 0.7133083491243973 0.585449702906495
