# total energy = -340888.2335176541 ev
CRYSTAL
PRIMVEC
9.09548233694951 0.00000000000000 0.00000000000000
0.00000000000000 9.09548233694951 0.00000000000000
0.00000000000000 0.00000000000000 13.31215778557343
PRIMCOORD
 96 1
Ni 6.943027479321116 1.996449315691126 11.40287544914473 -1.5364675950353668 0.09174107455973878 -0.3111785587279028
Ni 4.9473876615734715 0.4104727588855509 5.793744138383921 0.4399268066396101 -0.6697446056008337 -0.7001504715862006
Ni 3.0042287779145385 1.5616579652158031 4.843296231072358 0.6085891171374357 1.8468002608232066 -0.6636816872362054
Ni 3.417809463174112 4.695770233388017 4.80272037404235 -1.2328683913166187 -1.9507018820048792 1.4347778939033484
Ni 3.5463195355726196 3.2513894196695836 2.7885639729987286 1.1571730573658328 -1.6784200003421739 0.07835719705366505
Ni 5.280473326610327 4.845736549030071 2.5722679415966514 0.1391722714585087 -0.5182783472663203 -0.6557943140683287
Ni 5.123221529476928 4.445089639901198 11.500307167351258 0.2637424767331264 1.5629095912769793 0.22414671671837527
Ni 5.791839544346109 7.92593989235934 12.453896654322135 -0.8904905241677761 0.6830878596769591 -0.2353654682523301
Ni 1.9593215560810542 6.464705149547947 0.3056309510772763 0.586369643617603 -0.2901929576151712 -1.484792021037946
Ni 2.9783703211356474 1.6594253067269897 0.28819491110360945 -0.15318529790814908 -0.17975379242529688 -0.2148220968833397
Ni 8.246446505083425 8.869541629984843 6.950624026314337 -0.8617949560052964 1.0579865822716423 -0.4186912942996015
Ni 8.502584388076867 2.5730392385135876 0.9532411299907045 0.9302207528778625 0.28920411133934065 0.6205982257831699
Ni 7.256703384679407 0.7508821064402971 4.588235253208222 -1.693628332651496 -0.35989942097237376 -0.010476216940975506
Ni 0.9012613569883526 7.45520319500038 2.0298642993401907 0.10624415327192024 0.44211327276796764 1.920841347000021
Ni 7.608998708779583 4.108065630937062 3.8008611613853747 0.5405389584367336 0.5196184062339825 -0.2946283676787055
Ni 7.570679440960564 4.1219908146614666 12.483609776589205 1.0423136516210758 -1.1034951082264028 0.3248200607707374
Ni 8.206444572999864 7.289065111453694 8.947047874654432 -0.21529826518880987 0.11997872924919337 0.12989598836290533
Ni 6.767048083697482 0.902749377927159 0.2470524055131638 0.6755601838413462 -0.004234092686005612 0.4769879731579656
Ni 2.0926886161404576 6.341752416963686 9.010094121227969 0.4156303959860907 1.1059417699946823 0.7629116139738216
Ni 0.2264975245864608 5.244809939684533 1.5505332805565484 -0.49608638455031334 -2.334819809204985 -0.7866074149288647
Ni 6.274136599976603 2.146079098480272 6.89163800313373 1.355794376119594 -0.7069978335253372 -0.023049168509979658
Ni 3.2669426947634648 4.129658306418274 0.12267713946417616 1.0770363998142418 1.305945313807951 -0.7098869821476742
Ni 5.644929310827766 5.704068138114558 4.9246062065280665 2.983062279067985 -0.19878484091481893 0.31866689668514797
Ni 5.254978689131877 2.8216915394004443 9.212253044163134 0.5891626329817079 -0.4867571367295875 0.1644690983520845
P 0.33433811297862587 5.685558831204588 12.172917189494536 0.8985180224579429 0.1565058776409498 1.0978420237056836
P 3.9568987116035492 6.103177910699065 12.76329768290024 1.9011274135108613 1.0459638467791534 -0.1269279068735169
P 2.4184615132384355 8.776804090302262 1.1517282066361616 0.11927681808616232 -0.23607303584231604 0.333121124437265
P 6.72949283640939 7.917690289721825 5.5150803834036335 -0.899445933588851 -0.7677877111192003 1.4187923171083694
P 4.870730934970412 0.9855228165188935 12.492980852220333 0.17754495769943615 1.0013688337775979 -0.17681013641594065
P 4.2749404485671425 6.22119179627983 7.941794227924337 -1.0578605982167393 -0.39529117020810633 0.5040326359805836
P 5.077434870516345 1.4360402562558072 3.762162611945646 -0.3855209781952199 -0.23685567964461143 -0.3475738095274853
P 0.08245600625209898 5.807583824572722 3.5940035121850062 0.8747414888636355 -0.5304005844511511 -0.727256069553741
Ni 0.7142764275263589 0.3496230713384313 4.44667316340637 0.7281353868349009 0.07450465607679427 0.7022690605911002
Ni 1.8451095821899046 6.6851887410981075 4.714514203746771 0.3630019711570974 0.9597663277454633 -0.7870221338687801
Ni 5.9264799719570584 5.674498724471162 9.317991666546996 0.6627797442472263 0.00210161972403509 -0.2662726993541479
Ni 8.960159922242351 2.3140362785291666 10.041507285208072 0.15318375524625233 0.8333958360373132 0.3668593972299746
Ni 2.3725293265576752 5.5706737916076206 6.810925600878998 0.33609177702981474 -1.3091195977708743 0.00429451361029583
Ni 0.8306713172201586 9.505506862639384 8.81298137198993 -1.0052751108105396 -1.1511430491216692 1.2006272718947257
Ni 1.8789265861659574 1.3734269546497968 11.427542397714673 -1.4866763825448526 -1.5548440406600255 -0.3847375630619761
Ni 4.365085775734076 7.081478914104191 1.416879712798047 -0.05937345686231065 0.33021706341659257 0.1333510367910413
Ni 5.907233930963694 7.757373314982205 7.796091874483459 -0.33655251871631714 1.3093949629194481 0.3703776947958783
Ni 5.297754743381306 3.3442179141772743 4.919281711066102 0.024282783806764633 -1.7966552645376994 -1.0680989881152958
Ni 1.1992393690808385 7.781485439118977 7.097816219790524 -0.6277785455816931 -0.6017502398387313 -0.6789738375085855
Ni 5.301229217700524 4.346430941103929 7.188685547365337 -0.31100372371293533 2.0734401762770807 0.2807449248283939
Ni 0.6909938113945946 7.452010680639004 10.739224477274828 -0.1918055813835084 -0.9509150480024203 -0.22588323979350775
Ni 4.847855796455144 0.45503698499665046 10.057455304242932 0.8975854833413445 -1.185099608572772 1.0851893679386795
Ni 8.52339485206213 7.596929003487431 4.396899044912946 -0.592098061460948 0.05204195619790392 0.1867644194151751
Ni 7.350486904850758 6.08217644158107 6.922388919955311 0.4568258963877939 0.3785062374402836 -0.8185104342850484
Ni 2.480747377474049 5.312562188909283 2.577246808723196 -0.520761004478858 0.977121274084143 -0.7817667990071118
Ni 2.5871827138182577 5.328470187821094 11.349972484667507 -1.6000980274018186 -0.1655106522427214 0.4107309018019442
Ni 1.0347293769036288 3.584447798258906 3.657089778881591 0.20824675765866718 -0.26473749365654403 -0.18484791911875262
Ni 2.024963653363242 1.3703526815610647 2.678951584613412 -1.4397835746480558 0.714255286418699 -1.9039060046972631
Ni 0.8697573342148578 3.573769701790943 8.131478696595607 1.187706964288632 -0.0715273186160252 -1.1049079294135293
Ni 3.7332226056920135 2.7198948991368663 7.041772585202239 -0.3306382101144112 0.1315273533187412 0.048133108061800975
Ni 4.263161798715343 7.143710205444738 5.951120543627722 -1.0782131937311623 0.398583724916449 -0.7451002968240135
Ni 0.8061126048920952 8.560995576762776 12.740972821076888 0.5592943846673658 1.082979247661238 1.7569232360554
P 0.3175887819345427 5.733701220135531 7.812253637357328 -0.36470789810461063 0.5676029045330612 0.22112618472449663
P 8.362423002581716 1.9384838056482578 7.789423066706363 0.8528387752532732 -1.9950567539711708 0.4625481435835518
P 1.952045170072221 3.381191050584659 10.110850334324 -0.038794090049062216 -1.2935137729128177 0.9047809726485192
P 4.056312335449235 6.265132072290672 3.7295080106345044 -0.5300174900801196 3.172491132689201 -2.226464266017017
P 6.881514731098941 3.9157052713110416 10.365458357159088 0.7282829681563586 0.3574201061939457 -0.9366652229516256
P 6.275137103052818 7.774127193767544 10.26632305507824 1.0592811327133498 -0.008959266075816827 -1.0000416303257422
P 2.5307907222498 8.738803164371129 5.510767305596897 -0.07984612289436573 -1.0213961847421185 1.1934366676835577
P 7.117224160372585 4.384722922475414 1.3516096207505612 -0.10822004605136848 -0.7700680225129447 0.633003027205426
Ni 5.317428272052689 3.102496370963832 0.24695690294679787 0.7813279116974802 -0.8589315184145724 0.30673466402393623
Ni 1.656205505918081 1.4229154749923743 6.940546231692103 -0.7258813006934015 -0.48902536393847384 -0.9336940561384436
Ni 7.269673542740153 0.702541435990613 9.377936353584268 -0.2532377205470606 -0.8439833817451723 -1.2180696357408893
Ni 2.9316559229589374 1.4244980889492955 9.313758628986356 -0.47665527240889516 1.1226189735400471 -1.8436478312371538
Ni 6.575660940700144 2.4754265202050894 2.4302674495377676 -0.41343107434192666 -1.01497331193491 0.10752867641129867
Ni 4.1617926461297845 6.997700424694987 10.474897931376693 0.09407435067860573 0.35410723977062886 -0.20343005299631417
Ni 8.221452119143082 6.949658086071665 0.23826071211799094 1.910078452056562 1.8456664043290794 -0.1277210921987736
Ni 7.5760639666071015 3.917615322638361 8.01594242045085 0.15233811941650535 0.5928506233562565 1.6228749160870177
Ni 3.2701806865373957 8.449757825652737 12.311896162263253 0.19036370673065928 0.006546799979582274 0.5120087122075246
Ni 0.38242229082149853 4.883828429786313 10.187541623760604 -1.1743750230664163 0.17833120104615738 -0.8012174515325556
Ni 8.70231208853683 2.401498438355343 5.480202846166793 0.5723103373110595 0.86081845102464 1.4445665978589959
Ni 3.7540876425723435 2.640782392255826 11.388470933491993 0.7004685170472517 0.11213455061442623 -0.07976539025510133
Ni 1.097952075837879 3.4159085073293043 12.411071484467147 -0.4633480137770278 0.985299181909245 0.298392462706828
Ni 3.3417712293818043 8.408409762157543 7.73502935264558 0.12924395660120322 0.19403472782434325 1.1549606230955463
Ni 5.674717016051427 7.935235475485625 3.536560992386523 0.05089884373239621 0.6367876910588388 0.17222843058252918
Ni 3.3149304604917202 8.619597770581418 3.270663656658732 -0.28381919287834345 -1.2783782028229598 1.0464220173624945
Ni 3.6026205723159674 4.507966710500028 9.448237157008611 0.998475314279887 0.03908333915470688 -1.5492215522669255
Ni 7.470037926975889 6.119467919876341 11.328487135879923 -0.48465757388808145 1.1152198528624988 -1.6482113379692778
Ni 8.495990163256362 9.165335816726426 2.158140617838164 -1.0794164700106443 0.5943668028904667 -0.3824240844374511
Ni 4.707412451002149 0.6802011118469926 1.6691847594613372 0.4801864254906053 -0.13889562075835435 0.1603424777782206
Ni 6.319159238406259 5.890543720555933 0.10110993133399425 -3.463875282398996 -1.1759061149989618 0.8325949374025725
Ni 7.951407243390256 8.814895971058505 11.527636363652185 -0.5830215530809766 -0.42891657157203555 -0.2896270578093722
Ni 0.17714452693329782 4.978912603956743 5.568689157323712 -0.1530513434334461 -0.43767400604969137 1.323634760667914
Ni 7.234264829324668 6.408604213419842 2.436857126617017 0.6976657574911339 -0.5805664066722647 0.7369270169846018
P 8.633422903998202 1.8621090390030413 3.3537981859061547 0.46804207681858745 0.9037874983869982 -1.1914787726262384
P 1.8828922165407715 3.365537725183156 1.363204541855637 -2.09779109431762 -0.7244000881621847 1.6505019337756672
P 4.715334616269267 0.9894247785161303 7.8921128833525245 0.3998124551172275 0.09636443226436309 1.1288726677592429
P 8.892453150430157 1.6090727155458633 12.30687727501366 -0.12336692899513592 -0.8042580381310923 0.3132426403457831
P 6.544518008582338 8.118736835145889 1.3164337516873588 -0.46635749002731297 0.19562444090896633 0.2723587576472277
P 1.9565292429501644 3.3588798319850732 5.938913496549652 -0.8261633228446158 0.37336891621371826 -0.7128409225696756
P 7.098869476665302 4.087055066336555 5.910199058262294 -0.12540529958140337 0.5006688617146733 -0.5668829956479011
P 2.429867248307282 8.518656105673879 10.185850773561802 0.5935746460064745 0.21249756251522117 -0.30648989500298185
