# total energy = -340891.1114182381 ev
CRYSTAL
PRIMVEC
9.04431139710583 0.00000000000000 0.00000000000000

0.00000000000000 9.04431139710583 0.00000000000000

0.00000000000000 0.00000000000000 13.23726394267376

PRIMCOORD
 96 1
Ni 6.442968611956161 2.0648615607902707 11.598106841420483 -0.5780629235241206 0.15338018752777455 -0.5316910211278004
Ni 4.828794142713338 0.2540384332002772 5.990007780471426 -0.5286905437385798 0.41383139510413885 0.9492643997728748
Ni 2.46583207144959 1.4090675706834321 4.899469106881812 0.7613861784682306 0.4049351210557736 0.344865923678019
Ni 3.5766363340506695 4.4966327547385525 4.865263520394837 -1.8867976271517506 -1.3694867860050222 0.1380795526149622
Ni 4.9951913876068765 4.502185962063513 2.730013700113945 0.30325004790944554 -0.6316488271703767 -0.5864943421209254
Ni 7.193745962530004 6.106809638252332 2.63739271383795 0.6202740096745317 -0.17083386422784771 -0.14229050537251625
Ni 5.000599885946171 4.2775976163087375 11.811306590003285 0.8958700433121345 -0.04346784137564772 -1.2091646199417756
Ni 5.697111366894988 7.811843261870657 12.425304102893769 -1.495420961506702 0.5450867257084161 -0.41619321046809615
Ni 1.8447139720331434 6.425088007914715 0.43412243484440816 1.2860359764785336 1.6441322828038973 -1.0451745181086385
Ni 2.9064618884931988 1.3638731455973894 0.4468477812714768 -0.02089638383303498 1.438722223263077 0.025631584525175208
Ni 0.35025453333893 9.14976827747568 4.693430644227192 -0.45916611448519634 -0.11544895969963989 0.00012521272395462306
Ni 8.44412204180665 2.3136886616442247 1.4883581460860396 0.13684002378090626 1.2395519739843812 0.10656194162265518
Ni 6.753812557479916 0.8663546085635445 4.703769196821919 0.6021747289706596 -0.7337763871707621 0.48171854586441565
Ni 0.8098855446317421 7.675491220126175 2.5173303817237396 0.5841885768058842 -0.11107731299450548 -0.18353177141049035
Ni 7.602503625480515 3.9894548929114526 3.810293411050947 0.08964973924834882 -1.2500397608895826 -0.3566837422485534
Ni 7.627692033298131 3.807429077565906 12.702412766133966 0.5654123246396456 0.4758898549977804 0.5768146529393162
Ni 8.002180799580437 9.013569989028468 6.937941175273433 -0.19062801613563943 -0.8966064072575267 -0.6262957903885794
Ni 7.008400884825727 0.7304068475477683 0.25476016926629 -0.45261880028498175 -0.8255686266834105 0.3281678941970477
Ni 1.928192968139642 6.2793479707251025 9.22399042065531 0.5864768586194287 0.7945996891057219 0.5327372030041277
Ni 0.4030895928681764 4.937986116710496 1.2821433193551377 -1.4278983931746958 -1.8283034875705997 1.0914541179014687
Ni 6.172471340498614 2.080200713270945 7.116075223335704 0.11109736759916351 -0.4047921677200061 -0.9491651551908492
Ni 3.4594310999722166 4.437745241883795 0.3864471550853413 -0.2052370242980659 -0.7528215767276711 0.3203998202158546
Ni 5.956701198557905 5.629794555625143 4.877084435661488 0.9730974976367307 1.077278340621719 -0.6528074635258628
Ni 5.444820294696637 2.8028502547558154 9.451499174627072 0.6552237862768393 0.2621345088160582 -1.1562996536219443
P 0.3251529509127137 5.5928394984105 12.376100334473596 -0.420761803675385 -0.10752944774224708 -0.4557195506974926
P 4.017239018159466 6.08381899815453 12.366636366810994 0.9975941972265142 1.8026112250108184 1.2444910631572115
P 2.5525037095523606 8.407393092382113 1.3502668832200746 -0.31470508382392254 0.10394095906004035 0.16386643177107907
P 6.493625801251124 7.737670862404851 5.905792577400347 -2.2119964114181454 0.5708586924661975 0.388606301988763
P 4.847090785088577 1.0406746704223373 12.708210169872238 -0.06129972735074605 -0.35239848460963824 -0.6332377689240514
P 4.04931919141946 6.0747746865503585 8.01242348247216 -0.1627577720879326 0.524606089256561 0.08133222052158896
P 4.557166332305269 0.7426320435431263 3.8733033211348857 0.3121962013591397 1.2818206528456053 0.40632917318982276
P 0.3005650853856143 5.81700276151988 3.3795264158116862 -0.7915531889699142 -1.5116682766035 0.16486890489366443
Ni 1.5214431423652577 1.0509580527162796 2.762841837943604 -0.527535347088214 0.6082394471075009 -1.4632412914503639
Ni 2.0091576456201814 6.444289081450371 4.510306849452899 -0.8309453176142916 0.24636901845168538 1.592283416453406
Ni 5.876044027671908 5.466680395843918 9.061265166273065 0.004300170037250658 -0.302725285754227 0.7680499636416515
Ni 8.457037318777408 2.486950539045329 10.316130841830022 0.3471840302882343 -0.6257365754509998 0.06859163302646896
Ni 2.213884683092197 5.4711392414647735 6.845492030917917 0.11757500490370719 -1.2110785491350369 0.01474656218155525
Ni 0.28469955396957747 9.07994619189148 9.09356330744272 0.9124482593857899 -0.06520214772894577 0.49535490570092755
Ni 1.4812411772847174 1.1815850452153223 11.363714461886786 0.16885308635239307 0.0992684932850355 0.0024811145506408883
Ni 4.198776440678388 6.681394754465318 1.4442653181533847 0.11070321748453837 0.9975594873338369 -0.20685244841430184
Ni 5.904940603247234 7.677372436939843 8.148859636314564 -1.0614310891768173 0.48898062674346754 -0.5146188961368621
Ni 5.054929065752427 2.667845815440354 4.9893496667417425 0.34424783047804586 -0.1531469884710459 -0.04573349748137285
Ni 0.9126795726001086 7.4408636884907695 7.38305787530387 -0.270007998026864 1.5845683071973355 -1.3480021337686847
Ni 4.981986692664788 4.4685411228959975 6.661031486888527 0.0711064290285227 0.3977774269650698 2.358708700007441
Ni 8.066856671861865 7.017924544944919 9.246573162299764 1.1986788899191034 -0.1283867508072305 -0.7239791985746821
Ni 4.832348557173778 0.3486934851560501 10.515272112455301 -0.11604442719179368 -1.2977154696989908 -0.14787339877693242
Ni 8.129226244684228 7.1611050419505515 4.861636751441565 1.1447620852959897 -0.2169265448208522 -1.3803720654589582
Ni 7.382193239114512 6.02811508298444 6.989950489153218 0.2284080630978905 -0.6984550861616488 0.7260080560792529
Ni 2.536757563049499 5.321808612568306 2.4340684490957414 -0.6317799534316022 -0.8592675615977525 1.0499166607793142
Ni 2.400107059022079 5.265670570441216 11.361954438848615 -1.4816575891740225 -0.8434773886430312 -0.09249646466852457
Ni 1.1669784819745859 3.479645136407539 3.608848554260085 -0.3510885075489631 0.168337065947923 0.10797347725820114
Ni 3.6104077935806442 2.527532365213245 3.0507792554674755 -0.5301887255506611 0.6547748716648788 -0.7184829513468013
Ni 1.029396413851936 3.3257833073973813 8.40890620571349 -0.3562859925895025 0.255057804474935 -1.6492228099529276
Ni 3.2917857400773025 2.8882556892340028 7.0672431761224646 -0.17312831668897927 -0.6286414078026206 0.19642636798497137
Ni 4.11016027558072 7.0574662752783555 5.88036359089406 -0.2389501002797949 -0.45639935037333657 0.34447074512212933
Ni 0.5169059233885461 7.668337169647276 11.52760552803481 1.4513705081547068 -1.6167222662220606 -0.47904639834889107
P 0.28750148170454964 5.5657065635979865 8.11108064231278 -1.1048719339692714 -1.5249068867809608 -1.0198892611792887
P 8.368936679441177 1.6845030362768574 8.100623609236038 0.8694558149846638 1.1599472776768605 -0.04583531316655977
P 2.035983073838153 3.238722763895631 10.281978616781512 -1.3882501826554543 0.14542313746422697 1.9522800251252765
P 4.153410173671865 6.14125942115262 3.7798746778326384 -0.15876716287130074 1.9278062083536283 -0.8356599494811415
P 6.862280986548739 4.19448943697801 10.61681531212881 0.273049098846033 -0.7559544659296981 -0.9222642170349471
P 6.533456949555893 7.7275864549662 10.406647216795726 -2.2319939375859947 1.5977989469549965 -0.821906604450791
P 2.1099564984486676 8.394414505230127 5.689323310172637 0.9147247141247924 -0.27742845886065126 0.8828594899850795
P 6.837960832645124 4.074806061520015 1.6780743395886124 1.070007003771286 -0.7819277500650081 -0.0017720042987582384
Ni 5.272951241282574 2.891755837824817 0.6735452604923449 -0.3102581037961625 -0.21928861729512558 -1.0215082848399504
Ni 1.4770174837655694 1.0100506313306141 7.092221755910863 -0.845200284871409 0.24258898258396283 -0.4165336245266504
Ni 6.750339541823914 0.6924894755784416 9.134122522831625 -0.11303032295581826 0.0018229121413516993 0.042564098614455724
Ni 2.5441738985649196 1.451720544208703 9.18637060653776 0.5216860873962886 -0.9172356534721041 -0.5603223117112479
Ni 5.952124776886195 1.9579939748753854 2.6446200232408428 1.8732111467165675 0.49770720798318796 0.7257326909306792
Ni 3.9539107483070604 6.928114530715501 10.368987607707117 0.9733121847506979 0.5380455025909185 -0.20264046721548326
Ni 8.255005486163435 7.057194945930229 0.497492308530193 0.3161634135370039 0.5368450545249143 -0.09505779763779758
Ni 7.41527733096257 3.635089719948427 8.297567112141504 1.4035045377113635 1.5503638934014847 0.14256124253539965
Ni 2.9384697072603605 8.30683843596694 12.386161226702077 1.0303446521846578 -0.4249012797650553 -0.8737310453212502
Ni 9.092789114369403 4.774935267110499 10.180250008720117 0.24525547367253242 0.5101750014328955 0.7765333185223143
Ni 8.481194675072148 2.2643067202854503 5.691772509755046 0.49910845920608876 1.1196444642927557 0.7909132413930702
Ni 3.91136630652104 2.4079756101177074 10.957887155896026 -1.709581513546643 0.013703208518705432 2.2176327837683165
Ni 1.0965594718245102 3.4302179734907443 12.524304946575347 1.0070062345690336 0.6602405227651403 0.031186710015449516
Ni 3.3715203911796743 8.276594257962591 8.226363960175346 -0.1674747179476277 -0.24128106240581673 -0.7336390902619494
Ni 5.882718729635786 8.081879273436392 3.3497425932679907 -0.31126880444886396 -1.409570027179153 1.6149955133389413
Ni 3.155288989347153 8.210579827563746 3.460936073423151 0.35715425412706875 -0.21498973280945552 0.3908141082733592
Ni 3.571273057269396 4.3474287462045424 9.287172172659728 0.2539820549122529 0.07272570979950055 -0.5047016370231501
Ni 7.335388926562928 6.157403517366064 11.521079152781239 0.855645648574449 -1.185783522013674 0.24058403633879208
Ni 0.7792578878153773 0.059765715511522696 0.22250363193001396 -1.12421202905878 -0.03481505079665617 0.8543130458059545
Ni 4.726756219195081 0.14481118638786386 1.7041255747332669 -0.664554576759462 0.384821381025034 -1.9505334747478151
Ni 6.131129792155948 5.579146410641784 0.34096512089028597 -0.7168999231303975 0.13571105238278564 -0.10595284728374657
Ni 8.029169025407283 9.184317547803614 11.084369140386878 -0.7728877513499269 0.9084057138853 1.2272718710654478
Ni 9.060139149478344 4.952674078755669 5.518496161455374 0.3535649941139137 -0.05857127267598945 0.3749452595619026
Ni 7.925457904242254 8.905002072532 2.3421221684654174 -0.4513638448319581 0.4499397107909219 0.3946404239979848
P 8.38505364271981 1.7347080099916108 3.545031891581054 0.3727173986726484 -0.250291236324227 -0.07523099271985753
P 2.0987415520594954 3.193094211852588 1.5856523281679094 -0.84519822798888 -0.18910026663720336 -0.2758932531630474
P 4.533678255069237 1.1473432814819307 8.199002204279248 0.06651083923804028 -0.09734993610608396 -0.0794504301178438
P 8.740214715104003 1.8465409229771856 12.569272359440124 -0.9037365905444049 -1.6171706666133892 -0.6582340338580728
P 6.268431486618869 7.589669747314196 1.2227339497208192 1.0699352699930864 0.7669171355887889 1.1938148769585828
P 1.4783650861945907 3.3983458193976457 5.912371409661221 1.5532445573833895 -0.992985237699593 0.02274269301315438
P 6.9799203475841916 4.007679180793858 6.066347196997592 0.14343747449276587 -0.42391371904080544 -0.41928007692353597
P 2.185006196140079 8.395535999869043 10.143119491860352 -0.006343682829840688 0.37186944885005635 0.3879941223260608
