# total energy = -340864.0668041005 ev
CRYSTAL
PRIMVEC
9.30061361933386 0.00000000000000 0.00000000000000

0.00000000000000 9.30061361933386 0.00000000000000

0.00000000000000 0.00000000000000 13.61238815232809

PRIMCOORD
 96 1
Ni 1.1347585918623517 7.733525497657455 7.554303599360376 -0.6588433853072976 0.5479581337189402 0.1758140910512585
Ni 5.927336992725356 1.532834164076701 2.829416926019871 0.060789106262914665 -0.8283011951232251 -1.70613289287641
Ni 2.8034189202019983 1.3662973729720507 3.2848056707922555 -0.11710577857677251 -0.2719625506500735 2.562268336603084
Ni 8.839154567027919 6.852524853326617 11.590894626525515 0.4114495251355237 2.490057361656473 -0.32389600629457127
Ni 8.646622560289542 1.7901077436330972 7.045826950889491 -2.2763158994318213 -0.6776255510108072 -1.7582553246032622
Ni 4.588876356923874 5.587557667950074 7.92437037304844 -0.31622254890971346 -0.43514738297309574 -0.0965148417992983
Ni 4.527845729021009 9.245340274495437 6.0277017766060945 0.7637695910987427 1.0496544082568633 -1.9372488418237668
Ni 1.8058815846759593 2.6564041175106543 1.6713286744453053 -0.5965969777725662 0.8415218075785572 -1.1005175136553176
Ni 1.4360612772541894 5.517040413948317 10.195065944544448 -0.680638369695202 -0.560986170547492 0.3450965516315863
Ni 5.4876504742694 9.074636808398331 8.262161226588484 1.149391099427569 0.44040631737918995 0.4521544590540535
Ni 1.9347322885720737 3.202201339066853 11.086105671435229 -0.3367900886484199 -0.15187274974431264 0.25506191823999297
Ni 7.639412586388162 1.2859121677046825 4.492809386690487 -0.007072076355432982 2.2816085152893284 -0.08630164871172234
Ni 7.5911051981943976 3.8970780995829783 9.751153227167574 -0.11380859588273948 -0.49200115873734623 0.3835695108958039
Ni 3.4099491500187447 5.249582662256347 3.6361679800220066 -1.9773179419305107 1.7016393758814308 -1.2341937949962616
Ni 3.7031882032265253 7.930605504555006 7.566024232899418 -1.9178470402583874 -1.7078138801232587 0.05132898929127934
Ni 8.914173318119737 7.1273021880968495 2.6425183010737485 1.2576923923388341 1.7317331099430175 0.7754974210586321
Ni 5.4527080681384845 7.523127011766167 12.83940902605016 -0.5568045283659765 0.025616415016523623 0.5957888800489739
Ni 8.793163031675942 3.884987301613803 5.6987306951538725 -1.0019640441594357 -1.125356169965552 -1.531883060988478
Ni 7.33637998682535 8.171072874934248 0.9238234605535091 -0.27721351463636773 -0.36378615762128963 1.4219681437331897
Ni 4.343935391296037 3.0780753469925397 7.099255257053892 0.6189640326138566 -2.3447635506812583 1.1443260261998356
Ni 2.0802775942794716 8.922692680381095 4.731448256392238 1.7599949330021882 -0.8820179679203908 0.07372535470860851
Ni 3.9270260760912423 6.463852201686757 1.6003268584633994 2.013600578411629 2.2288687616934517 1.0097953672783964
Ni -0.07662124685342567 9.106770429154869 5.320564946949225 1.0294205977084916 -0.11725695944265611 0.9672135280521278
Ni 3.2722721636051326 0.23812268563460567 11.960607046826945 0.8597013067010613 1.5850431899512252 -0.1845833526034563
P 6.878101541338332 3.5205334483675825 4.361095953859825 1.7693141535205852 -0.7210949350483516 1.6312559410618617
P 8.921130177258924 0.6180964731663355 0.4297348616659424 -0.44087502948549234 -1.6902226494040566 0.8445413111311713
P 8.251532485112197 6.396143733059377 4.670315321737325 0.42693142282120666 -1.5204915313220848 -0.4807525824067205
P 5.232590440802745 0.28985455983779373 10.830233694381874 0.043196847102448185 -1.091788875533068 0.4749557732192853
P 7.245075860930435 6.271580612135409 13.061644403153267 1.1471434410439727 -0.03732136215827766 -0.923339709487313
P 9.09088498074614 9.137267141878658 8.740337405287233 -1.2820451101515855 -1.643324185080305 0.4217439650829963
P 3.232586444424772 2.636100877536263 13.160947056935484 -0.35926898647722644 -0.6242797883998151 -0.13489112758465155
P 3.734224351552015 3.1660963562081323 3.297614476148523 0.6280328276843443 0.6049571768118033 -0.3898967386654124
Ni 1.8698047034776044 5.804001552825949 1.564771541881585 -0.7809754134540678 -0.05681469499619893 0.7514108124230736
Ni 1.8418749601688105 8.955644755154006 2.087514401894714 -0.8951897294156583 -2.0295241916204207 -0.5721159619120664
Ni 4.963235363890996 4.485946463750906 4.824843160274438 1.279418471162016 -0.6242918725846733 2.593121831648831
Ni 7.725945497392165 8.016236256018232 7.324267797444384 0.01121386643794843 1.0407540204434398 1.008856914624527
Ni 0.13018348185687037 6.636304183182481 0.3492082870684732 -0.94151303796223 -0.4700051140822293 -1.0418112580633607
Ni 8.349830672601588 5.7337912190803335 6.849508664263999 1.024796725783235 1.042625783544856 -0.1754353675556011
Ni 0.9348604989766012 1.8685584212253972 13.030377599604982 3.210376594881064 -0.2192564785056095 -1.386640414966173
Ni 7.413882001807762 8.950296902206102 12.4101150134794 0.5916830854107165 0.8103746925517915 -0.9029696304713932
Ni 2.0666428944157715 5.603452416972628 7.220242291963133 -0.8023109417070504 -0.11093924475474443 0.6324235005528721
Ni 3.009055491816196 8.10911218564914 13.726323930710688 1.1438976804131655 -1.3721064830160563 0.4519186888941636
Ni 7.125274654283557 8.533480593139531 9.989995780312036 0.45676059036749717 -1.479063603194601 -0.702860671428512
Ni 5.113644890627532 1.9396616138979679 4.912425180517612 -0.23939747222985863 0.7645635477549477 0.48407650457363083
Ni 4.309309206035084 8.639107664321008 3.502685570442316 -0.2528451130943323 0.7422808250973475 -1.0758814602741922
Ni 4.407467884317139 7.65722326185814 10.684241029149618 -0.8841265296229612 -0.7228165457251488 -0.6538014520080159
Ni 7.804228763935661 5.195276378147106 2.540751914689968 0.9840881923202793 -0.3047217473589655 0.3496245214089269
Ni 6.2925534963050165 2.286025773259538 8.20011683177897 2.6252081706604145 0.1689150499385801 -1.2560183470705208
Ni 2.7188949417836437 3.6884467303179544 8.932694560485748 0.4528162610077685 -0.2887541682861156 -0.31868669417948986
Ni 6.377254186385997 4.007448483813899 12.20481326396281 1.0214702325131635 2.3365789579879372 1.4325970842019455
Ni 1.637726486766204 4.275148051465254 13.118013563408327 -0.5183140856002623 0.4017531237833662 0.5930185163926883
Ni 8.099560455253492 2.8506381365785374 1.8870852439597021 1.2539074713751048 -0.1309722521462196 1.751860219710196
Ni 3.725509676400386 4.17729629343934 1.291367907772927 0.20217535465360664 -1.5863472534746292 -0.237262685275043
Ni 3.497542330998505 0.9211337230360588 1.1837737567680044 -0.4369296716844991 0.9311234671977899 -0.9418938183404166
Ni 5.728201550173045 5.425531674549308 0.7008933275978627 1.219328704958971 -0.2939645088424615 -0.3308963488718043
Ni 9.465141680961214 2.3949266605065143 9.103066924730774 -0.6869316589030814 1.4979635254228978 1.455623884114422
P 6.401761303808133 6.563201358538085 8.555644885939795 0.3597806360063223 1.1841174471651608 -0.1313088095500319
P 6.6343231524382995 0.8673929162472231 6.339112369100161 -0.4610623030666446 -0.1908820411279745 1.463037917190306
P 5.022108249387055 8.493069426081021 1.3429407414797514 -0.6692879776793893 -1.758720437165139 0.817273990774786
P 7.704674993580239 9.069344759133362 2.974252594892617 -0.04617624144574629 -0.1648802177475741 -0.30182411409619636
P 6.250868145152831 2.747373421307962 0.9099980981064487 -0.5303162522674608 1.4142674326548224 -1.2630842527783666
P 1.2930736403479628 1.5163999794524452 5.475202532729443 -1.0002419192620065 0.6769907456402857 -0.17567293748770393
P 1.8413913282500434 7.191420619788766 3.3315775276439354 0.40861102724546405 -0.1998428498656881 -0.10712629876655744
P 2.942649109123958 6.605593556340776 9.006174059989952 -0.3619668450243637 -0.42339538464349014 0.9850400147105873
Ni 8.71219188773776 4.704455084895364 11.523880913750673 0.7255290595603053 -1.7662725384807838 1.5520651923633078
Ni 1.2626606331485768 0.9745369175431398 7.899459608986411 3.7091883487823414 -2.1433407579229606 -2.238696546417151
Ni 6.311405840523107 4.303356813188721 6.850053680233994 1.393330168281523 -0.38813321900708636 0.15330382576388438
Ni 8.125174345720497 2.450814048965569 13.197972800562626 -2.4289023874137072 0.682549984895618 -1.1896036670907126
Ni 6.350124295865934 6.456988348685795 5.889032414697628 -1.0536157068974565 -2.0043392077143607 1.662734728396433
Ni 0.23663272730025042 1.041278122332985 2.8740105791143344 -0.6374338092832699 -0.3055486141356351 -0.23852741092007956
Ni 5.5042706711701035 0.8830198075916906 0.26581712341369185 2.1506033530226443 -0.07011038366384054 -1.7122557179446964
Ni 3.732280523263124 5.54515616953356 12.847249443502477 2.9938601410144376 -0.38169414824996206 1.1295612091858351
Ni 7.234389455648449 8.216980704761824 5.0091952771559765 -1.4642841308925814 2.3104380379265113 -1.2773716159353163
Ni 1.1796340535556353 8.705616353765294 12.608474784838918 -1.6148132221248062 -0.7172444509540099 0.5807980630670965
Ni 7.019098846886557 1.4307413261477526 10.522933973197327 0.8781777682386941 1.8348937391936075 0.07501964803999983
Ni 8.54394378368978 6.452384544843686 9.13538283751823 0.3465667084192096 0.07264806248402972 0.6841083305216734
Ni 1.3237749665758445 5.580042771981541 4.664584283499936 -1.4743769963522093 -0.07391844455602108 1.0646241421928182
Ni 1.6439857998687075 7.8628970359276265 10.285588818878276 0.1409869560697443 0.720859421998778 0.06884000159184918
Ni 5.158269235747609 2.2197402985469927 11.917087614628974 -2.3568618766066893 -1.206857569075154 0.6331521511887805
Ni 9.328794682324212 0.3083758022038051 10.826885473405797 -1.0727462570793203 0.11299766994566991 -0.17966020427022608
Ni 3.707187467170175 5.027558409087006 10.652728689396419 1.561178981739118 -0.21809228299417927 -1.1524170307380863
Ni 1.2714404125969623 3.1227926982508416 7.145877374023031 1.0458882563462117 1.7764098840251017 -1.7386488632262445
Ni 6.459108888637312 6.343567363121111 10.825143468436853 0.15265102267123387 -1.201601205772221 0.05819820560728686
Ni 0.9578702175733232 3.1393663920824335 3.882021335865826 0.3443632730099876 -0.2863432448517778 0.6930007479152969
Ni 5.991074099250552 6.706951645777751 3.492857611816141 0.03519583117484261 -0.36184934560989296 -1.5084507981074664
Ni 5.829959566004385 4.087033836292538 2.6498416043975395 -1.7163283453521732 -0.5214096938064504 -1.1101352392507398
Ni 4.621447106530067 1.8314024690047406 9.46540116808686 -2.734925884303232 0.17201760012330375 0.8644385642757306
Ni 2.098711410875552 1.1679059795255355 10.044921485301852 1.3801370666300166 -0.5125108486549238 -0.23614631228241265
P 3.522830699981726 0.9114406233103095 7.780704721394558 -0.2174253388341417 0.3425457601852746 0.25275101071862915
P 2.0196840952262605 6.377765720146232 12.484697565782946 -3.600629688444631 2.4948671243402902 -1.1204656746424704
P 4.614555351687637 7.258970977981164 5.069334906254652 -1.060131396528787 -0.3795830154442301 0.35968370541714184
P 8.976115406177202 2.448070367887949 11.097213394523372 0.4562615392438917 0.9920809807177687 2.2721926212920676
P 3.089301187876227 4.188354723274223 6.08884866218174 -1.4573784049116836 1.9319235729561115 -1.8346803376312208
P 0.33148596742980957 4.357942115712635 1.230085233235473 -1.4678433089987495 -0.4372865408032856 0.7854733013244214
P -0.3344333319501415 4.4109742157282 8.368392837668418 2.362739675543705 0.3119869135618111 -1.7524456599000207
P 5.656140394276763 3.627825329423276 10.244601943824156 -3.0795706931093805 0.3932566562765808 -0.4927323804764159
