# total energy = -340885.36281679425 ev
CRYSTAL
PRIMVEC
9.14411507745839 0.00000000000000 0.00000000000000
0.00000000000000 9.14411507745839 0.00000000000000
0.00000000000000 0.00000000000000 13.38333671718010
PRIMCOORD
 96 1
Ni 6.61903161886832 2.315829409348769 11.76015205904049 -0.05000667093543001 0.06636402924753088 -1.052610919782026
Ni 4.797359325794261 0.5928111436995283 5.993579642425981 0.02772343405719742 -0.35121114916975643 -0.2229095018771645
Ni 2.9284485348634797 1.8590991555842342 4.753198737031338 -0.10069468420860075 -1.3915838750143776 -0.3437508362369693
Ni 3.757929490647265 4.933204297563419 5.105141091059346 -0.06534047307902296 0.05481900472240881 0.2944324496178155
Ni 4.079793192942809 3.348766922877827 3.0886863476861794 -1.8529338845247705 -0.992827114855174 -1.8115270394432093
Ni 5.53417382062566 5.147460055070364 2.6320201027263286 -0.1459234741394132 0.1938516652792597 -0.8687143088329492
Ni 5.610609477533198 3.3578744613728513 0.48738224150466647 0.13932705186881808 -0.6063190901563363 0.2884080978006065
Ni 5.911862344720525 8.325872116339452 12.44331803143182 -0.9740850583609805 -0.12512042135113288 0.7149075752907171
Ni 2.208742679112594 5.51455969404752 11.650207792880927 0.25098337729524517 0.5315431826960265 -0.5235858755221628
Ni 0.681976323035705 0.23474771912074832 0.2010781734455182 -2.1936580181202734 0.23327696115441757 -0.495135847711586
Ni 7.980608623874462 9.029420320965128 7.504853124534879 -1.0126729459365076 -0.011841986940250572 0.603138892656142
Ni 8.9482845889708 2.582782701340477 1.4113401930018967 -0.5898010378966553 -0.850151201118781 -0.4978244502873427
Ni 0.8966179621937429 0.046099141133349196 4.459809808705177 0.1237111997084321 0.1608045050163037 0.5056609156126259
Ni 2.0059170652992053 6.465364767052171 0.5292869771082288 -1.5248274396932773 0.7208995312080939 -1.1466369337211992
Ni 8.005590345931095 4.184593894440273 3.739438261385579 -0.1509947180147335 -0.04698433916933844 0.24024130828739274
Ni 7.880288538704871 4.146691537952446 12.630818108580891 1.3038349523331674 -1.1944463398949945 0.8748559029543126
Ni 8.478999465373263 7.491919688342748 9.691221983175963 -0.0944499888504696 -1.114246947426268 -0.7456281443030256
Ni 7.103239938072161 0.826563068701694 13.838905657601009 -0.20799376110759665 0.709966686345674 -1.0584730349897575
Ni 1.7179140206814472 6.838609251278983 9.530702531612652 -0.016952054473306288 -0.3970369492546194 -0.8593290109633072
Ni 0.31708224458565676 4.868537116602765 1.5789664507081098 1.5735264475608772 1.7978598263687615 0.3777421055807494
Ni 6.314057096894373 2.3963159091813035 6.6295967292871465 -0.48789536409908885 0.40697734829678295 1.0178228655685633
Ni 3.6809543309573898 4.80621082907055 0.3576949167460997 -0.37581120710662375 -1.8872961640547241 0.7539734309439273
Ni 6.337219140074992 5.918263225188916 4.793308482869265 -0.038484015007811144 1.2631338750693795 0.3122625358207009
Ni 5.459722436663322 3.497623970227728 9.223661439658908 -0.005457937790777696 -0.838468365464214 -0.02214105487341348
P 0.16214253196779357 5.9533857707304705 12.72760673655492 0.4098261305994878 -0.4464047010544699 -0.4841500381240436
P 4.0545554356674405 6.47153704464669 12.520754054515418 0.2575582022992855 1.2169180386349492 0.22130024840851567
P 2.3981447321722724 9.172553152353297 1.0831560784495642 4.168791550804956 -1.2676032236946426 1.3270923801992112
P 6.581522459323551 8.207967898111695 5.988012705241473 -0.80524508463471 -0.07069479541240084 -0.08429721668718386
P 4.96418455903043 1.5131681427275407 12.745647160949334 -0.6761150279035518 -0.5688478326837558 0.2973771340684363
P 4.234886526691914 6.548393330842152 8.37942736880698 -0.5604048441227252 -0.4519991644231119 -1.5003780484016611
P 4.79363767100764 1.266816541729096 3.655042652409849 0.7373085686937366 0.5118446758258346 0.29408355091882904
P 0.29474591498546 6.022259244570353 3.696517614610534 1.2801118976846149 -0.3378740657412181 0.21682781445945884
Ni 1.409473879139613 7.850314129882893 2.4606740190564844 -1.7992906452780173 -0.8333392717677649 -0.015039410831625712
Ni 1.8933804425499434 6.663197694100215 5.10356098799515 1.4315910115349344 0.5141530122440371 -1.1672389262422673
Ni 6.211094362502831 6.201694212329252 9.402302698239728 0.36340254902962577 -0.7353385894515594 -0.5597263299984618
Ni 8.682876652406462 2.5602424579767873 10.338975541581668 0.709782595359326 0.553216296794086 -0.2383530901257443
Ni 2.393426368855573 5.472432756450555 7.4624683228961874 -0.36009328215073466 1.4482985540976026 -2.154715061198173
Ni 0.814516611660183 9.218273727127515 9.506384672301742 -0.8391044563863161 1.3774734037549246 -0.9951639905184667
Ni 1.513451610291141 1.6838247601297895 11.724177281985144 0.758937716927738 -0.32708880220025605 -1.402217443468824
Ni 4.0674577818687245 7.205077946324255 1.262478573594518 0.9638644090742368 1.1736134623100434 0.7551574239496994
Ni 5.406732290500003 8.417450427612211 8.563970239179655 1.3001225364785869 0.7389610166954951 -0.5682639351558277
Ni 7.572726232198702 0.8046683998538162 5.108058063729942 -0.2523056956510945 0.46397459161743326 -0.28084519785168405
Ni 0.31741143272403116 7.615182357934041 6.491908303943092 -0.8627146396060885 -0.35792532796513843 0.9553828539657868
Ni 5.377608284368826 4.986788811198804 7.171701926739075 -0.21479201497635264 0.7231549029011738 0.26046766263659654
Ni 0.9711324405492691 7.837750115934938 11.592913511808364 -0.4352286298329924 -0.19120805700882554 0.8850683247109402
Ni 4.737245914081119 0.9397224056793807 10.451395119659507 -0.08231463903951632 -0.7528100067634454 0.3804757024618286
Ni 8.058370177450453 7.5833059732014565 4.423125448329336 1.2429684558650982 0.688648127373556 0.9182844064515926
Ni 7.1435563409080665 6.478632877851649 7.181017036643574 1.5038644642883647 1.1723307389428776 -0.26905591852623983
Ni 2.6037227245870693 5.705305932005561 2.7694671234355757 0.9134301636830849 0.37046176986925233 0.44424368884740917
Ni 3.3774154350313523 4.712547659588086 9.354550301122543 -0.03659014041920795 -0.2595109551502821 0.8448156478384805
Ni 1.246864082897627 3.923547700709394 3.6864801196246018 0.12044049937696032 -1.0136563928956994 1.7120019500626773
Ni 1.7234279219992177 1.437335997407022 2.482020041007072 0.04885121717474812 1.1314070041453224 0.9514115280228647
Ni 1.1093731704365966 3.6579203053861384 8.240695599946578 -0.6741393922344195 -0.2832221827242929 0.42969792982275024
Ni 5.711121589116841 3.6746814680983673 4.419592162310784 1.6342088530425984 -1.329605119318736 2.7198687328597932
Ni 4.233624638828145 7.197991257234251 6.166693283516596 -0.07135299782169001 0.5988009274024203 0.18495616256184277
Ni 8.251118976583603 7.683059123243847 0.14930328015969752 -0.5324826637911605 -0.7097088046985971 -0.10884430989892868
P 0.1709766614256681 5.945695570053448 8.169684232030251 0.16313418159074486 0.374478090117497 0.03173924008480985
P 9.037915203758178 1.602698172250416 8.180992758994908 -0.8104050315690946 1.6042591007580436 0.3568377513279145
P 1.83505927736795 3.7005684575355295 10.546390586690892 -0.39111569867417806 -1.2307888830797706 0.04981409530864969
P 4.449416607647502 6.6289987041691 3.845982745604932 -1.6068785406587616 0.18308002858505243 -0.301085693268275
P 6.941828020889258 4.254656103224286 10.641666778051391 0.825289661990411 -0.2881738703026134 -1.3539038439651006
P 6.61261245017002 8.01464301973639 10.479366967306376 -1.4133639470039465 0.21855790977668813 -0.6236745507156485
P 2.129097437855905 8.634202528501827 6.247408386223002 1.603236315920484 0.6189146674331599 -0.1407337024083576
P 7.474372131744404 4.3472494112570335 1.3921476101231751 -2.657528994280307 -0.6239072355517449 0.8843995807786897
Ni 2.8634338775345407 2.223245245430976 0.1771910019489799 1.0501372614305526 -0.8776355225819789 1.9763339807506868
Ni 1.833129869112478 1.5694776026194688 7.2635381020535625 0.6595118721292319 -0.4783789399682213 -1.8942782517995118
Ni 6.9112866769400805 1.3872536797993429 9.266314163865777 -0.4698739878210037 -0.14295282154686348 -1.1446990932685381
Ni 2.665710679865955 1.9749276597172398 9.440565332856776 0.733532389480756 0.06392482367841894 0.15424047864554083
Ni 6.677654539843823 2.3446790920313005 2.658305775575522 -0.36332413038320654 -0.7405121632326989 -0.11125523333326647
Ni 3.935023564977723 7.115520484456515 10.379540664344345 -0.06726417246429707 1.8952917806656906 1.251008038340123
Ni 7.121912220809951 6.0946623467828065 11.763203450200923 0.855961637152971 2.1253582053026108 -0.9175616693529551
Ni 7.736753366258689 4.300660145562104 8.259205117438173 0.06868496407122364 -0.4797776200879608 0.4848030983270102
Ni 3.4059542178054194 8.890493782456188 12.492715454829382 0.5706830861202816 -0.47119193530147885 1.441813203483575
Ni 0.1069614558612936 4.986103002577191 10.198370143567018 -0.8860561425455064 0.6653241079356348 1.0586427277984025
Ni 8.663875181530296 2.8035947892700435 6.215783464651675 0.9471041588967624 -0.4617739844216886 -0.09898387216508114
Ni 3.8388731962275413 3.0767020706263613 11.545737193933332 -0.21645037651538207 0.1444836563690931 -0.3459028495829656
Ni 1.1604887730341729 3.7635896978043126 12.998137206316963 0.19327239573702198 0.26372833566573933 -0.4195418152253549
Ni 3.063708283275528 8.68046260605838 8.421491212010757 -0.2533570197337443 0.2770193963476906 -0.6359618527234338
Ni 5.947743851803333 8.236543257345582 3.571798287506934 -0.9616951693370598 1.0398937293256734 0.2886245846867868
Ni 3.348666337613323 8.740804620645395 3.298242944517829 0.9934099839418375 -0.004464720639572956 0.6900434650591859
Ni 3.811148239684455 3.498209193584838 7.254317176533098 -1.3398561076227828 -2.6442039950366265 -0.24486955108802347
Ni 4.968893778232175 5.097149134588813 11.07259599705934 -0.028751103990763388 -0.5286704891339218 1.5172138890120772
Ni 8.254676037301037 9.178405385924396 2.280975700786887 0.26594616925266457 -1.7642225979302906 0.1230995342663622
Ni 4.859493586912424 0.5616763466897808 1.3823917538778523 -0.4542421948210177 -0.15190720252667386 0.38412461206832554
Ni 5.898703963300505 5.806119799382712 0.37210512750343794 0.7442847429012537 0.9929091330460191 -0.1285772695514818
Ni 7.952801370296782 0.3333002468695676 11.217270526228894 1.098557304605153 -0.707603071209504 0.36643876475278825
Ni 0.19236017424757018 5.231969965483029 6.039069785503338 -0.3065803978342591 -1.2034721975426887 -0.5700583080520891
Ni 7.722323952859945 6.401822312230962 2.440585312912188 -0.455600508621125 -0.6333465265877738 -0.8392515234871418
P 8.73849115956182 1.6359004536514536 3.4126568540673197 0.5680453913871185 2.029155752537408 1.8634597237567585
P 2.311632260584496 3.6911500191320408 1.8716595118862076 -0.2821798575027076 -0.608033758854598 -2.2095343230308977
P 4.701181524699216 1.5746348834540005 8.189959478119627 0.5152375035574676 -0.4418551340105745 0.1715666286288142
P 8.743502134557074 1.8162315446759267 12.586398741364746 -1.1956298186801344 1.8483102697098297 0.620164480679861
P 6.487374651748479 7.8603726563332215 1.4970333518897192 -0.8569509976494338 1.0851693133340214 -1.6684479767311267
P 2.175046615503995 3.5288419786835643 5.720332456110854 -1.497699987348866 1.0437786662023765 1.897602431076738
P 7.154154370140731 4.4338167475345385 6.118191983384611 0.5554510996618757 -1.1421783837292137 -0.7785336367817948
P 2.535809382817445 9.0934565579939 10.638575152785158 0.9293136676825607 0.07303244240664197 -1.4905196675503427
