# total energy = -381169.6940005942 ev
CRYSTAL
PRIMVEC
9.23865937091212 0.00000000000000 0.00000000000000

0.00000000000000 9.23865937091212 0.00000000000000

0.00000000000000 0.00000000000000 13.52171184732817

PRIMCOORD
 96 1
Ni 2.0079486988002047 0.6090549216852884 12.08156850887801 0.05144288916132431 -2.5416452610360936 -0.9024854917461232
Ni 4.599355689711589 4.603439177140938 7.453356790576308 -0.7718418265839159 1.2306384735448355 -0.0817875628914527
Ni 7.338858389881962 1.6154812112748687 3.759928330261523 2.0838441452192242 1.2078474437922488 2.1645523590035687
Ni 6.662422230148669 8.775479156287584 6.82554369496217 -0.43522400184730214 -0.7729047206307915 0.979572563838113
Ni 0.49518382596029314 9.037515251216638 3.9601310020776945 0.1871097185697358 0.9612223434656993 -1.049955741547366
Ni 0.46827715449142976 6.700079005628373 5.962574383775751 -0.5587559956653925 -2.4844410439109597 0.5602541774774739
Ni 3.6703530608752235 1.8779053298963033 7.386275808956933 -0.35991510470165755 0.9511122516148909 3.2197778335903067
Ni 5.233922245305036 6.056319983989219 10.647833899650962 -0.1473949164786171 -2.4048250347495292 -1.2909724945482024
Ni 9.01641415327855 3.4938946674350055 5.9344361990165435 -0.8763404579196391 0.6415766278070498 1.079288171962896
Ni 0.45623733363638824 6.258387941126625 3.006795592265264 0.002347160075937893 -1.1852592740790877 1.7598249830832273
Ni 3.3366804014050477 3.126242218903409 5.4662597459119455 0.04958655267887589 1.013707557848609 -0.31937215028228866
Ni 6.421163880080719 6.948404930093275 3.705855380996274 -0.2778022972603022 -0.21822983701330803 0.5185747954608165
Ni 4.853021559276409 1.9251148791360686 3.206768221463809 -0.15106053825566243 0.22148999582181855 0.33409891496950206
Ni -0.20704759452297017 1.5821850830047879 2.089158362151943 1.3099238388397247 -1.6767588105896671 -0.23126764403387268
Ni 7.513117982398685 0.7700755153643232 0.48864655060959694 1.487403233408548 0.7988021572228436 -0.013008753554842111
Ni 5.766845070813179 8.27951096814912 10.814515943775032 -0.20545351118424618 -0.8940211630288538 1.9768294323298665
Ni 1.358239980544532 1.8141862964116338 6.758083928309755 -1.0050781643083853 -1.7497647706337476 -3.37238771861096
Ni 5.695845973766684 2.657417211912974 8.414493324337478 -2.1843035734885676 -1.1615377620924319 -0.9345643745585389
Ni 2.506845541950216 1.6911088766519171 3.4641951492469283 -1.5242129460377298 -0.00792722526687667 -0.27701245436915517
Ni 3.2977764069141178 1.6898154643439784 9.943677142560738 -0.4905857664470583 -1.2571210932163963 -0.1828681696845625
Ni 5.960616711861093 5.63940700384384 0.4331018829111006 -1.1864383819888535 0.49711945380051803 -0.8129442530511806
Ni 4.617177063583117 7.677076469748609 5.531448650097994 0.1667596941584741 -0.7243566365187589 -0.5604552377446864
Ni 1.2363173932026177 4.742619580134494 4.853375399929224 1.317666458899621 0.27982061324191165 -0.9761748510104736
Ni 4.637224954356167 1.3537869467414856 0.7981730500224244 0.7476711428749833 -0.3132197575276477 0.3225112101319026
P 8.859892786699275 0.5134357213571777 8.003988278312002 0.6907710872538296 0.04497862159321931 -1.0773001949985899
Ni 6.653220525443619 3.6428865266502095 6.642825185951529 0.3950811110798293 -0.05223838847942616 -2.4483216724805836
P 8.329963286818074 5.363115657549434 7.386275808956933 0.7417504065151742 -1.3026597010781438 -1.4095558861117659
Ni 1.771845520645324 8.506033656565911 5.959762135871918 0.442664003065115 1.6237084677319067 0.944202154758619
P 4.0844205339431365 4.585525416675987 12.433010805727399 0.9101283530033615 -0.42666274254085235 0.5463735628406396
P 0.4947255884569091 1.8309821790961531 4.806738647568689 -0.5370157757748235 -0.11516459569000166 -2.45150238420141
P 7.610705941032665 6.854623299108371 10.120420086708704 0.5854707859524175 -0.36569314483601534 0.7008480118738575
Ni 3.0641676667816906 3.1371992688835193 1.1301855224087676 -0.8768335955059737 -0.21194271845301563 0.4726170977837795
Ni 1.8910519421405667 7.800846788959007 2.123963163492641 0.002133244292918907 0.8537566590818523 -0.795719661642778
Ni 7.626679583035709 5.459825943545884 1.9667331917418014 0.1322485477554819 -0.4314267395883989 0.5642774397042539
Ni 7.977120409212378 5.247142766824038 4.512127963664199 -0.48751021284552815 -0.6131399697329117 0.27640541691277554
Ni 7.315687832251174 4.872884676862612 11.021764017205731 0.8694545294330833 -1.0185327471513943 0.6807689817357954
Ni 3.1624670021850374 6.158813670734024 0.9541631936895115 0.16802596246540738 -1.6849683429836528 -0.28525104022886355
Ni 7.297820265082934 6.948488078027356 12.439245053051662 0.6536870379173387 -0.05713274045724999 -0.4377804497205686
Ni 7.078392867041122 2.310468598967741 9.971640716658374 1.9530562411696686 -0.05312927572481173 2.0410283356052785
Ni 5.0921827336736305 2.8415621699260853 10.792867917203875 -0.3521413742935097 0.9130920636173758 1.2792258955352356
Ni 3.9770303577468487 8.849711784103928 3.088020961337884 0.09507476691866207 0.030605126480366642 0.7457435868349673
Ni 3.1338179195641933 4.16373442439781 3.387892137871949 -1.0887112650490087 -0.43803781714701334 1.0468737601879325
Ni 8.47701502757137 4.002741546696803 0.026579622928141765 -0.948521093848947 -0.06029056935994132 -0.10285363953313252
Ni 3.9980575464101964 8.508869924984033 7.604610273598537 0.585893475312133 -0.4267745855283683 -0.9382706197655324
Ni 4.8855139241837 4.222326001947437 2.105114450702236 2.386089148902923 0.5508603949673996 -0.37989617580927476
Ni 2.153032605113565 4.416615007918526 7.317084717543748 -0.7723922997707472 -0.3722188617696751 0.16414848178787217
Ni 5.912834365742096 9.335757652108633 4.658919174224038 -0.24209147412225404 0.06838080256724352 0.452227221273518
Ni 8.573217187303987 2.7179396692651663 8.43159870210997 1.4990037937619538 0.2905961065908609 -1.4015846949808313
Ni 3.9994063906741895 6.358183939343443 3.4947409286307707 -1.0660593319774478 1.436890569370977 -1.6015005641762998
Ni 1.8526006419574155 7.076591328469349 8.101506947000916 0.37091274136374186 -1.3532944925158759 -0.10049825192707852
Ni 5.673248213015124 3.162106694470683 13.4104822130719 -0.10006759214756314 1.091207034887669 -1.2623458319504453
Ni 6.509162110317268 0.12219143232877852 2.427336715783417 -1.3360735006518991 -1.2889721762887218 -1.6349236197214359
Ni 1.5809840572902734 4.219083232518248 12.849073829213273 0.21540162353589354 1.1397510052346436 1.3138761386192535
Ni 0.9878251728695524 3.4320603204561895 10.50219197831332 -0.06167099464723573 -0.305778470758254 0.7321301098165907
Ni 9.098222481755677 8.848778679510342 11.916089338200326 -1.1533613969292267 -0.5812318081704054 0.9026415577080132
Ni 7.781695048142171 1.4376554962519725 6.169497256397599 0.614183837616394 0.007768331091509201 0.13709867675893164
P 5.584584799305921 7.3945952216947815 1.8904837645910078 -0.8132872382128962 -0.21435364188735342 -1.7390993205001015
Ni 8.59154668743935 7.411760650752998 7.89999238555812 -0.5745112016171202 0.9707228267569671 0.8848914328134437
P 8.443155341081402 2.5615014506199714 11.846587827833234 -0.5638922884506934 0.7367591239481698 -0.9769220135891433
Ni 0.38662865482092623 5.986448003382498 11.777519610589303 -1.196127070031527 -0.2332255390911919 -0.9841524698993117
P 2.5413149799567845 0.8691989391810137 1.322977865566384 -0.5693116596940518 0.3166480664829062 0.7768997007227976
P 1.7975567095952782 2.5391346563519734 8.478532015435395 0.1516212958551389 2.064389893149354 5.034800030670968
P 3.948621480268908 6.671014183337121 8.696718661527521 -1.12090533328305 -2.477246840155366 -0.27072970668423696
Ni 7.081580204514256 0.8544078455737996 11.739198575502881 0.050508293162196884 0.9535411727713577 -0.21831391208668208
Ni 0.6410410080606143 1.0747332413036954 10.241412341054836 -0.2934819127790881 0.42202370110694415 -1.2232732914290159
Ni 6.794147035052891 4.643202366950714 8.68068219664095 0.133078499855945 1.2233293414779318 1.3419078479454891
Ni 3.549104895665306 0.7348595936828873 5.491140379387017 -0.11179413655587198 -0.8360335307704764 -2.186200276290648
Ni 3.8238349085308436 8.394504560984219 0.7539235672359706 -0.0917521303033323 -0.5440827099239338 -0.8436391110318762
Ni 2.060165601403561 0.12094421331755185 8.293474277879252 -1.9215908235715358 1.0232399228190765 1.0267067983217544
Ni 0.6494315584753999 9.157700970602177 0.5902727272421491 0.4310904392949027 -1.214476261962676 0.3772805925632986
Ni 7.045336943913943 2.7620542676252207 1.8115717558177291 -0.5409320801100942 1.1217142023375908 -1.2220191073069406
Ni 8.355896203592247 7.879347677391549 2.107196844518018 -0.2720875062637121 0.4886450977809198 -0.5219897346796365
Ni 2.6625354291886745 5.361582040098592 11.049239790090088 -0.7948069200205216 2.193832596024925 0.6180024400315357
Ni 3.243332987409238 3.9767809139446033 9.55748362859484 0.6977228359813146 -0.5634279472197651 -2.038070538528535
Ni 0.7559745496099879 1.9914946465113548 -0.3619993128799693 -1.154123986126864 1.6566923788570953 1.2195233374682806
Ni 5.925472851722527 8.78546614703674 13.090761776940647 -2.074892335342575 -1.227494528599215 0.9869616572133325
Ni 9.119739319364173 3.594642247564093 2.992476594150447 0.7762558964912115 1.47396253452261 0.5383218961807568
Ni 0.7601892260019997 7.786610014912339 10.080788085861592 -0.6224213950348376 -0.31238723432402327 -0.010257416061950075
Ni 0.3644558723991187 5.283857199050814 9.2949865245646 -0.688786452723633 0.9096452427193559 -0.6858998752044574
Ni 5.935173444032068 7.098616292341679 8.642794454677686 1.9428739013200285 0.6362744988678461 -1.3234884648980367
Ni 5.370672880891534 0.24278457659131844 9.148925168092811 -0.2323469931409805 2.661798053969306 -1.468012487586762
Ni 5.1258022150206966 5.086805833936342 4.837702938220743 0.744135618917899 -1.8368503486993462 0.8397202355934442
Ni 4.176687024795883 6.848276340140129 12.370919624018862 0.09794128983317972 0.7279754642182689 1.3477905319785113
Ni 0.366930909236953 6.154157386425445 0.6026793228730846 0.5200781194792204 0.37466243821416123 0.11563716445104602
Ni 1.9108041958146602 7.607269159757285 12.43483636481346 -0.040601575571446204 -1.0241061274741137 0.7559153851616466
Ni 3.012172492002552 2.4632575471726796 12.466937010564632 2.60685666473642 1.1840254016719867 -0.9830823767635842
Ni 6.528073645991201 6.243162630530317 6.3184392268523535 0.5510938511344444 0.3173057546715632 0.7662818159976351
Ni 8.158031836455642 7.732157356748116 4.901512510566968 -1.5448095392421588 1.1402906797881973 0.12282159801462718
P 3.9934105007609593 9.562751512151888 11.536318540209276 1.8165283493125428 -0.33017978242075396 0.08380022244610728
Ni 3.105113404987295 7.8890852243384595 10.221845784433524 0.5645880289661374 0.5612790191975624 0.6041421371096756
P 2.178457395623904 7.4328894646691115 4.17547768428796 0.18929284226398368 -0.1964410232729907 0.31014857480149166
Ni 2.721062336122904 6.334625358020273 6.024395796631487 1.788056467125095 -1.0338400669324261 -0.7078658379525873
P 6.263857227457337 3.48730750332386 3.7051920452554885 0.28766864853142066 1.673017855489996 0.6392040138098153
P 1.7279711274281724 4.712326016150699 1.8978534431484562 -1.6450355113444572 0.4512198630549262 -0.4350342544339992
P 5.378839855750233 1.3947604009251173 6.35621887650131 2.6320627316884027 -0.017032787112570665 0.47501567992294325
Ni 7.8167003283906 -0.1624904643804137 9.671160712473645 -0.6318830546683698 -0.5254455544387209 0.38906575812368477
