# total energy = -340892.4227530582 ev
CRYSTAL
PRIMVEC
9.05766425348468 0.00000000000000 0.00000000000000
0.00000000000000 9.05766425348468 0.00000000000000
0.00000000000000 0.00000000000000 13.25680719771280
PRIMCOORD
 96 1
Ni 6.313173924541929 1.859438853189375 11.37138400009881 0.3623627949112017 0.6810561739589109 0.5422124894844146
Ni 4.770001536856372 0.29873716772080344 6.124499153426692 -1.082938881341606 -0.261444167617253 -0.5124475995171561
Ni 2.65116929250801 1.652761068446524 4.9220933074983915 0.7829268807534839 -0.5950995672914332 -0.5256353018520238
Ni 3.6856360782778532 4.54642215046876 4.822323134874037 -0.3655622756851059 -1.341774407691418 0.8339452807828799
Ni 5.35245464176868 4.5398825168205725 2.5571987423558644 -0.7274435029741988 -0.044498082412374976 0.5423225326997175
Ni 7.303004540480377 6.1415040124448455 2.5347013156863802 0.3921202286792924 0.0476566826460147 0.3445103401108131
Ni 5.030019906854314 4.455917968456728 11.361163331665827 -0.9578547125450472 0.26249009238326404 0.8807653264602121
Ni 5.7732737266645024 7.752128826415791 12.713317730473284 -1.3293960886317233 0.11455473002014464 -0.5396408721024964
Ni 1.7540619863430988 6.51571235668475 0.08712295591664748 0.4237072594569541 0.45554111613809933 1.0004386086538448
Ni 2.5020167339419426 1.6139218037880376 0.23466415599793314 0.2399029511113675 -1.0095071466140162 0.6082687576835395
Ni 0.6996429775812515 9.092355187063557 4.638808515129122 1.1466114797999025 0.29169910984705244 0.850507041796303
Ni 8.679171713200175 2.170469988708911 1.5572905690808883 0.05100811561675086 1.6539477262324227 -1.3442830330458848
Ni 6.948179597912385 0.6352149054165406 5.042491404873966 -0.13990992095548163 1.0246740841624415 -1.365643758109848
Ni 0.9065182194065549 7.482038333679921 2.71734096505676 0.3491586375161019 0.49200835782619784 -1.3059625401991317
Ni 7.6409912850539365 4.00647666426967 3.800024415368702 1.2567120307034358 -0.754138752877198 -0.5553873363034757
Ni 7.774772987247465 3.69882403754622 12.491558028850104 -0.31888184090943145 0.5410693770189069 0.07709427118084143
Ni 8.26312601740767 8.941255230665965 6.755946976247276 -0.48866772348873905 -0.14990225628150314 0.9217327700115093
Ni 6.811318289845749 0.6415271916899778 0.40051089569554366 -0.036993546505213706 0.2989059120081368 0.2608628411924862
Ni 1.7858453304864361 6.550901382617171 9.33499280497354 -0.2633113027329788 0.7527547280454778 -0.9209853503225236
Ni 0.15828449574626485 4.970257437587361 1.4389730172025275 -0.5350599376000332 -1.215447881847326 -1.476922388481882
Ni 6.274071987617795 1.814693991385988 7.2862197827055075 0.9442168100466383 0.7112265268947041 -0.3832913175337528
Ni 3.510080428182054 3.870602641615296 0.2824696025793291 -0.2861265008552814 1.1337366807197635 -0.3943241783091467
Ni 6.171077286491011 5.598750650302628 4.87381233353953 -0.09361438032305168 0.8064972118742562 -0.17294422570263118
Ni 5.020246687039363 2.8914963002467284 9.362990951192254 0.7110696896018658 -0.39822557024608196 -0.27012061234532836
P 0.0017010293616753194 5.5839051384613825 12.423643661683748 1.001690478783075 -0.5849043719259862 -0.7452324515265036
P 3.9840408297176477 5.930958605031945 12.854555701945465 -0.13391796503810485 -0.14434918767375787 -1.2956423892200462
P 2.3375567226536638 8.588848684474796 1.1514057611367718 -1.2462602392424924 0.012248478350049873 1.8700620595646242
P 6.494082654258336 7.7508426380805515 5.943105838668488 -0.26533141848680114 -0.6281994351691956 -0.12026257903819934
P 4.606094043092387 1.2136092709413793 12.661536875016278 0.09082524761368874 -0.4986628870282379 0.35575300290416795
P 4.0522722151356465 6.16171166157103 8.101340734396828 0.33032659241126333 0.41805803159097676 0.16855766659916133
P 4.617280258543233 1.1769347880584007 3.7982871553496964 0.2764966910750012 -0.3706795423070132 -0.5590285326004889
P 0.37229808283214494 5.570300526633713 3.433659102674456 -0.4559095552211116 0.830660182273705 2.3181942848331625
Ni 1.5418137380356562 1.2083648832927636 2.615753824967273 -0.054887653176815154 0.4674360678034724 -0.41532263493768473
Ni 2.020339202394915 6.483621051954103 4.762256328085507 0.35772786724235167 0.39563158426666056 -0.17079812589390583
Ni 5.968249009089544 5.545428180376202 9.213600176054237 -0.6253876767520132 0.20002591241077167 1.135885094521334
Ni 8.5956147597313 2.228900981318961 10.177330226451664 0.28142215340107657 1.0439969528607698 0.17925294152947838
Ni 2.2496339749764416 5.34926634392358 7.12924593098818 0.5797048300029177 -0.3924423879054016 -0.5753223846645059
Ni 0.3646506968360721 8.873087248898294 8.96791193679701 0.8203937673506903 0.3990565507878095 0.6910413101960808
Ni 1.1792626077918968 0.93459697883783 11.42490211557482 0.4752846173136137 0.6843027059206666 0.1768178497254245
Ni 4.2425918580936965 7.090384927935295 1.3921765944277906 -0.04689075101426763 -0.6902825776531853 1.1848345278368433
Ni 5.802665847424015 7.927775053154917 8.10600724306102 -1.593743031718068 0.2500670361285629 -0.5542249405642583
Ni 5.2807088825896065 2.7218915356174933 5.143813155398506 -0.29671353234250836 0.02033691178513917 -0.2607893076420735
Ni 0.900594506932989 7.412312433647032 6.901613239811699 0.03384368802232236 -0.4549093960913714 0.010760066729981468
Ni 5.329901057580333 4.427875439682783 7.228698179594457 -0.5110144666150555 -0.34412647440883315 -0.8301498182961896
Ni 7.81462671031121 7.16993839376913 9.162574729802577 1.5032929080556108 0.5581980662793935 0.507922457953293
Ni 4.46665130069094 0.3416496640296914 10.660832877361726 0.5322366092186254 -1.448207279935377 -1.2484801297119468
Ni 8.229766639670448 7.411162110276782 4.602643978748072 -0.56414554211208 -1.3670671208199359 0.3406079197326134
Ni 7.17963915226942 6.019596908191447 7.301650419662644 0.8017334719370257 -0.015920527884998387 -2.6480830183760586
Ni 2.4909573257917534 5.404255424087217 2.2781031197404547 0.34218143486732033 -0.23035207419813877 0.6633194188007802
Ni 2.075056552628571 5.259658870680482 11.236509943586762 0.37687615803602836 -0.4640342412107751 0.7713276059516587
Ni 1.2881357330705834 3.5716725456442067 3.7948271275746164 -0.7389620451367596 -0.015367483595005792 -0.007793013681857547
Ni 3.5534575826712085 2.9495196979618084 2.682740687305963 0.45001915787860564 -0.7001057343911942 0.3522285346906772
Ni 1.0505531976246643 3.3360464656941438 8.31611425952022 -0.1653489298538765 0.16895361648599935 -1.1893707251443
Ni 3.59845605907591 2.708776037663788 7.1292196637616145 0.04697945407333199 0.09862134661933983 0.2661220327088965
Ni 4.331556237169176 6.790313566258289 5.989650458374776 -0.24724293641620648 0.7488649060727683 0.05025143995638442
Ni 0.582328109144517 7.598528954662383 11.381658108751356 1.7395916867554877 -2.3364640296766277 0.204485490844022
P 0.18508159567446736 5.601114700693454 8.151292847425067 -0.05179101652936241 0.04630068283875252 -0.6652415755241575
P 8.559574313351607 1.6663928532671914 7.9592812327696745 -0.421049767229449 -0.27492369016092655 1.1817589742353132
P 1.7236554071783277 3.1302019860698986 10.320888771525874 -1.0912741406801787 1.01972445346665 0.5760875449653047
P 4.233796866026674 6.158405614089607 3.6792676344855533 -0.14378894429491365 1.5821589264248945 -1.0540538228761396
P 6.817033676039665 3.881345031513842 10.36537820719508 -0.27228162455238913 -0.9375028883615725 0.6194911087619202
P 6.114892594635463 7.7843559961114295 10.401754692921514 -0.5612409668707754 1.1241562361201802 -0.41934538294383256
P 2.5597231134053797 8.5146573559259 5.8377017988292135 -0.1394052134049212 -0.18082414267134017 -0.9338606636232948
P 7.121072294694379 3.8713453700905744 1.522875973448911 0.7766238213535915 0.17908710537557546 0.41901910995266545
Ni 5.570074085025396 2.800666042318719 0.519284048089838 -0.1787196947338277 0.13882722941426412 0.13993357510456547
Ni 1.5618583492038536 1.025345717786845 7.120907445203524 -0.5374397506861196 0.39228966437762114 -0.8929171313313977
Ni 6.963079455739627 0.6498801697375657 9.315784216223246 -1.082732678868071 0.32899604652529796 -1.1293123263998228
Ni 2.598897511644175 1.386402333415714 9.230052517548096 -0.8049414373513621 -0.35872262705545316 -0.21317761930138127
Ni 6.5717974142326385 1.7616885397112065 2.7801513383716565 -1.4075511969769114 1.0821112432339879 0.03445715323660517
Ni 4.1430662424063245 6.763856128742561 10.288899818402188 -0.6341757073572886 0.694266759111914 0.7298600828354913
Ni 8.014248574538913 7.153598367312996 0.22663725386632147 -0.8544472573909736 -1.110868003651706 0.7364981569772993
Ni 7.60971517011323 3.8425057668553553 8.366079053278524 0.21697899532534243 -1.0701844098894149 -1.4385486737996902
Ni 3.2283146061213737 8.325279710058448 12.555933566561686 0.5442246348184369 -0.263577669020488 -1.3483839425881357
Ni -0.39675015346461934 5.023154197290151 10.202902730162089 1.7291221546827318 -0.595834902795561 0.40929751178952734
Ni 8.774748187238503 2.3845660005402185 5.918183675257147 0.33713358803076776 0.8571561716817043 -0.5735436954975284
Ni 3.4194947271910276 2.348887860733833 11.16757387188368 1.069304835497939 1.5685721888793953 1.966377126648291
Ni 1.2123140249418074 3.3580384746938656 12.543750102267813 -1.0716070012685546 0.24009604095878007 -0.11271613414950911
Ni 3.1083458420351673 8.34374828763276 7.973691070956518 0.4453544054130847 -0.9689179123377443 0.5113548806736097
Ni 5.643540800427678 8.084173743187119 3.678644467179466 -0.7557706320536661 -0.47511775271844636 0.6799143470449839
Ni 3.086679908951422 8.652225161810483 3.3366324965764678 0.4235427088546318 -1.0849032041568283 0.9505257829838016
Ni 3.234700259475906 4.500318639015473 9.163874504634313 0.2493430134783448 -0.9665082744549869 0.7532517222865543
Ni 7.142538959162806 6.272432550373582 11.399714562598533 -0.325635100472865 -1.3501304929655973 0.7003348196828648
Ni 0.19228062728607306 8.874581763513184 0.35677505769881607 2.3422898923297852 2.139223650430793 0.3874984136365649
Ni 4.532862826962754 0.3920139007850665 1.473123129035991 0.4285149652582427 0.9698082853624976 0.26640665382885087
Ni 6.130752564881966 5.485620422787586 0.3769863298907346 -0.7640999778549679 -0.34648083357362264 -0.4539765998644569
Ni 7.9536256271603545 8.843966858068763 11.147384338086162 -1.7273036134167543 0.9965369596065934 1.324340528485687
Ni 0.22735371511503563 5.05772730204795 5.923897249918195 -1.0648570841392304 -0.7377001477052004 -0.8660506459578569
Ni 8.157096998729441 0.036948930112258416 2.6169603058563844 -0.08469470923591865 -2.0215951665813314 -0.3611541193150813
P 8.639499143423084 1.7104493325812957 3.7684992146588465 -0.07981064167073997 0.9169356057331821 0.5575745737627816
P 1.711943847196186 3.3397872810635367 1.5539627832050658 0.6525922621912632 -0.8627051265243917 -0.6307466270710815
P 4.491650454249108 0.9949934846080698 8.323219997189199 1.5580818308710327 0.01055566402865924 -0.5441865824916499
P 8.360695177599185 1.5722112595360949 12.477054896720635 0.5577550652047039 -0.18112933261658484 -0.3154800143167341
P 6.447290760315766 7.9553012950619 1.7122092367611332 -0.2319214755677877 0.0016089963583327128 -1.400582221858246
P 1.988329416643261 3.472726620474126 5.8682315622289085 -0.6580229462885313 0.3881771848711444 1.158271175526018
P 7.009907580339528 3.804726248923791 5.869689846186469 -0.05428961458150005 0.5170370186600515 1.4875099341897413
P 2.298237401785546 8.484287007418459 10.291670557921549 0.5390824284958652 -0.5141643250979467 0.041519202289709144
