# total energy = -381164.67057355057 ev
CRYSTAL
PRIMVEC
9.29350354000639 0.00000000000000 0.00000000000000
0.00000000000000 9.29350354000639 0.00000000000000
0.00000000000000 0.00000000000000 13.60198183253172
PRIMCOORD
 96 1
Ni 5.622987684964679 8.40922643231543 10.848913230842495 1.4321288863162756 0.15025244053207026 0.3740721129283299
Ni 9.157836707583014 8.02200332513871 4.255964468466671 0.6345580303973716 0.3534258974328881 -0.5134112489820061
Ni 4.757111985457767 0.3694808800872203 3.1137789765384896 0.389584092521 0.6096728371199178 0.21321001520121344
Ni 2.9070728768451044 0.23084225703147063 1.2497150421436451 -1.7030308569123185 -1.2967927007744053 -0.11625088677564495
Ni 4.376533733117878 7.71021558399073 7.381196758433006 1.1781571158166677 -0.21314959427692323 -1.0296967341880137
Ni 4.577868187922189 4.022711476687405 10.991053645929737 0.4204147047486114 0.32382144430289395 -0.8447814521664354
Ni 4.68809843018742 1.9638380561329176 4.852819270165635 -1.2973192627018366 1.4117423522401236 0.1607407416579038
Ni 5.9740218904146625 5.852713792253627 12.171202169358573 0.23728325410033327 -0.6572140772339907 0.37924954336421135
Ni -0.005189492225015126 4.028213230622235 5.7611597741563605 0.9413716272883594 -1.4339250589847496 -1.1393267732130314
Ni 7.1750677852925815 6.884097491465579 5.077578929308007 1.3084619095822174 -1.0051054180018948 1.1594238010732227
Ni 2.6303774040382004 6.959997532657732 8.68690515776812 -2.888262105966948 0.2159541536052539 -0.7634312339227175
Ni 2.0849695777318558 4.853067406702898 1.5712600323730073 0.8215718468191916 0.2770224816714842 -0.3200118407488166
Ni 3.561428441965654 0.6277213141039472 6.321493896061911 -1.5094435010380391 -1.3426192721902168 0.09907283233446162
Ni 5.869014596986214 1.6122834144999088 9.924794217002862 0.09831255712966938 0.46471686910009646 0.8792969694448017
Ni 6.91676415545363 -0.1464572473553651 4.191409936064451 0.8557814028213648 0.4017004161685598 -1.5135716642738
Ni 1.2185920290484566 5.329508145255237 12.435883930490553 0.6692157296805571 0.22216182507786253 1.0628670502923954
Ni 6.790223814952546 6.246498112737762 9.991226966415605 1.0930577149431626 -0.220985031160942 -1.0505684354307003
Ni 9.137641924981011 7.061714925929205 8.124899134624604 -0.050198218120945805 -1.3692258190341515 -0.07420692233071736
Ni 5.576994137289893 5.7668418220545945 7.0410247996030035 -0.8933089674531777 -1.0270778085079277 -0.39798285810765655
Ni 7.061538349367107 4.891904956861097 1.492966914089268 0.9252829492566129 -1.0847815909772995 0.05699235822464379
Ni 8.363270058653718 1.4100196093687676 10.222528322508529 -4.000209715836079 0.31580757285948197 0.7730672143505847
Ni 5.696508589320149 3.9156224385268588 8.845708824215412 -0.08651119361936714 1.388477468174912 0.5487243224610034
Ni 4.0119403063994525 2.057646678123073 1.3717601151138565 1.061032825297134 1.5316010109716849 -1.6274321964403973
Ni 6.62626783029331 1.6179152774804946 1.5969816613686634 0.3969158502957229 -0.24977341614754406 0.4082245904403228
P 1.9748973250221868 2.339026076577197 11.49560537316801 3.462334677384753 2.1232884672577756 -3.011372438866588
Ni 7.912758194219919 1.9910029661861397 5.702086549981779 1.4549754518971458 -1.1628310269825586 0.6183209997132189
P 8.512421492606562 3.3504845047819267 2.5206508696501118 -1.1494908582302268 -1.7709686584048727 -0.25695270750480265
Ni 5.088258093913604 7.639882351256285 5.08284276955917 -1.7076210473861624 0.49988158992668746 -0.0758665694213274
P 0.825178519344727 7.241507040157613 2.172181671102176 0.6556755291022772 0.1368737052323191 -0.6222776703681219
P 9.28431199356122 6.17058877804234 5.413805796000619 -1.4305116624278267 -0.35262679857036044 -0.2722410011224408
P 3.8474638855571937 5.189482931511857 2.787875333276298 0.5241435477978458 0.6788830775669922 0.09950734876871896
Ni 7.19626626624756 0.34015708922477367 8.29650181377299 -1.8344036869310667 -0.9685926677878416 1.058499774462635
Ni 1.3341102746733458 8.495116989521 6.247988790661997 -0.5731464600591097 0.021761560046807685 0.4936880595214658
Ni 9.28224883583566 3.224111447339671 11.511928482308441 0.842527366024936 0.953089944166552 -0.13106815429413554
Ni 4.792706102975331 2.003614250121214 7.744614556987991 0.33018029664138615 -0.46122968188244434 -0.9921288032365686
Ni 2.4043222305402274 0.5226647651081763 8.599798080984732 0.6805476097536086 -1.2075165428153913 -0.20437801873188027
Ni 7.575088046469742 4.673303172984296 4.101051991837813 0.1538707540109479 1.7612246916442313 0.2862054337223329
Ni 2.7275781547212827 7.039596388150667 0.6002515771435252 -1.8135612962644185 -0.4060954599124619 -1.3983124519874628
Ni 3.8546663505901213 0.8317713305632544 11.022420148810555 -0.8968442342999458 0.3989310809535388 0.299821996064503
Ni 3.893922108395393 4.931588215816711 13.019476903025662 0.2877064437478916 0.7511120502357322 0.4543838626052045
Ni 4.580414607817702 9.051565497710076 8.955857283651882 0.4855397193827186 1.7724444716194507 0.4640627804558653
Ni 3.367714659841343 2.5861960895007328 9.367997202441224 -0.546772083830639 0.8779849355015976 1.2991722567501756
Ni 0.9115885833829936 2.1312512240079577 9.361972224272387 1.7408132178674147 2.0432633955833843 -0.6517679665177549
Ni 1.377715392008179 5.590925098689066 6.878344812942505 1.8362296843962118 1.8848870403925992 -2.581049730975645
Ni 8.625616362414378 6.127392574851312 0.21952927550297688 0.44644198205030855 -0.011763568293831354 0.886815389309034
Ni 0.8373929706902451 1.1988990956229428 12.566176987611376 -0.9931132786370251 -2.1755602800782987 2.78724114876718
Ni 0.19488011678448186 7.629817487216723 12.343390339212862 1.8372627536464163 1.083852651405127 0.19597179694605604
Ni 5.325781450444651 6.230950081769907 1.1428109446981376 -1.7350084382601794 -0.5951872419092329 -3.450823334311044
Ni 1.0632790024287349 4.75464920709167 8.761784772301414 -0.6725303958760869 -0.7459960691654055 2.274093952079838
Ni 3.2892774922569457 4.8055497244921135 8.032881370714248 1.7188050890274398 -0.7712725843440073 0.32967944574556773
Ni 4.088899806964192 7.224332646117806 12.020506155162538 -0.3338294633581993 -0.9346564200517129 1.7354193005453533
Ni 0.8490730455978365 0.21315764966223483 10.525702844827455 2.4244222401551663 -1.684600932341905 0.5032852162915977
Ni 8.298271296795274 8.271896334519857 10.438989812582642 -2.6006513072566566 -0.27333217730409054 -0.36694475785492936
Ni 5.303374814064795 3.454348697308376 2.5313969474792395 -0.45594195112094377 1.7538397120340699 -0.40638496612842273
Ni 6.830288107542159 3.589829387953559 11.522089069431667 -0.036042752556170184 -0.5924186780251604 0.4627731151101643
Ni 8.192027967432141 4.116185532559902 9.672423559650388 -0.44707010255261065 -0.1672392048980539 -1.1728786410265477
P 2.9100282108844215 1.748293834831385 3.082957072949194 -0.6924029664302978 -0.45529531867588036 2.5671032960978817
Ni 5.895854234425046 0.3647858022360784 6.146218424421894 0.13252828377942982 0.2754240268361127 1.4189987766922207
P 5.777501470303327 8.403111307164894 1.589010623615448 0.3738597398072077 0.569162278600381 -0.774633273286124
Ni 7.82823378199479 5.003650040159059 7.374817697789649 -0.21347046795145172 0.4618223211611208 0.3220702659397421
P 3.061038345490924 7.2503544552690276 5.940298555105007 -1.560388110406706 -0.6357101417239439 -1.661328592077526
P 9.297685344764295 3.1554417516902498 7.749388629616915 -0.6951306497741061 0.2069491218931662 -0.7680975290501353
P 2.5075823453542374 8.863418524043473 12.861013378797988 -0.19779213798424644 -0.652891795709553 -1.0801649181408945
Ni 2.975947029566428 3.8810227258590015 5.674638188078874 0.5175898058397279 -0.1867795889238267 1.5647877821362988
Ni 0.6261674403574886 6.6593155279153615 10.285750166542076 1.6415043582627473 -0.21400191497488952 -0.7648656523763988
Ni 2.529031750897459 4.977275077883641 10.566141665598781 0.27263592256801433 0.22062122006362003 -0.24020865527724436
Ni 5.966503446270614 6.699184656936342 3.1306457556201157 0.6809828975188142 -0.4412920624182529 1.637085403259445
Ni 8.407404905674845 5.593564453617262 11.537757915942011 -1.2419035049356935 -0.4857554349379506 0.5887682257567667
Ni 2.768153589990652 8.218003309067022 10.589795490117242 -0.9093639640335113 -0.5720789380265437 -0.2997469198521934
Ni 5.110915654881704 0.2963744659775159 13.317224019435903 0.42463337081564934 -1.75412793269845 0.40083832527858065
Ni 4.653173444905172 6.609177077782919 9.437191051674976 0.4041303657662911 -1.0602041587482516 0.8653495061257742
Ni 1.1783139858836726 2.391831762147641 1.9413700826314912 -0.8216263542062109 -0.9292216221893869 -1.160612422064685
Ni 2.3376878121065627 3.349248468847244 13.39329970783983 -1.0452249117305998 -1.4141118809135644 -0.11654836341140572
Ni 9.096676162574374 3.6973831012775205 0.19547583034397947 1.2922539323637874 2.0659405254659258 1.8685137412408979
Ni 0.041760356936077124 9.243838786827801 8.336763128631892 1.4603529141589753 1.0191528972338963 -0.7270982038196381
Ni 5.040591715650526 4.801897377707674 4.694601094424245 0.4851023747349839 0.7572053076176637 -0.9081334340605199
Ni 1.7612861524004593 3.6503115072236136 3.8606095459301946 -0.43305167678633155 -0.587699161062304 -0.7803771177484367
Ni 4.4569504168984215 2.3000305368634373 12.61262777564696 0.15909369297278406 2.185451828160397 0.21928398930943524
Ni 6.6446596732612635 2.6996790579098655 4.1078799286890275 0.8004430352603763 -1.5813587991211024 -1.0257593468068205
Ni 6.882424660877286 7.482208774806415 7.498445454366451 0.49726446401881463 0.4144659433643443 0.37300279112355117
Ni 7.1366949102977975 7.820836153393229 12.920385853777809 -0.43659131450847394 0.6814143286292781 0.09743889627546445
Ni 2.7367973099634297 8.51690096118188 4.120176162863307 -0.7043205438034903 0.8890720465536947 0.5035821787067262
Ni 7.198143553907754 2.449832516045061 7.824008955409024 0.20351772761411402 1.7083792657084256 0.12042121610325068
Ni 1.8636447973974446 6.089837528144137 4.161974623162784 0.5024326384833154 0.47344447878108137 0.1484480403334798
Ni 0.716325574263858 1.1810648628510874 4.469379548169438 0.24396298011335404 0.13203411775183066 -1.034710128242205
Ni 9.357349635746738 5.20046785237498 2.58410412191504 -0.03726968298473581 1.802424820031625 0.34127460678233484
Ni 0.21094300783340045 9.075328985567102 0.7656527015609798 0.22777634305116257 -0.17460130169007995 1.0288305295329765
Ni 3.890353403140368 7.672028579061312 2.3126771361109313 -0.08108590883873777 -1.2659356061842326 1.5135788633626515
P 8.589715559288958 0.4422155540661931 2.7314684151893904 0.16869033552228369 0.22341112410393138 -0.006664042283736911
Ni 7.792388739888982 7.693041189950924 1.899789090308492 0.3917777577382091 -0.08373980152181708 0.5195695552739181
P 8.069781225441009 9.060477967344369 6.305402195152861 0.5591378044848435 -0.2465014302644916 -0.3153869403822956
Ni 1.3493423265300788 1.5840497515708327 6.763871157084972 -0.6769843178823824 1.0979577233479414 0.15242116604861491
P 6.934282409114364 0.6288030778843766 11.899203633103463 -0.31887824136500564 -0.5298161727025907 -0.43571353988921085
P 5.241089755160691 3.7320943359845975 6.500795313317752 -0.6902154718606758 -0.9708063876097086 0.9133257768947367
P 5.9129356934321695 3.675515488087226 -0.01762791699929923 -0.24995287914820177 0.6634330615605091 0.08598334614035515
Ni 8.041696258564226 1.970018235806333 13.219997246943672 -2.1238008881178194 -1.8309743495345434 -0.529390912239714
