# total energy = -381168.7518681977 ev
CRYSTAL
PRIMVEC
9.21694656848651 0.00000000000000 0.00000000000000
0.00000000000000 9.21694656848651 0.00000000000000
0.00000000000000 0.00000000000000 13.48993296621249
PRIMCOORD
 96 1
Ni 9.057364457698192 1.657575689561511 13.447223800851846 0.09174930208985489 0.7651014225362888 0.5201426541685688
Ni 6.544170391592616 3.9572038843212805 2.2303582320434687 -0.8858093166420227 0.584119928351478 0.4809351307311718
Ni 4.024994527096664 4.745381862063513 8.049929144039957 -1.9008201666830877 3.931224961136249 -0.4018731943009982
Ni 4.0596318126914825 8.521187018925607 1.5707004370062898 -0.4617302756679467 0.13121702116717404 0.576954263840974
Ni 0.7644784427635316 4.236228510934357 0.31791092462386367 -0.12946558569370606 -2.4134202326177085 -1.7649224522107925
Ni 3.1236877458975925 2.4873220967961944 13.317747820776866 -0.4848149254015521 0.27691938043471664 0.46403501254172336
Ni 3.4685582395381784 6.6567000935157505 5.988599575326668 -0.1385194683658582 0.27139176574826807 0.15594871958589915
Ni 5.728489044979991 0.02634940714701094 8.849113077803683 1.1052002638429677 2.413520762751314 -1.577773652873005
Ni 7.112791482651993 6.1702665159340215 4.915570017285079 -1.2631937817730374 1.407410557633989 -1.9778661011244971
Ni 1.7948436763533235 7.146359602432815 1.6970472636859948 -0.8517077469726235 2.244252957459006 -0.568598178566795
Ni 1.4887304434701112 4.0341377381956685 11.558093525124036 -0.7546455173102874 -0.5667477556216175 0.04301686988115817
Ni 7.504262858668153 3.6369426382959595 13.598931977995282 -0.2187186037242685 0.019552468210630843 -1.002852617411976
Ni 1.204129564120243 2.2919136103949844 9.879325310078713 -1.085358546526692 -0.7928510818457313 0.25643642999001637
Ni 0.7988954433328802 8.889063011460463 9.528317251648986 0.2256001613354502 0.038789976284004164 -0.607589729338644
Ni 5.729097363460369 5.195519103649395 6.668801944496591 0.7810312063926678 0.29690173709391443 -0.24855188503561707
Ni 3.825871611186483 0.47432988321155545 12.880012902633343 -0.8417676050407761 -1.6370476080429741 0.3082588139779465
Ni 8.964107391267012 0.14529594734345896 2.2991028287994437 0.6075236519873988 0.7231122225886967 -0.06266678290160176
Ni 8.837826004908681 3.202732280559956 1.915543279806859 0.08851125476853143 -0.41021745250063546 2.188039643492232
Ni 3.3886196610485935 4.620519885492729 12.655243832607255 0.8724341808866973 0.3813586192874142 -0.23635585719005744
Ni 3.243941249132184 6.715882108099128 3.4557835514502546 -0.5936672057202808 -0.7605001763188516 0.4305517931826134
Ni 0.16383583557495907 7.9900420330361435 11.650890665916265 1.1390231259296835 1.3719036229766308 1.0692654976195715
Ni 1.059985735110832 4.90072428127987 5.372298297436384 0.3071835786358968 1.4353479074742053 -0.8218456693058684
Ni 6.122025017050764 5.467474332164753 9.770057485582935 0.2038026058443845 2.3979344782772833 -0.8888933548839852
Ni 1.242389109757308 5.4287355053007245 3.005111726957374 -0.06532864600448104 -1.858857963318689 0.34111468416570284
P 7.368543318917301 3.1249043828583467 7.313999271899467 -1.231785185554769 -0.677543275709646 0.7169999390433717
Ni 5.805800793667947 8.457792859712951 13.24646672029665 -0.7901915327356971 -0.996044079130575 0.7403918356047507
P 5.193712582101608 4.876769436878345 4.506136655593778 1.7833881151151478 1.5252874100488312 -0.808800406086136
Ni 3.214290331687126 8.983462979279018 4.588992397705173 1.4635449387337118 -0.16124390654656745 -0.45163895287021566
P 2.1770520209637367 4.788627775850338 7.0911454833919 0.24130703054774572 0.9264222050673787 1.6634615792601286
P 5.412126567397087 7.677449286642245 10.140058906020444 0.44733595461948766 -2.163182475239236 1.4044123942376137
P 8.790432465119284 3.4269713761523826 4.27753610083598 -0.09668787704205282 0.3344858659952756 -0.6164340671031512
Ni 5.62641136058334 0.643596343765883 4.294749670441323 -0.2169658826992199 0.21080500530414661 1.5978241437659773
Ni 3.294837228657088 0.3385227824673156 8.878965846380867 1.0764113646357334 1.7882405581114427 1.331756361333784
Ni 9.098582643217092 6.450572298134559 10.165379701918816 0.18269770554496922 -1.2596747128761854 -1.9624870475652652
Ni 2.631604180005691 5.121525455763498 1.17456344258457 1.4581541067354435 0.486102276754408 1.1591852026998553
Ni 1.3292956999312153 8.067445951190821 5.2682776806811935 -0.9007870209977777 -1.5908765088035506 -1.0493587313933153
Ni 7.411770798810781 1.9156041116548967 3.2353851575362103 0.42775751826692776 -0.9789259313930496 0.2362339869002125
Ni 3.292800283442491 6.897935238772053 13.216330069761957 -1.47448652534688 2.165239357768265 1.3114173926661157
Ni 2.285627652764419 8.729259590054673 7.173433461588275 0.33102207581639115 -0.34670683354149967 -1.106684818808294
Ni 7.654121194614441 0.4895221764116457 11.78012424029376 0.30609111690266644 0.6580586846224731 0.21454930283792728
Ni 2.2443449486188114 6.305958404844856 11.10983654065932 -0.9286433810884136 -0.08915377344853678 1.2289376888036447
Ni 5.031623357921066 6.369702808031063 12.157572953642553 1.031898884045655 -0.41249159324679285 -2.808786221927808
Ni 7.792596601420336 8.429054419988459 9.779850491422343 -0.8345150372434209 -0.7894939924480403 -0.8036821110229644
Ni 6.732924242496365 5.9865174670733765 0.17222049196282663 -0.7007891336114641 -0.5695196619397997 0.057253839416146556
Ni 2.6710895795501837 8.56028530670986 10.939297219769536 0.5401784897735212 2.122223259218055 2.93283346481942
Ni 5.029494243239745 5.999531795774782 1.8759905965516581 0.006933236784723544 0.273543007763316 -0.18367883851131594
Ni 4.60776363129815 7.393733234172926 8.171863818347592 0.5662232505767152 -1.5336123849747587 -1.243608660552258
Ni 1.7850460620405797 3.266319995652732 3.9549918171199083 -0.7075781315088394 -0.8969938725039326 1.3114078795844188
Ni 6.500399111845465 3.1349785055712625 5.040567482971947 -0.9837786314996607 1.0522962167550847 -0.057429445762062374
Ni 8.78701297790383 8.538431926149636 7.017854166842438 -0.5365504061026308 1.5201300342176076 1.177003976048831
Ni 6.156948027992427 3.931663725092105 11.351387827186485 -0.5008316125447827 0.34905605049996663 1.9511255998058592
Ni 3.741250823787327 2.0150641831965905 4.361146710879842 1.749271890157729 0.5880747992341678 -1.220566434020814
Ni 1.9546839655458044 3.0278960191315067 1.8365199441218416 1.0377864531746837 -1.9794990087422297 -0.8718253436581049
Ni 8.498725319885008 2.9240578979204304 11.472689297257729 -0.2546412857628066 -2.0066670845165895 -1.0271865661716504
Ni 8.518578623017323 7.779766611652378 0.44488450367729077 -0.6154531912471207 0.7694350169146361 0.30511049815695196
Ni 6.505118188541727 0.8848692785035421 6.675452893215383 -0.8759673908509367 2.4074372755613958 0.9550596662984131
P 6.410893342709946 2.182241161940289 10.304163876438237 -0.09412860095530885 -1.9569352645091003 1.1715519517953243
Ni 1.5600511768210175 4.710329813868437 9.381965042216873 0.32888806019252387 0.33143730897693885 -1.1389107687215352
P 7.145972490672575 6.418220815314491 2.735219251107296 -2.132376545601973 0.23617228042434166 -0.907933916455204
Ni 7.498225758597741 6.475411969416633 8.00255219475457 0.31013494795473684 0.6699276681459172 -0.23473606219844736
P 4.294590217263892 0.683655959088065 6.476004619087667 -0.4185046322100921 -0.2532965988094541 -0.08092958576653159
P 8.97391422252643 6.805000765474407 5.85651980781674 -0.48188721023179587 -0.5348501355820724 0.024179682569997064
P 1.7530540401407353 1.4586739803714677 11.863721946612282 0.08165617951991098 -0.3211212717629115 0.4858186840757181
Ni 5.303403464449649 7.472123365621551 4.070196276967369 0.1279540341451861 -0.4119429198321744 0.22326277145152515
Ni 9.002348503010733 7.125132974246315 3.345557164500549 0.5168464999158002 0.9166281017950924 0.5651061062531364
Ni 0.7750797748261076 3.2099030650710705 7.337255471743227 -1.7413940300715494 -0.5510933369138122 0.13800807594707845
Ni 8.578064796840888 5.596834178711661 1.382542922552244 0.4340919451253879 -0.03135511727251374 1.043439537695403
Ni 1.3407707985383333 9.099661025977761 -0.03669542978676181 1.037535256395826 -0.6620114986226341 -0.2682833020262735
Ni 5.767780888644364 2.000630444707638 12.94386053562228 0.08967082229427138 -0.4356199517341401 0.1857920281995768
Ni 4.037999638851398 3.9465122261813153 2.9802904895686444 0.0448598366271679 0.34110311420147704 -0.8810679453022956
Ni 7.789232415884917 8.869126755808097 4.665439596795259 0.7602338100313424 -0.09219333160580896 -0.006196358618699006
Ni 8.335548495997124 5.0402504200064175 11.762318021017382 -0.06891404936289422 1.8126629528198652 0.7107110207108663
Ni 8.283509615084846 1.8569105952451566 5.743055507501027 2.7604852208295747 -0.5154177378890737 -0.23338340482529485
Ni 4.66274271819892 2.8835678511886482 6.7112008208842235 1.3770332308937123 -1.8946382062420917 0.25363752708864057
Ni 5.362041679179354 9.590233012615393 11.131595908363483 -0.7650836819244758 0.3851304276250206 -0.1500709206488835
Ni 6.560548905829442 8.735213737605031 2.5336658263596075 0.6774769412480849 -0.7780371567613503 -1.9006905830837588
Ni 2.8877799958179273 2.7507147818529076 8.389416019129204 0.7148782647146784 -0.32428218598939634 -0.19655183781924215
Ni 3.5011770138117453 4.267879505807323 5.407507033724889 -2.112207526853265 0.43775036781358156 0.08232826588627112
Ni 7.234851507434373 7.247073178721954 11.771626215461822 -0.3634614272920192 -0.3747837942833739 -1.0489892638690386
Ni 0.9109366470823782 6.248389355929146 13.087015386253746 0.5063312022067732 1.4250025596841394 -0.7579205885171335
Ni 8.42744145432079 4.362039833012396 8.787085791782541 -0.7873607481551215 -0.14261703547399956 0.8572942399214656
Ni 0.9531336723378859 6.582936869296663 7.886579041554633 -0.8978994150373375 -0.6810559168485948 -1.2414260510786426
Ni 3.4340960759301353 2.5399416453488337 10.791973544158152 0.7376307279198457 -0.7266276919411228 0.30754199041658004
Ni 2.360266486917383 2.0657389560013573 6.036987623662016 -0.9424262938051189 -1.4052361756904894 1.1187445781863057
Ni 3.815272122513242 4.876557447104879 10.42666631466089 0.7258759013767628 -0.35213366098402576 -1.0747298631682523
Ni 5.255668897633372 3.3911819722235164 9.010344204249026 1.6942124872897402 -2.285433288352057 0.9940255060386493
Ni 8.173671261590046 4.811909783144779 6.1583969320093255 0.23778024834140984 -2.5105814497517533 1.7477215149514738
Ni 8.10710647272209 1.5604751563679473 9.291609470598159 0.6291039492613358 -0.07869529711937415 -1.275182064483165
P 5.215141983114901 4.060571941252065 0.11200617935214298 0.9077706514044623 0.4000531103731239 1.0208768219035385
Ni 5.2908592000285335 1.5950294894427144 2.1441576599846663 -0.8050106000264007 0.5167493122163036 -0.8784811584117258
P 0.9304231157371321 1.0565570309487051 7.927440531237313 0.2744621771434757 1.0165028612055589 -0.5670017806139526
Ni 6.332318872327875 8.02359171892362 6.354055197665357 -1.1382250555084206 -2.4007362093921363 0.42931740655488
P 0.6086364650375311 0.6273385715304652 4.39945879311294 -0.45507034714926786 0.7085494942831733 -0.7384833057281281
P 3.064588683834267 1.0840327489790813 2.524438741045884 0.36426875368466294 0.18389866783160588 -0.5879225899270197
P 7.253110278792365 0.4748358935838693 0.49792250160885637 1.0441021109800663 1.192196110408237 1.4634791184927827
Ni 2.606921196817047 7.3402749434731 9.182313995262364 0.07380480179629224 -1.828695837913012 -1.4116523636294787
