# total energy = -381175.7642956984 ev
CRYSTAL
PRIMVEC
9.14825112754552 0.00000000000000 0.00000000000000

0.00000000000000 9.14825112754552 0.00000000000000

0.00000000000000 0.00000000000000 13.38939024455351

PRIMCOORD
 96 1
Ni 4.88939252804866 4.120024618620314 0.8584663852557701 0.10732247393776356 -0.18210378071471217 -0.3321096524536151
Ni 5.542376388205336 2.1413860019898854 2.4535124335167926 -2.4879377442103086 0.2572339861906473 -0.09981588114807326
Ni 1.0312914839211271 6.4730279628325125 9.026055985594876 -0.5678451024508543 -0.8579187608793418 -1.0864672062098386
Ni 7.37474361953434 1.0144404055719356 2.7670778849266133 1.420847142754869 -1.4924163703524234 -1.024999071602028
Ni 5.626027995385035 6.019302157791874 4.0057977269353655 0.7894824224838145 -0.6090092353939899 0.4311320911661156
Ni 0.14558435165103145 4.065738897163147 1.2736350567902528 -0.4783288034565762 -0.11219805686251 0.15778140191926374
Ni 8.012696903291602 9.078879816541619 10.66980366290028 -1.0212025806740734 -0.48535922794079633 -0.12285219414224648
Ni 1.8628034624189937 8.77823169554931 1.5986660111832671 1.033014485707337 -0.5837700012112269 -1.0080724710500186
Ni 0.6704533602737311 9.281266573500991 12.2301632026549 0.8925420073801661 0.09168348184892598 1.7098352814286617
Ni 3.341709719710151 2.7726519142632924 7.3967808413776455 0.3042458361638115 0.06985970110561517 -0.11795064307557106
Ni -0.10458646477703466 8.10316395746921 6.247596761594304 1.6535366068369328 -1.251894040489502 0.4120249380230194
Ni 6.842699637649278 7.437573807429154 1.7978600285422779 -1.0052802530168623 0.6979035845335528 -1.0489571250795224
Ni 7.222141644538214 1.8959658723081465 11.688147627175583 -0.7115936804261358 0.4712965792001432 -0.03712415854580703
Ni 1.3186654927067705 4.273770124991929 12.403663442244346 -0.3709243113279676 -0.26089652264389906 0.46707019982362147
Ni 8.646926848890274 0.6089386908732785 0.6110327255280721 -1.5419733553449444 -0.14799269796361608 1.3502765316251584
Ni 8.120353521105546 5.914838279578292 2.684599083525614 0.4192926753290262 -2.341487708143464 0.07951187948339854
Ni 6.362324977434267 2.423078946902104 7.224580568255855 -0.7371154788463241 1.1560029483171317 -0.5448568690857972
Ni 2.3685736674208426 8.806188750617242 4.971012308680393 -0.25008297696816284 0.7429665383104623 0.026377204441948122
Ni 8.118761725430867 5.910538601606457 4.963875758072247 -1.0262149462870005 -0.6790555985891145 -0.16290046831338395
Ni 0.021277002184880444 7.976478977567145 2.7424416449730993 -0.4327457155101386 -0.11308174501904396 -1.9191703870555012
Ni 8.300958292424623 3.4881732182826575 5.8872883216800345 -0.13000397469567934 1.7216937234291445 0.5409652473408747
Ni 3.3245293043248187 7.024502829849866 8.909018751201527 1.0417786050532123 0.8562241467857383 1.2034801679624887
Ni 1.0530094318043957 6.890563286901704 4.633719953466845 0.26308658831668236 -0.7233099404217994 -0.5317779244146519
Ni 3.802077154979623 1.5819338600971262 5.540811122458567 0.9123238179927836 -0.355369137202188 -0.9203572298202214
P 1.0189870863208759 8.916653881489385 8.376027925337562 -0.5779186846367724 0.009985907568118287 -1.338124983864289
Ni 1.326825732602253 4.797068378917258 6.180649860747733 -0.4624591834141713 0.19546528962328272 0.4497597335696319
P 3.4936621688850003 7.618087096238192 3.3929655404348256 -0.09253580254689224 0.43415133760841357 -0.6494593729892363
Ni 2.3656736718526052 5.839465839557125 10.97316789961565 1.3053845562084743 0.22416908531587845 -1.0491311887635415
P 2.027481128740274 7.607090898531499 12.677382771581561 -0.0893851727330525 -0.36038921612459873 0.280939043117071
P 6.450184780075763 4.073697875536544 2.338028572143907 -0.2809202740639936 1.965283122253164 0.044053281565472516
P 3.5791983157715044 3.4973397657885696 9.765082805743672 0.5912223437242141 -0.9082861575883002 0.1072725945364346
Ni 3.0893643640184565 5.743775134056287 13.295222710681639 -0.06003114505096758 1.279298400644384 0.4148588079273888
Ni 8.094107188975345 3.356420107324429 3.365476875818294 0.38027747040809345 -0.05062810656951281 -0.10150689569725099
Ni 5.814893637360639 8.999107067787575 11.995527946081664 -0.433618347923079 0.8527238469419637 1.1826514041425955
Ni 2.046582676836426 1.8725189049851403 9.09495786768098 0.053186097104676144 -0.6043105443667399 0.18079637475719829
Ni 3.0213745625574404 5.5668388113897755 4.374875680261978 -1.083772690096811 2.3580628388933262 -2.3959364740106475
Ni 4.1609264488587705 7.3507386089000954 5.582960774133956 1.757636717182657 1.5213924458697992 -0.7967691859532149
Ni 2.637120575640451 1.8287079309274428 11.609685822790398 -0.886737227772931 0.9053131910029053 -0.7744910912813049
Ni 0.8610471068639715 2.2083329028364562 4.878598506689153 3.042379942991696 1.2619431971953878 -0.9588366168423423
Ni 7.335900145771763 8.085837170067816 4.196944027886242 -0.44955764486115474 0.022531091222980554 0.306432302292169
Ni 7.553216848369507 5.246284096212972 0.03632404543610212 -0.6644831000915782 -0.3325336273649112 -0.10715226690848642
Ni 6.946523138292587 2.605010214616747 0.5652695147061416 0.6936224406596958 0.3377887051162634 0.002438177127847414
Ni 8.373458181630564 2.804268269732785 8.157472549553887 1.4633891298821378 0.8128360096080905 1.683552950693365
Ni 7.570836379803027 7.725112484732867 12.67191943608203 0.9346214530487195 -0.11572303929663297 1.1587447727283269
Ni 6.4800904126075265 3.6449102027325484 9.685095073091036 1.3676139944623413 -0.7736531687610418 0.1478381746636228
Ni 2.7795039542652167 4.785550730903343 8.286894686156321 -1.0619527660082422 2.0384945134398316 -0.1463091396136061
Ni 0.7487980670460666 1.3266244710801673 2.7012690265049284 -1.3744479866650394 0.7187516316271556 -0.42144186046154514
Ni 3.630154073863251 3.97316774525464 11.867538425586444 -1.054580899024203 0.4276793567308247 -0.09862597460503014
Ni 5.208950083866038 9.309077256552861 3.7968022734507723 -0.40996779838367464 -0.6061244576470272 0.7913364449734178
Ni 3.940288931146608 3.775858267602434 3.440002187796499 1.057329665413934 -1.1439871548031784 -0.8027850531299916
Ni 0.2827349307015636 1.8829296146275831 10.69058482988075 -0.33268532245142707 0.1687903514352577 0.11705307096196615
Ni 4.014792287322404 5.141929997011435 6.196408637927058 1.4136837922372105 -1.3740759480376012 2.0335605664733234
Ni 0.14357448090547367 6.612044785087841 0.6913955364718688 0.23805304238682226 0.8604135022767375 -1.4028514775083967
Ni 1.226368788328381 3.840362585430962 9.785809998043218 -0.5763842502701171 1.2828442090141132 0.8583080258979606
Ni 1.092831768424391 8.365709613030258 10.389189296781423 1.290747265911274 -0.6174961898190785 -1.6057878786977442
Ni 5.094743318333298 4.429939917879578 8.194775457847408 -0.5841934619018906 -0.5411369970320488 -1.0038008402578584
P 6.267585690037834 5.068936102251285 6.251398774711527 0.7436566223989515 -0.5138583638217538 -0.20479145212021502
Ni 7.163473910850176 6.654639041762019 10.59308277068114 -0.11471979484309919 -1.4743816243378993 0.3412735783410703
P 3.4953545953207223 2.168400787204414 1.2977690577636527 0.32527848846439467 -0.3627376617521172 -0.5804967297765938
Ni 4.765872842993945 2.249161547066881 12.72712364193999 0.9911178454735511 -1.3851409476025112 1.477463862807649
P 5.939511112535822 0.7828277311303896 5.848512544974886 0.0045554805811663475 0.5561003032101003 -0.8622513268164247
P 0.20394470410533805 -0.010489384601076584 4.382173240087792 0.7924042241162998 0.8006669783457243 0.971048585527502
P 2.7496440629884735 3.540757365053099 5.237581365032958 -0.023879120610442745 -1.4583441112590627 -0.26216844737778716
Ni 8.135932992565195 7.760909590911146 8.76442698478442 0.6308222175040233 0.12021424229876718 -1.044905323607652
Ni 2.997204883405125 1.3434023634213277 3.2419196829344634 0.7312572202933342 0.02944710161652348 -0.4611476636915994
Ni 2.9389854140162788 0.275455667377757 7.459082260364434 -0.1400184215088879 -1.4379061551196848 -0.3235244818877654
Ni 3.3280696774633296 0.27188053088543124 10.130064172270735 0.017584802961298746 -1.8246597201704253 -0.7327628583045832
Ni 0.3570736183592893 6.430946008214552 11.56088173333477 -1.8905087574547508 0.2600496012625715 0.8952326668384516
Ni 6.656551026221835 8.003960323582872 6.53893653719014 -0.8688418355497488 -1.7388098142841408 -0.8756655433398016
Ni 3.382867700976716 0.2841666319836746 13.13558115653801 -0.4726980875333601 0.17411330631006788 -0.17052944561355146
Ni 5.752667234032082 8.418732875848885 9.671250110021726 -0.0032876696123362737 -0.43654786286504815 0.4039223635205431
Ni 1.7145011653947024 6.3217433359809485 2.2180593233038075 1.3469510667963511 -0.281584904231186 0.9193509000428941
Ni 4.944263737570077 0.9851934471124537 8.317020791537278 -0.07456276300823933 0.37245591748114565 -0.8515953897644752
Ni 4.563513530787583 8.387692860192638 1.4543825408249909 0.1324892030113783 -0.009325391165983939 0.6142943950523291
Ni 1.4137890066453669 1.8900835469126362 0.2816435443567978 1.4750997334508467 0.629786062930025 0.8919830495529025
Ni 4.662671423418901 5.597842234042006 10.373443327153504 0.8225280400848737 0.4247300442945136 -0.5411992177285517
Ni 2.375224445900681 6.931940826192364 6.819135572713422 -1.8592595696324818 -0.0663113216327245 0.26541729333238806
Ni 7.961036729872554 1.5404739865474324 4.839581216157502 -2.6319506315905703 -1.722670485520117 1.4941909457543427
Ni 5.06534083960675 1.631361860271221 10.533955794792707 0.27537646142762895 1.4411732559067307 -0.16763798299836938
Ni 2.4676217810401138 4.059746792755589 1.4987414951178222 0.05669462447856687 0.0016601613112423022 -0.11520624756121449
Ni 5.525067897305949 6.4943891289266285 -0.39798368202364864 -0.3059666755096601 -0.41091370723671167 0.166279669198262
Ni 8.206347080542246 4.183614111348453 11.23440809975844 -0.11113079194026024 0.9675009773855596 0.2440791939762442
Ni 6.0626740158013845 3.130055784483823 4.918954186342676 -0.6751063841333792 0.5200927747672397 -0.5620994582163288
Ni 3.9714936153209255 7.666152007012705 11.574886790796647 -0.6527357297476629 -0.7690341819317917 -0.2591880245932246
Ni 1.0050908930459455 1.6382139002731453 7.0089709292954385 -0.06826664558688243 -0.3893382950587811 0.5634318038745071
Ni 7.92449861536296 0.555340003066504 7.179217136002794 -0.2499294821094341 2.3224157791136775 1.7671654826086984
Ni 8.377163223287145 5.694749656926365 7.151982792764171 -0.3892436784624458 0.11238626161391613 1.981139886779762
Ni 5.835715056645525 4.202578435679547 11.803738523085215 1.3447522593728194 0.26861908809913737 1.3832529865511791
P 7.02990029794217 1.4185826901714125 9.355956553997268 -0.04508712214662557 0.09199818487586736 -0.08929852655651717
Ni 0.941236101038694 4.584453877335521 3.7417590768104807 -0.11462646379834453 -0.7028236475429896 -0.03527707803473925
P 8.549315010678615 4.932855868568209 9.256460176078805 -0.574576764747733 0.2544142573536651 -0.6366344533104261
Ni 4.272224070572269 6.047396436624864 1.9883650370977801 -0.11060680111599015 0.3257934804276002 0.5138210828259151
P 4.805978775395062 7.990613025368176 7.647577398174379 -1.115426569556666 0.6047381188224618 -0.0056327728057451384
P 6.464382865633822 0.26560483069675295 0.9266565334137719 -0.3129086540451321 0.1488740721273049 -0.9113694244993144
P 8.895859906957511 2.837659385897036 12.752550290780242 -0.31827146101894216 -0.7832140729765994 0.9613516699547122
Ni 6.14052563184461 6.4483917228789975 8.294633191680523 0.24330143526995518 -0.7782019644739888 0.31105360311426433
