# total energy = -340874.47034514346 ev
CRYSTAL
PRIMVEC
9.19370958798284 0.00000000000000 0.00000000000000

0.00000000000000 9.19370958798284 0.00000000000000

0.00000000000000 0.00000000000000 13.45592329641947

PRIMCOORD
 96 1
Ni 3.4825403620988946 2.2514015369026805 9.77509572432942 1.591933232202839 0.38266911056872155 0.04283894954239719
Ni 1.2388891222565035 5.758912013848248 4.224998594313841 0.1632254557529705 -0.2983888631624022 0.5123624960025176
Ni 5.062056419211531 8.599437258136792 4.459844547062884 0.20251628293279317 0.9396021940927625 -1.0849294294090732
Ni 0.2596827588087961 0.3105248913984832 2.096136333090606 -0.8602564078735829 -0.68252195987116 -0.531324124706685
Ni 5.872895623520215 2.0339059526141097 3.6073045154635004 -0.36225480857842773 0.7848585505585579 -0.6690046421110155
Ni 4.275497801541311 8.998839577460814 7.858743298763921 0.04976215902479172 2.1136650852353984 0.606888075285929
Ni 5.009385657813669 6.599428512238324 1.1926962485320456 -0.2538905236397111 -1.352761502830541 1.1243904636181734
Ni 2.7731721289105122 5.254462370430673 6.194218526659279 0.2768643588270651 2.2995396458464525 2.2902841886864556
Ni 0.03839752748789858 2.534512625484591 1.2084386372109701 1.116488178051961 0.6125910392079772 -0.8489247849108476
Ni 5.220960493221071 6.773897536334542 10.268874229196726 -0.19766383993649828 -1.1720659153172652 1.3387405059611008
Ni 9.169548374394921 0.7120252152173546 12.5180582433818 0.8258851294825648 -0.36778319459582465 0.6348027994183261
Ni 3.0686763378213313 -0.06534428986477654 2.5494395321359384 0.06629615212407292 0.810337925776585 0.9861718143221854
Ni 7.676333667821948 1.1516316259347879 5.63353739817664 0.6948899945182098 -1.358439527051925 -0.3889868252566333
Ni 3.982558637565036 8.447612340398216 11.681261519832285 0.6673794478027667 0.4903816208560522 -2.067206279552227
Ni 5.903354382904246 4.585279841216815 2.99695712982891 0.12820368826214693 0.3524949009781865 -0.09695707154303947
Ni 1.9666539680399497 7.330227282137899 11.506832948057617 -0.4113291975075755 -0.5999718077820699 -1.4472410593673657
Ni 1.4912380590427694 7.280811093882791 6.314528327798843 -0.4924441598120358 -0.48561248160218307 -1.6580599486285832
Ni 1.1042380537570988 8.487090128745646 4.063231599183811 -0.12824379747146303 -2.7296101285172734 -0.41905227718344606
Ni 2.1509326801116457 4.026964254173811 8.29366551452024 0.16015015926175646 0.5306666936283441 -1.1777904765058682
Ni 5.878163619030945 7.261458335505675 8.101326677380033 1.11876154746717 0.7122446837465733 -1.0134468479880545
Ni 7.830263945022925 6.388230618918079 9.417423652166315 -0.17498825271585344 1.524914857200761 2.271555759039017
Ni 4.077492881271499 4.718809277164197 4.590528529937716 0.31673419843880934 -0.1039414732806726 -3.0134930847540162
Ni 5.20202145176888 1.4682170105979717 0.6840965646719845 -0.053685148228281736 -0.9533820214856742 0.2299664087239459
Ni 8.33444697086666 6.926632631307955 4.94370579755423 -0.13415476363925927 0.46975186042084255 0.5013170368216334
P 4.675635617620759 1.3537921028727504 11.942292995816342 0.0449343986188452 0.7747746839599947 -0.06165299692510672
P 5.249442605074898 8.645893071951313 2.1835731067464565 -0.31180590789925655 0.03790885923063149 -0.8509559564082635
P 8.58478248528495 7.426779618706295 2.7962345490478024 1.6461027762667069 0.24217863451942165 -0.8663918313473596
P 7.459159863363874 1.3160611193194556 0.9849653030426837 1.0156086315260637 -2.6557703597179874 -0.06337537893285214
P 1.1353403728021272 2.360871035238227 9.313018968362814 1.1053681568793994 -0.07188290218323105 0.4706373483495894
P 0.6694610986099743 3.565660689171345 3.8748616864100636 0.39289978715779433 -0.7652096659793789 -0.2776889116108895
P 4.820933001654937 5.432636459432342 7.452590038596042 -0.045667420130127805 -0.23415345022209996 -0.4746760371953373
P 6.316804690256883 8.56551247029282 9.963155809094944 0.49751540368735603 0.2316060012098979 -2.7836495747611805
Ni 5.919893866191862 5.988478938635231 5.3050645472039015 0.7417367796684193 -0.18295327319920104 0.7630010883638343
Ni 4.160594820925064 4.497985570057328 9.367448486377086 0.7607883969832316 0.6484761831403606 0.2596490233900432
Ni 2.1485515093659577 0.9400384031085011 10.892193019484179 -1.497332833817434 -1.4121604136141488 1.1546330645527987
Ni 7.996725248194455 4.327166448609907 12.747333727579447 -0.2999814044605027 -0.6503055230396155 1.099104435357875
Ni 1.4588302332568621 8.71467121229298 8.009167095183411 1.3295117882739813 1.6322036496871117 1.0435691212947318
Ni 5.197921057357387 1.4859057075659392 5.876094115035368 0.45508757354044854 -0.8091338781661549 0.06054202324911508
Ni 2.820409408027673 4.1110039521905435 11.454529015666523 0.24617310039079543 0.05885203714120187 1.3938279338535478
Ni 9.194628813754909 8.348118016808119 10.010843579974802 -0.11447014072613834 0.30709821801094206 0.7391479358953206
Ni 6.953358744658205 2.9221469967218154 7.045332613924083 -1.5091827911774849 1.128504742896863 0.6784403336026187
Ni 8.303335458112189 5.055832277918749 3.1876273087052476 -0.15280091798553685 -0.044921800213354894 -0.06661651157796915
Ni 2.8898311080303363 5.8585902116272015 0.09040082558021262 -1.1442491502153134 -0.6839471223534608 0.31773538600981405
Ni 0.2882770339178257 5.4139180670067795 11.169089160482748 -0.02665102692862507 0.01023684723665979 -0.15549414854698382
Ni 3.5453425913027337 2.5214851392041284 2.2526160259200756 -0.18779003246621206 -1.6386879718598746 -0.010370030380414397
Ni 8.307481821070898 2.142465273714817 3.4511217794490334 -0.32883586679834975 0.35273761311661184 -0.3239302019666163
Ni 8.338961082203081 2.1019302087814653 9.880253372936288 -1.3315110780921973 -0.9935912467147081 0.32850445160086006
Ni 4.196983522899709 7.45080278148036 6.19354646649901 0.49989136011870045 -2.1550364490933336 1.7718518323407741
Ni 7.72910556002368 6.01445116781117 7.153060823691161 0.43992192154360366 -1.0620406977363581 -1.366437457655737
Ni 6.930402052179508 0.7610295252894238 8.014266845811338 -1.4269743386985296 -0.8450203076501189 1.2554025678633927
Ni 8.469879504668704 3.6717469024319374 5.457440168138101 -0.8810504618007987 0.5619223092085162 0.324803348600189
Ni 5.42857283985862 4.072417953659067 11.48468438263894 0.8713607453168606 -0.028286248539202898 -0.014460141289387999
Ni 5.990161387463264 2.706232730457408 9.735521402032843 -0.35779523014517733 -1.8896644071765842 0.18784299719133457
Ni 9.018992188559453 1.9136522331021464 7.568041883666025 1.3090409220141392 -1.3658569025619185 -1.011438559308774
Ni 3.017384632839891 0.23087427026974905 5.81180158553085 -1.2465885691161886 0.4076368362576528 -0.842631238592652
Ni 1.5378225847894909 1.487137664631276 3.9270975853512806 0.4573766266849413 1.553511437891531 0.07236652668786892
P 3.7461056244053896 1.5889028344537468 4.202177049363952 -0.22764238857645955 -0.7324674385513514 0.27637353523357566
P 0.6617475763874562 5.127837410274841 6.353200747199082 -1.0298139764921685 0.9589602869044 1.318316433778794
P 1.7534794271894998 0.7576214171989739 0.5478577425518066 0.058102046349054776 -0.7883992167219648 0.07310751861895151
P 2.121613940698523 5.350380341047515 9.912171174008893 -0.10855711767581304 1.6669037721724582 0.1147403636683895
P 1.0251353777111563 4.127672147410359 13.424866903080208 0.9577197296290795 0.23523948419742716 -0.7465748244870111
P 8.865383691188974 7.325612039997608 12.018655946448328 1.3088465466151458 0.3919862742045894 -0.0871863653095208
P 3.069117635874586 7.114101560556306 4.51506748220207 -1.0543279024731327 0.07377857654404714 -1.5847341433512383
P 7.616096483552652 4.049167062478199 10.659567347565574 0.2689173360658465 -0.22268273057833907 -0.11710757834898541
Ni 0.5956953708955832 2.94744808510843 11.55378062532733 0.3766583855982674 -0.2172834139396387 0.46539666877594044
Ni 9.067158032330338 4.2094777740324885 8.214598693941126 -1.8811872229435085 -0.5133395152038063 0.1399302326704558
Ni 7.010773460128557 1.9175687533247838 12.308724834336557 -0.62970404473918 0.3344598978533465 -0.3543188415608027
Ni 2.4577267642182363 1.8737331467014626 7.609930262629359 0.7016540527149207 -1.9721654511952935 -0.34580540477315286
Ni 1.7467220507490337 4.264336638277739 2.243398412832714 -0.12814969509575996 0.8031113261211588 -1.4389091424629026
Ni 8.49849032845473 8.179054893864276 7.648199078185058 -1.2015161022575824 0.5182541788966042 -1.2586287881101743
Ni 4.747833817875151 4.139706713070998 0.31315705041195985 0.3449088611008124 -0.5828150934971253 -0.47331463807143653
Ni 7.172785007929766 0.04845084876361201 3.4150861159169925 0.7058482933019262 0.14554243665091066 -0.8468632743961286
Ni 7.937959057436009 7.872086129278271 0.4722569504326306 0.8381701174975048 0.7656727216587265 1.5383288166138216
Ni 9.149156726850768 5.797737048825238 1.0092431315683137 0.09976317353326689 0.2235286235184021 0.3944401350617207
Ni 7.219535020446458 8.672159499829423 11.751326779495946 0.7685986370562699 0.9485442337773987 -0.3883931575366924
Ni 5.69499734580183 8.283927537478416 -0.11669483458665102 -0.7903717670673033 2.2093618020087757 0.6917447640210086
Ni 3.0580024411582283 2.339615179006448 13.28776479164335 -0.6321489067352468 0.1709845308730991 -0.7825795247163941
Ni 1.8230390328338049 3.23490779825679 5.8105503216756835 -0.9584599502292137 -0.8543449274851543 -0.8748677300288545
Ni 3.3763346306155464 6.82076706707399 8.54138909608583 -0.9920899795788335 -1.8436393465967218 -0.4183367391736602
Ni 6.550637496225328 4.696955829818636 8.847444005953218 -0.5361284880738637 0.22676924194288686 -1.0818680168749304
Ni 2.2413528124816886 6.827450893838914 2.3514759835586183 0.5416193359851059 -0.1667280695895903 0.053600816044591555
Ni 3.4260358238633803 8.353119394745008 0.39325632456150317 -0.24441086628405007 0.38568424324596157 0.8710424427454934
Ni 6.5407082900270925 7.042675631895111 3.2414776230246227 -0.9814255578864516 -1.5585937375104446 -0.9415166375066558
Ni 1.2823569805021118 7.6551329738468255 0.23874684366562776 -1.5293788065093856 1.3642612759400248 0.2154802992926289
Ni 6.738593692074149 3.188681827178338 1.219985016900196 0.0201690187487072 1.630391021958405 0.4897763831718856
Ni 0.6912740936339868 6.403630082234787 8.473248999179495 1.7712535366351432 -0.07835205484734248 0.19568023384756622
Ni 6.7021130530050765 6.411932001861644 12.491025979507103 -0.06631929205252449 -1.566552073125573 -0.41134513834717545
Ni 4.155492312184304 3.4247487045413867 6.5126536856623565 0.6970996005750187 0.25089184602270337 1.412863096108128
P 4.949580577888186 1.929750418336508 8.047301682581244 -0.47172466787649725 0.08613529833718715 -0.16576699122790162
P 6.136019587773455 3.759464084225793 5.020189185779916 0.4836281041823026 -0.6817238894498969 0.5887875090304764
P 3.9238568027726903 4.520390639969458 2.1642773493678855 -0.9896104076900891 2.60883641417061 1.092566634239357
P 4.559923590573543 5.844974327942399 12.293869638618864 -0.15183058365246754 1.0074104119859875 -0.8110195252246419
P 3.012318898936902 8.589121916141957 9.519514279303062 -0.8316186895322323 1.2367888094169475 2.5022472188544453
P 6.6499847204643405 8.090170110971181 6.014394166812625 0.07521530899057369 0.3221371146219355 0.31154802625217953
P 6.882245402118065 5.462387303189278 1.160385876066232 1.231207458674428 -0.4011640840491155 -0.20600758391550325
P 0.7545543957288524 0.20985745048348395 5.894582664724862 -1.0737734127922538 1.2363524932104772 1.7149810872956592
