# total energy = -381176.49974919885 ev
CRYSTAL
PRIMVEC
9.16114136441685 0.00000000000000 0.00000000000000
0.00000000000000 9.16114136441685 0.00000000000000
0.00000000000000 0.00000000000000 13.40825640919225
PRIMCOORD
 96 1
Ni 0.6040993945184415 3.565644423285802 0.32272868330407495 -0.6381712016699267 -0.19453763560269077 0.42814626906491426
Ni 3.544683732148078 3.699479535537114 8.484690808013994 0.5543378119930389 -0.019553496651895357 0.24304303940224595
Ni 7.886185206331521 7.247607856788244 2.642848163719278 0.9083301234523582 -0.383665670154036 -0.11982317750793557
Ni 2.431861584472576 3.1311956226633098 6.502829977518543 -0.3239867662361646 1.0230738295548574 -0.41347683997819756
Ni 0.5103873325188283 2.9938059876141665 2.9284833861769184 0.7105976350614536 0.16567468862441143 -0.048532657493064804
Ni 4.267626031292445 8.878098612033389 3.801830553718053 1.6291108696944008 0.5898131220815133 0.9604592400474299
Ni 4.204771441302969 7.8695760572787705 6.584097545269256 -2.385070220720105 2.83619186763427 1.4765434078759085
Ni 9.374229376567722 5.812240248633298 0.5955602947765393 -2.5388113911317247 0.052247130230174535 0.8007307417041242
Ni 2.1047080699536758 6.5576181826536635 0.10056001507017627 1.6025842841587818 0.396058387391434 0.6284817422963047
Ni 6.383922944903997 8.541170159820455 12.622438423953023 -1.806731674937095 -1.8848183919381925 -0.2841508651861493
Ni 0.44685023750760394 8.105658666815106 4.374242476830781 -2.1074065059201965 -0.8732556483467283 0.3639082850214507
Ni 7.467969947971286 0.9285274695209639 8.178942299982547 -0.48856899312734575 -1.1945358142850073 0.11637378550675442
Ni 0.8330390622365583 1.1348363700548507 0.5254812288118849 -0.7731232643995009 0.26646527498092826 1.0327067246589312
Ni 4.703503969947055 3.2418713698813333 0.46642393186287495 0.13149495741890901 0.06181163399015806 0.7922404448449258
Ni 5.319554073202017 2.0338008368216913 7.706877853463424 -1.5965583896796762 -0.5312811872838914 0.2797159693432473
Ni 5.556122223223624 7.031304151170767 2.8288871231642987 -0.6327723992518586 -1.1108662038794934 0.7494416045118448
Ni 5.305839844778428 5.63757392991309 12.383718321856131 -0.21800435126606327 0.09855115550303672 -0.3237314556922489
Ni 3.1297115177838033 7.037808561445147 2.4762903711030906 -0.1860419394268538 -0.6484856962220573 0.7531594196830642
Ni 3.3386496658511366 0.6785052674867441 10.16288179342343 -0.5817180037782046 0.8442649175413331 0.27516305986524225
Ni 2.590413455766536 7.336800727818348 4.855156585779555 -0.45715114093769654 -1.2759670222783057 0.3836898385237521
Ni 2.6177228177777048 2.48754300087777 1.1907633050450495 0.664242701945998 -1.8899248599268224 0.6589698835828328
Ni 6.70645924424221 4.6696993588027365 0.7017837273560429 0.44975664824583833 0.5269334518381571 0.10930093782037303
Ni 5.027652630142016 8.97093761727364 8.767283615468646 0.882680284094738 -0.35109879196160826 -1.2241551798133368
Ni 7.926210232372044 0.8616337323625096 12.465816805116544 0.9340642949936687 1.1805762667811217 0.8173531807521537
P 6.408868732477433 6.999963887017728 0.8820246005156325 0.8464045895921553 -1.247093276666749 -1.5475217959669993
Ni 6.5781757835772 0.21071082889563345 3.577175551753919 1.3092198707941647 1.2444512110582115 -0.521166724557709
P 6.000373444963844 3.0832095648925946 9.468266659081053 -0.080044612058417 0.10455005339894896 0.6721696701025586
Ni 8.461569003659756 8.099255029094271 6.745559911132471 -0.5680132525976024 0.27160850974476447 -0.1660151026829657
P 0.28242057799949905 4.786155786137852 8.588966581967677 1.0767255534420423 0.4170601864540817 -0.3639622781878377
P 8.036098121444155 0.6430250836111806 5.181405895658904 0.992595201350026 0.5178661994295661 -0.03514723732509431
P 4.09935418915184 8.273527418741525 11.521326046999652 1.5113815986010164 1.3236615001407914 0.019449881194495536
Ni 4.262330891660626 5.437503766557869 1.149886292869996 0.9154621065114492 -0.1841822605102957 0.9666268023107223
Ni 7.624607140747859 6.527478028001955 12.17379809944878 -0.4596715933667051 0.4782460139347827 0.514544848365817
Ni 9.474635484465209 2.0330404620994753 7.3021899362456555 0.1500549798092835 -0.4314745621071988 -0.9393821076621565
Ni 5.770236416086767 0.8370992800303692 10.809615307005132 -0.2541504621693172 0.14395503755913272 -0.2412512376091458
Ni 3.405205356898148 1.0852196291449248 5.835796291081912 0.4429589085977146 -1.7480390461918929 -0.12862303518775267
Ni 7.823999379651946 5.51476883170453 9.8640783465596 -0.6048841574820227 -0.0906414137376568 0.4706221788409379
Ni 0.6891111206904778 5.732666575896293 11.681849395886635 0.24203053897733154 -0.4589884512567515 -0.9378888109460816
Ni 5.907305411192807 7.1903049183850705 10.213323953158316 -0.5649880926180334 0.2574571579450469 0.748006414727215
Ni 9.15098152589675 0.7800629308370333 2.8144867252624683 -0.6243864891810086 -0.1402287377474811 1.134325720454014
Ni 8.084102501497334 5.448258946363676 6.979104884547675 -0.17510138125495006 0.45947593241613127 -0.30480299421886214
Ni 6.63371062172269 4.7996776305955775 4.831799340095666 -0.3893508934642714 0.8252567518699465 0.27165376116040313
Ni 1.3647168869774449 8.168036877460542 10.758663787817772 0.4618526601784239 -0.3317597253133641 -0.05525609225982742
Ni 1.9091085435194386 4.601879430265776 4.57452151420608 -0.19376681887493727 -0.027572767411946062 0.4653593877801018
Ni 0.2882397349097621 7.068956441632324 8.811115095690866 -0.9653160539190988 1.2769399277145363 -0.37133260250997985
Ni 1.5284448030672153 8.850514415785275 6.44922355960229 0.42475318422296526 0.09715813181025203 0.7800775842301468
Ni 7.964870248369068 1.8139792529713088 10.438219893136841 -0.8549694484430308 0.31492054226883825 -1.8726732719352261
Ni 6.355367667685341 2.5298491510849406 12.55707368126611 1.6937669151118895 0.8978006846759441 -0.7739323905643575
Ni 5.7188515749191575 3.723051151925821 2.719341860774245 -0.27109634599503635 -0.6165441103184544 -1.18527572913932
Ni 3.7385609640307886 5.375363745584452 6.436298105438735 0.004493516994979358 -0.629260272333542 -1.4472084063572173
Ni 4.736300855555905 5.033552405095116 10.056607974567154 0.312146836178443 0.8534244725534141 -0.9476194079702841
Ni 3.3058894248072126 0.054460236279031855 1.6656942726555162 -0.9796702657582419 1.9463844855764476 0.3438130569334724
Ni 0.37301510363802515 3.109566168215685 11.366688731353921 0.5678813550054284 1.1091384225551093 1.051707177020834
Ni 6.051584224448055 9.476559324123828 5.980819905119283 -0.7516401548250603 0.04730212752007337 0.9242997594077372
Ni 5.730907636779841 8.98370824815038 1.4809149701298303 -0.7760586928787409 1.7415578093429231 1.096487309450002
Ni 2.6744394431420604 8.151097927323457 8.615354333170954 -0.32116318074444045 -0.39282625360738155 -0.6738393444954976
P 4.5295522202429055 2.8064881328532256 5.551447292853177 1.5222591647454689 1.7740652950523255 0.6568507803573009
Ni 6.929597161218403 7.489132184216104 4.905866250838402 0.5423757545351562 -1.1761472844754906 -0.30626286659384033
P 7.768226351834437 4.468392441381261 12.254556307747018 1.1883397127766244 -1.8045446945881052 -0.49438534269880663
Ni 5.969280531624057 6.628223098125008 6.90179218146661 1.513322524377471 0.407617295873627 0.9243288128734596
P 2.682116479494076 4.120488941972962 10.805351711875982 -0.6528048924227016 0.18735088804626443 -0.0677447116451414
P 0.7784469055237926 0.8934531242019568 11.793258950517306 0.6134459310091047 0.04252321807419128 -1.4168837872317468
P 4.680033126111894 1.731419048192828 2.1822204859135876 0.039822531313576576 0.5401440369911601 0.08518836104288555
Ni 7.969359207572515 3.3683592468649644 8.358961473524333 -1.4930262360222804 -0.22204689676655306 0.46684805651048633
Ni 2.150046557908481 0.1478910512428373 3.5745069113131764 -1.0623361174895898 1.218175050970502 0.36470944076650735
Ni 1.4068856200661433 5.8920979167484795 6.8139551593387715 -0.37519465656854734 -0.15211931853747993 -0.17722562668680447
Ni 5.774661247301593 4.49726835854302 7.481860986420645 0.23654560460336035 -1.6292507377063747 0.7642208197035484
Ni 2.759592250889062 2.0307135322266685 12.23161497787504 -3.1526856679274995 0.014447028663265443 0.052971924211341025
Ni 7.365887351228431 2.762248981846204 3.7593668318817 1.2695685749511298 -1.7474330371767777 0.19199044370080484
Ni 4.515883797525474 0.9734720284028132 13.227285367595957 0.6797307702792681 -0.17907167875660773 -0.6698484781685495
Ni 2.1835396902509268 4.421285853168772 2.022756164952968 0.7480274977731376 0.830598218687518 -0.0882428315984932
Ni 8.029740289429478 8.42898282429923 10.615115117518677 0.058718339776815 -0.09542366561764858 -0.7617016528261203
Ni 4.464892885430819 3.0348479003313877 11.321019526200658 1.6890476552593492 0.07021862710693069 -1.1967839868892356
Ni 1.045579371036127 1.7292570188621887 5.057044319555109 -0.8574947859680457 -0.559212623586837 -0.9222750156682246
Ni 0.16921452357332908 8.067795670105223 12.843419808283317 -0.4502909234827535 -0.4097543968212878 0.13002891439634381
Ni 7.919357698730864 9.066222647222704 1.1776472991438787 0.7648751654580956 -0.8197980427482204 -0.6579033899915315
Ni 3.1869778116220506 2.648110323242665 3.8632807407567364 0.13448746438832967 -0.42345991933283844 -0.9081128652352296
Ni 2.415472302809382 8.86642731810443 12.951758548373178 0.22298020721409983 0.08377708251765573 -1.3343351778045536
Ni 2.037199620218586 5.7753116883290305 9.34910769508264 1.7639037811382912 -0.9520813003963796 0.35124380217990475
Ni 4.0981357573680475 4.97364770258219 3.521235791165996 -0.6519137480669998 1.5213654492866058 1.6150783028607345
Ni 6.939573644019531 2.6030008638186484 6.1824392174567535 0.14167755437886567 0.008725295688139812 -0.8105377004922171
Ni 0.6121996755953537 0.5360376118529682 9.054300338024001 0.36041981225221803 -0.46805287545186486 0.25398668289794324
Ni 2.9053002021764276 4.446469830414228 13.02178997640343 -1.0208683372631062 -0.554192030443794 -1.483824000697722
Ni 7.5108807334997385 2.243710065859567 1.286463334691903 0.34423343230034265 0.5927128122268115 0.511847504039312
Ni 1.0510943780575035 5.9972403346626635 2.9772765404901307 -0.9975887979098755 1.9108333279447156 1.4345562648108456
Ni 4.197818135108244 7.640098630570364 13.854215242177474 1.3529263105431797 -1.3518909273001298 -2.391865646375384
Ni 8.859364078214925 3.7050586705471114 5.346569362579654 0.8303485645705571 0.8202762679362197 0.12983942409335703
Ni 3.0649147658532447 6.493252004360987 11.454780433207995 0.3505136088820996 -1.179315654901143 -0.5538487881717623
P 4.065549578007522 6.395841589646208 8.256576559120838 0.0971445049634972 -0.18527883600858414 1.50873747610995
Ni 1.1172103343254014 7.930543452174553 1.70667022515587 -0.9653998718821566 1.551102314229406 0.07100846999807771
P 2.5853015389593463 1.3921545049658548 7.907505930319643 -0.34497853799648326 -0.8485190648319967 0.6908366503844425
Ni 8.355134864831927 4.8590143423521495 2.455507406105259 -1.6048226865709974 -1.299003592382795 0.9183558831194764
P 4.7082127965400575 6.9910409354582255 4.857355259675121 1.188139166730044 -2.2334872343020695 -1.573598181339077
P 7.2908117988361045 7.723767333437858 8.569766662174652 -0.19707454309193156 0.3115025177262248 0.01826203153398145
P 8.645204079645625 5.911345474475909 4.784266758815911 0.5250925419746764 0.032925804193743295 -0.41413221417400936
Ni 1.5103973548411158 2.8148064490914484 9.342792920431753 -0.20200591895527792 0.6584471783101434 -0.31318093386991225
