# total energy = -340860.3338807464 ev
CRYSTAL
PRIMVEC
9.35701560661702 0.00000000000000 0.00000000000000

0.00000000000000 9.35701560661702 0.00000000000000

0.00000000000000 0.00000000000000 13.69493816192026

PRIMCOORD
 96 1
Ni 5.236373095824237 1.9623813923296993 13.034144075903347 0.15511439661006188 -0.10086540545851017 -0.4256345583866541
Ni 1.8050993163357936 0.3870959944694799 4.326846846790669 -1.5081504932582286 -0.3927774026473171 0.42799277420618553
Ni 0.1367705619962712 3.802597588384996 8.55950035987914 1.1308115366531686 0.4396473277259783 -0.1775004776147459
Ni 5.583611946447941 -0.3556320936581819 0.9169763048909263 -1.2834581884490281 2.0001655359526453 -3.302816752390357
Ni 7.123056231577655 7.29582416846572 0.28565565214944105 1.0119728345456895 -1.0263049348976454 0.7578372847747077
Ni 4.922566862103752 3.8366758393677913 8.939795675377095 1.2652429509925822 -0.24079563812896596 -0.4852579264762417
Ni 3.194110860924487 8.318620834700585 7.040472147187471 -3.1020799299554893 1.79946316630014 -0.12820908757878566
Ni 4.198839129946894 4.70945147375006 1.2626983832784113 -0.02640985745209645 1.0911620405823466 0.47142359169631076
Ni 1.1420799016902952 7.937125949796812 2.52144342744638 0.28868166317696736 0.43595265248321047 -0.2556465870988694
Ni 8.136018674368557 3.3852091914630997 10.830573441177211 -0.47651489017628906 -0.09124588009087511 -0.5707172817923267
Ni 3.2860528966622535 0.273119122586907 0.12072515156648062 -0.14357451429126242 -1.6572371956169716 0.9605975653975071
Ni 6.380343114675028 8.274165653366358 2.697505969543408 2.0054357832126497 -0.8168068213303804 1.9253014396539032
Ni 6.826916043396852 6.792229586397066 8.759351242853038 0.4422338575062319 1.163820901699654 0.2046749811470088
Ni 4.75493592680535 7.024171290230544 7.2342961763837685 2.595338379684175 -1.406614286984939 2.14803147853041
Ni 6.260049321529828 4.315689541334359 12.148341604338693 -0.7937594525926136 -0.7416509048228324 -0.37675942995250594
Ni 2.777611380488962 1.300419320452201 11.947107754452315 0.552750412901261 1.794927226102999 -0.519267450652467
Ni 2.986151188191751 3.2850049109098998 4.127983128967427 -2.099054277300759 -0.35785153730440955 -1.650051990722442
Ni 4.905275097189913 6.5897811958798345 10.82809476773258 1.6913994433209774 1.3250354976701826 -2.017155642752739
Ni 9.354386324620831 7.446313051100617 11.999216974584986 0.17634605229532854 -0.5136511329069541 1.3727423168278423
Ni 1.5137967052439811 0.8034710265969127 7.263877445647087 1.6525279630667602 1.7591246145820931 0.2839505762498852
Ni 1.7662864154361133 4.169738811287779 1.7953109422684947 1.9866644161424174 -0.5323057718936639 0.8149278591401127
Ni 7.91126315855122 2.302115916405298 13.385994063837408 0.30252139727353705 2.919418476965095 -0.6845731859732339
Ni 3.9277289586191864 4.601602511414065 10.9212064304261 -0.7080422156294516 -1.8276627686628073 -0.6279150711595574
Ni 4.148844595350223 5.876374251980532 12.784361350337608 -0.266880765251792 1.834824576518569 1.8819688383045394
P 6.774067619028147 4.601911292930383 0.46712467788673717 0.5030710433982627 0.06136837580515237 1.8944983382301177
P 0.3644651164280223 6.3686094170549215 8.2206603664993 -1.3381861761195277 0.811311602543764 2.1278030672986774
P 1.4855759460555926 2.170621775531816 13.964455063791414 -0.9955234307404145 0.9606309897386036 -1.9380114310214045
P 8.639856538844008 1.943414721615222 9.064515336922861 -0.7742933734482019 -1.0788428568953614 0.10626960719321699
P 3.588630711607517 5.233107497363776 3.356670293742747 2.243169751697156 -1.523397906335602 -2.362754845052357
P 6.958690894739714 3.190873333510965 5.678866365724398 -0.784876548280687 -0.33501088526081013 1.6654991785154476
P 3.9396030114739826 3.8489990289735965 12.93977202320231 0.4504909553087015 -1.6214322701032202 0.13573239253902428
P 1.427160097377506 9.124054027478468 11.6911362987383 -1.2964461160682639 -1.167602223118957 -0.34289260200173205
Ni 3.5732758489324024 8.161853394567212 11.407047946709566 -1.464631486929671 3.1433425361497025 2.018920962183278
Ni 0.5394656372492266 8.161815966504626 6.823133001971168 -0.03341534223565213 -0.5939399997656933 0.7291525152455055
Ni 1.7267810953786282 1.8933640449246754 9.847934278990357 -1.3497857080316689 -0.5389415320426266 0.10869827123936765
Ni 5.173456522620416 3.504005862104936 4.357373174634236 1.737446358277711 0.5622028165634124 -0.003994722981689894
Ni 1.5619759788053245 5.124725185135957 12.84883773804962 2.019031519619213 0.6585549075326014 0.2825097300383006
Ni 3.5064948282667765 2.4424711510955586 0.8777021031198976 0.1989056827633994 0.741586113023168 0.24913526834291286
Ni 0.32022140364739377 7.122354455404205 4.735394735330209 -1.4417777222599493 2.217357932840375 0.28950904417426915
Ni 1.353202245711385 3.819243719219261 6.3170644249657055 0.03944072249412563 -0.9585468535160653 -0.5347264655200146
Ni 7.337509673168727 8.620843083051302 10.774109465962884 -1.2814396153571026 0.32032602955512574 0.11018693996975217
Ni 2.515820796744688 6.75700042248981 0.6021230211196527 -2.942119003886404 -1.4355875342888371 -0.5039035666018871
Ni 7.38319998056823 3.0402815237039613 3.208573064306971 0.43108272598541886 -0.5129376517796973 0.23922572253868477
Ni 1.8368383134070845 1.2768209269929451 2.0256731818609253 0.4723877553817929 -2.1161109756727297 2.133941318985931
Ni 8.745235249049456 6.245480448168979 2.64749178521388 -1.1013099276496259 1.7159791895428704 0.8873815462251492
Ni 1.6925250610985585 5.687633889384716 3.9832141899969398 0.5092918274969939 -2.111522842081415 -0.15743276033059336
Ni 4.148245746348877 6.011676698221943 5.2368896030878975 -1.1779660828517844 -0.19104479195808388 -0.8807640409086315
Ni -0.1772415260684255 2.3742772210673837 1.7417495133075622 0.5799146320208787 -0.4962928441341646 -0.5807844362203416
Ni 0.8216517079971244 3.126356710631675 12.060789880342037 -0.004341050577515104 -1.5988448717210075 -0.5546106060384512
Ni 9.642404623220893 8.942771206352528 0.2880360769297879 0.38214640529603217 1.1470274842913988 -0.03547890963290019
Ni 7.10704637780732 6.5828757183330735 11.781467992083387 -0.15392834672176073 -0.7953098277988689 -0.29316926663467574
Ni 4.571005070251588 2.762715011580503 6.605821927801801 -0.24681870439459427 2.4130769903456764 -1.867517952986532
Ni 2.811633489377881 3.2639609827220064 8.41321184156774 -0.8879471889206321 0.8970501796631648 -0.5891978570950176
Ni 4.002014305832918 0.4601873864867799 5.141627698198923 -1.4554037976838161 0.6742350372720195 2.109407081289993
Ni 8.768159937382197 4.838802858040605 12.841716113441436 -2.525456309981057 0.832571797474121 -0.5773111329597606
Ni 6.013061536537554 5.152637162808027 2.838741699405958 0.5090596568815298 0.5834524699708081 -0.6573637154379777
P 6.789787405313454 6.720367706235653 4.141048329913961 1.3613937245842425 -0.898218231829337 0.1684900465860195
P 0.17978008441319 4.01394450078159 3.659068453987606 1.8542220072085744 1.0253052899885375 -2.622498999259367
P 4.566111351068721 1.606431160139553 3.450685844147671 -0.12780413883088312 0.8767790881189544 -1.3870384217355403
P 5.764978980714695 9.302230319409931 6.802714122428428 -0.20993494399436746 -0.5887723395218246 2.0760421326763017
P 3.4351195129189565 7.371831206558319 9.367995168176401 0.486574074184504 0.5675568817864741 -1.4476598920723391
P 0.11811922270906479 6.818129805705242 0.48223532245349066 0.2704088330097085 -0.8776332085891336 0.6951375917526416
P 6.248661833488625 5.195950788233442 10.107289231561971 1.7738932882508354 -1.5600181286617971 -0.8432038232666703
P 8.875512977888954 -0.21946131636482044 4.682463969223817 0.13752496566307282 0.2918451485066135 2.5584906147282065
Ni 5.513584041353147 8.235240468278924 4.87413775622466 -0.12200244454744151 -1.724236030235024 0.9418758206182876
Ni 5.114937746770223 8.919341239174901 9.492276921389932 -0.013721206240834432 0.09527402741366173 -0.3163372201107068
Ni -0.09082480806963213 8.048773860485092 9.839334245910102 1.3214336392515371 0.11398291667707465 -2.401515767870638
Ni 6.185866901488202 5.631173656976648 6.035619429856972 1.1963440711383397 -1.0006435255757993 0.6657210862637374
Ni 8.702136834983898 0.5393327676270532 2.79261722648048 0.022212531541297226 -1.5438466611082573 0.08634227214167066
Ni 8.882624309779928 5.592997033140896 10.213274276381282 0.4572501284094061 0.6429339131658928 -0.28248864699237797
Ni 8.709482092266024 1.096651590728881 6.827378279969765 -0.9636450939745791 0.022062122006362 -0.38875002665547886
Ni 7.155188223306079 4.566878626351694 8.079506978374436 0.3404760221404394 -0.5755419568744797 -0.046440550850726466
Ni 2.012834420693025 5.97752359111398 6.98143312126736 1.1340999775964533 0.9708215571183603 -0.8277394090824841
Ni 4.015404195222369 1.1142427801433936 7.82378161217191 -0.37032293029854285 -1.9234520451499906 1.5826538637834422
Ni 8.816919345913595 1.0769644298096606 11.162402222733489 1.2537969139391696 -0.5077496798208546 -0.25518790229489596
Ni 7.555733992065145 7.669150378710521 6.290851681334953 -0.31836890582875493 0.5410387808912875 -0.4662723865126744
Ni 7.428254010903803 9.279923194109825 8.374591695190368 -0.32999826253756714 -0.43635682990016467 0.6295770322430125
Ni 7.972504825954403 4.799138468717137 4.779889216130151 -1.1921189773133984 0.5761384528078981 -2.2510442693492267
Ni 8.949386616414262 2.487113472742707 4.895323911050373 0.5385147289178532 -1.7971712849421695 0.7978608763554969
Ni 9.050376886281727 5.656924164034487 6.376828619598383 0.2909100382868538 0.007758303789180188 2.4108414161469383
Ni 7.324269496029613 9.599923772187973 13.093881135190651 0.4323032286560813 -1.1333502439146221 -0.7217659929734473
Ni 3.9067224584938773 8.791655403669349 3.0411526618606057 -0.6112712919552892 1.1258521357653644 0.6683446399295134
Ni 2.095821792457553 6.400273558001044 10.767782251983046 -0.8170567325576573 0.7080859243831935 0.13031970616388525
Ni 9.016953626394153 4.473561109313963 1.446883750657746 -2.638796193757494 1.161762219398412 -1.5698166028094576
Ni 5.722994051511016 2.839517396003013 1.7407361485130983 -0.2512055206083803 -0.6500193592577643 -0.6972744355899863
Ni 6.429607802051308 2.1949125881488767 7.947884646386603 1.2400466542326125 -0.6885576245422786 -0.22202349972778537
Ni 6.400441984282673 1.539107432566458 10.901101946609067 -0.7313693203911662 0.3355351331953963 -0.5655424224596067
Ni 6.223790885901511 1.130224562866791 5.119674268090237 1.7882140757488816 1.7271686305007865 -0.8456108900462662
P 3.911850103067895 4.917598286795717 7.12458610363578 0.8924527901004695 -1.115310355693776 0.9255403166830576
P 2.663165722122524 7.554798290500542 4.912456606698231 -0.7046092786885026 1.6207563270821184 -0.2352747083107367
P 3.9437107413425836 7.851649611870443 1.2611516685921245 0.8618623189081221 -0.4693553963133723 0.032142903281131736
P 7.131767613144097 1.076749218449802 1.4198915676236799 0.5956099312689483 1.0670888016832267 0.481273745017513
P 5.713796105130981 8.53475853910794 12.2687065108028 -0.9283276496202076 -1.1752517692444144 -0.6990307561594605
P 4.051924627288774 1.6277090137185963 10.091498331957753 0.5110679455608101 -0.05754540251463637 -0.7977264076601617
P 2.521500505241821 2.02304292476283 5.684001495910931 -0.8986504342707491 -0.5678129636613382 2.407594112854234
P 1.8345364875581642 4.357215976771383 10.360754878485986 -1.200297656469449 -1.7093837957135398 -0.6039066240601019
