# total energy = -381169.8848401518 ev
CRYSTAL
PRIMVEC
9.25731385557008 0.00000000000000 0.00000000000000

0.00000000000000 9.25731385557008 0.00000000000000

0.00000000000000 0.00000000000000 13.54901457124979

PRIMCOORD
 96 1
Ni 8.141807572735754 6.220322470942322 1.3169954645347142 -1.6851521768596847 -0.9781525435621348 0.2088273127524855
Ni 7.946413448303994 6.147726615359156 5.480684382364529 1.1932872865898867 -1.9888951052451485 0.004353391872689277
Ni 4.661492641078307 0.15593760113839594 2.7546368724368855 0.4075581605009174 1.2996044591915876 1.7767513265249206
Ni 3.211306647113811 3.0012767094103103 11.297737893846897 -0.019807007423598148 -0.7557634329648146 -0.762442387646887
Ni 1.3595846628509487 5.8007439758579835 4.190628627002546 2.4470955133829664 2.466056113645869 -0.2589905638704378
Ni 2.3455904233735843 0.06236930092074201 5.5465871999998955 0.1183710184424413 -0.3056501727105059 0.8586579530382115
Ni 5.972596751048735 6.003979045160816 11.555101403239032 0.2631565223226694 1.908832752574919 0.34695443077593147
Ni 4.6400804740336925 4.438632066313053 12.493302394795656 -1.4681343578766068 0.8242545358576772 -0.4516440950765383
Ni 3.468548885693892 5.318669354652509 0.789938629370536 -2.011123063405414 1.208871514181389 -0.4979576334310973
Ni 6.136367891207085 1.4617020924528226 7.195434224470534 1.1872968733344067 -0.3898969957757285 -1.766895002556131
Ni 8.524551215822463 2.534763632866313 1.813467986044766 0.329965866637735 -0.5320036672722127 0.5327117490828309
Ni 3.195939506044179 4.481280511438231 5.330954735925707 0.5292538724412176 0.4502610986860826 -0.261668110702601
Ni 5.868016875950161 5.726833581701392 0.41197176025487026 0.445991010555819 0.3546312305948989 0.6085258679996681
Ni 4.138537721702053 7.220667810691982 13.220396823042515 -0.05240859550870328 1.030719004804941 -0.9258269946855411
Ni 8.249044296922873 4.264687138181496 10.669266259205653 -0.12158386895278414 -0.8866305269917375 1.3257978297575037
Ni 4.319333062117663 3.2518166527286967 8.73677050826269 0.5555850541365787 -1.542378304092847 -1.0286963179479574
Ni 5.575615359187874 2.3737048856798926 12.788494991698 0.9155932327726748 -1.3973827410843418 -0.5698330794151606
Ni 2.912054718067471 0.4088918519212157 10.420492611378886 1.9310239439599777 -0.6700546806420847 0.9061930225046975
Ni 8.449641031764955 6.125786781422392 12.57283568141351 0.2992080166295879 0.19253886000510712 -1.5112604996421197
Ni 4.096815007966613 2.450299900866721 4.191929279605127 0.9857013024436702 -1.9143004605577096 -0.48961414656240837
Ni 2.038923385895452 2.4360343801508764 5.03584360338566 -0.9589374040862646 -0.4105750929503703 0.5045825949467826
Ni 4.651179993396639 3.490451690375066 0.9641871973979272 0.09547405923960976 0.2171072933730906 1.363190411473349
Ni 7.1520803720263775 0.8885216165263946 11.376280647877731 0.4459257045355224 0.3453780874277471 -1.3655799947514482
Ni 1.977686254464358 7.629942915408549 11.500173131228996 -0.17852506222451833 -0.7082964977321027 1.1378553308738275
P 4.938110437645581 4.157098636066277 3.4263290542021627 -0.21592869968395714 0.7309805695931798 -0.7049234674948118
Ni 1.9777510556616396 7.231813616624414 8.85628613360328 0.30279779086337527 -0.26319380331850806 -0.003714472737109732
P 0.7431762339493679 3.1444966127165013 3.516985929199094 -0.6547221640500724 -0.11343578592435304 -0.5301722704904288
Ni 6.791730171257404 4.122957662412782 2.1477764370890515 -0.11593978329312936 0.5703005059698824 -0.8329849737521396
P 5.78636736737537 4.665445514112483 7.799869243577258 0.27306426835468456 0.2993563692819941 0.3556061929136586
P 8.944250055987466 2.2335954398432176 10.071104921727176 -1.9573828935694808 -0.08964691103487142 -0.8880240649051545
P 5.33256458281246 0.7881177157269237 5.040788860469635 0.1819088910950867 -0.2991853909217686 0.13233776503517852
Ni 8.467257700111649 4.5424065551025565 7.88116327129839 -0.5575439776351624 0.7642938390333289 -0.831998184358838
Ni 0.11012593185448756 4.179380990617243 0.3466715937542213 2.3844732105660547 0.6318190341996539 0.25998866611764904
Ni 0.09958185132538463 6.140496653205312 9.907527259429282 0.6666921919277551 0.7242638196946365 -0.24155437067186145
Ni 5.396791826632405 6.330512278262701 5.928194970671397 1.3103089900932854 -1.648399799831 1.4789252778445239
Ni 2.005078646286672 3.2546031042118044 7.1100484640067645 0.28482397999377396 0.8710825519548095 0.3378229007883085
Ni 5.218681107247031 7.279433239312478 2.0483399255918555 -0.8562850819306607 -0.771096206667143 -1.3402690267904853
Ni 1.088891547177991 1.1514524744964085 0.6596919257601177 -0.25072600986880045 -1.8618430140889417 0.09002280631705141
Ni 7.0256254641883205 7.95405998958322 13.32842319610508 -0.16297605874632576 0.4971428508392858 -0.20960404301750996
Ni 7.095906991297143 2.686009627321523 8.91359908967328 -0.886563164088912 2.245124304320366 0.5217423945555207
Ni 3.334567781657275 1.7204532731981748 1.5125173398982588 0.24538480016154512 -0.8454594520700665 0.5018348569983163
Ni 4.071088932645825 6.455384185424307 7.925374351009443 1.365435498753784 -0.9217798211993609 1.2560587133901528
Ni 0.3362959963380505 7.918984027226091 0.993206099272009 0.37138479590415396 1.4691365738888762 -1.3022889480022861
Ni 7.74684427530452 3.2952889987907397 5.6676210248196535 0.12032685661723148 0.7501630560589017 0.9458049804693647
Ni 2.8832922437883464 8.553100771881947 1.6577081253331996 -0.9058991454133625 -1.201973501509975 -0.610211226121891
Ni 3.06935499581156 6.79695129629552 5.910676429852017 -0.43757938945335606 0.5816730094728821 -1.292614658137316
Ni 1.2524405118028035 5.981104222520417 1.8389404109647656 1.322556954222703 -0.7047581455615411 -0.42404947328772136
Ni 7.022764954194034 5.846734311300112 9.375159503282182 -1.1721227366971299 -0.7289997917177252 -0.7708820337738078
Ni 4.49978588191907 8.611995802897008 6.961687048561975 1.905821219442105 -1.318444474716226 -0.83624513256065
Ni 7.807942547027154 0.5672632008832299 8.951143051915446 0.2592816127482954 -1.9880103886473504 -0.25951301203281113
Ni 2.698071907329794 3.9105485950376573 2.6222896843031545 -0.8259784605273195 -0.896554728083985 0.18390021049350266
Ni 0.3956631503618758 7.968177393276707 5.06184369519781 -0.4975737677291173 1.5289126655062442 -1.7349711572643407
Ni 3.8026268296221333 1.556904308573362 6.78136290542374 -0.30755947391807675 1.73602119579541 -0.4418026835060843
Ni 7.922168543206785 7.081252663397609 7.520827882231653 -0.08450290494008673 1.4180952910413447 0.835133130443394
Ni 5.127829828658254 0.2123350088639454 0.4669870510155426 -0.6757195922373459 -0.1539085492274188 -0.1569175112570717
Ni 3.877129691868156 4.978277922646263 10.03616133895878 -1.4236514449728837 1.974096863890052 0.5743816180177915
P 5.834551686211174 7.691355935803692 9.08296164742564 0.1913021593845286 -0.21605982594518272 -0.022240299455439115
Ni 8.559830839085334 2.1693867106510685 12.530359422326823 0.3674900888354381 0.5275001229749045 1.3062800714395502
P 4.879520897989134 1.6139571341228451 10.842422464193156 0.22153781834061845 1.4760235308166967 0.4698896715502875
Ni 1.103277412974502 1.4652661583033095 11.253581432287838 1.4247832445844817 0.31477321805769665 1.8472612596200253
P 3.02052266500294 9.524202257029819 12.788345948944253 -0.03681074107044628 -0.8204318196774774 0.580907077841135
P 8.33809965661556 7.2712405165133065 3.2109270972440194 0.8109804444565903 -0.8741617051007655 1.1595212458830353
P 2.271698543844787 5.1858731867947565 7.9711017787368865 -0.11614058645002578 0.5658848934006899 0.026432740270231896
Ni 0.7191942365668447 8.798882455857086 7.596783217028174 -0.9706323239256898 0.6072891673790897 -1.290358000892655
Ni 7.085594343615475 8.10186226326861 4.8561156312624165 -0.01188620991462469 2.030132514628381 0.17581563371315528
Ni 5.147566421887444 0.5233909388608202 9.093258557673682 -0.1021815531667724 -0.46596668234679745 -0.10331798076406076
Ni 7.15009930685234 1.9844348362955397 3.977191072053424 -1.5568392167131833 -0.6115772532314822 -0.3757988658114496
Ni 8.770823537434161 5.006799706764056 3.1896954478204043 -0.8971854196894484 -1.210422917828909 0.5200971456426139
Ni 6.962462811466574 8.525597292292867 2.1944934716721223 0.29609055404652873 1.5926287156079668 -0.41449988192607323
Ni 1.8623123513614521 0.8334942912576557 3.3623776783363604 1.2010383912902154 0.3914306588114355 -1.0566560363856772
Ni 9.20591729061049 8.827135777871856 12.170253614644741 -0.7167412860653463 -0.05488508207365386 1.0516727242384727
Ni 0.9726659711965272 3.7630518127108816 9.24461471416427 0.30321096714139395 1.6245592457679763 0.6691239412976993
Ni 7.34711346121614 4.08584509099823 13.24078790836425 -2.374889937752994 -0.2119352622538479 -0.7387378449410954
Ni 5.844919877776227 3.9416809416745076 10.65724841430409 0.5744109285938301 -1.9173096796976785 -0.7230741702619096
Ni 9.009319715372072 2.2545725131346552 7.437000127696811 0.466593517297519 -0.9137127279205103 -0.18844823487550127
Ni 1.4189333022469792 4.667296976891957 11.603823572012274 -0.15373551398466426 0.48012497612505045 0.4993285456366949
Ni 3.6354489979495517 5.994805047088524 2.991554678355294 -0.4589866514845386 0.6816644969668713 1.8025217506208056
Ni 9.134423055381111 0.026709202056688117 2.847027642326794 -0.8230851981399244 0.5502641561442975 0.11202245051659417
Ni 0.8771045712967699 6.5213425469430595 6.574740584965861 0.07064954399676221 -2.035585567323152 2.371519478618864
Ni 0.5955665123930448 8.794263056222299 9.893680169301598 -0.6703783825300906 0.055617332253988086 0.6137009844427043
Ni 5.9899542146063025 1.9970618124515507 1.9791313211637374 0.14418386574048717 -1.6513082317270464 -0.5718125717390345
Ni 5.523746629420918 3.587033246266314 5.956770447209794 -0.9263944371532369 0.3546443432210215 -0.3383499769363721
Ni 3.947281616582416 7.543942469301993 10.239342715841007 1.2348093170930732 -0.9450503616915273 -0.022641391548599715
Ni 7.575861687620121 7.672369185000189 10.779095031284037 -0.14173668975157525 0.8874525086724006 -0.3534346391836365
Ni 5.365187356986787 8.908683455993776 11.730940377793992 -1.397287353157058 -0.945331640377372 -0.1841958873570505
Ni 0.46521427540419646 4.36641576059968 5.485020508194056 -0.21247879346214374 -1.7489178492524202 1.2992396196530012
Ni 2.0359055015649097 1.8171274022283956 8.934911277727801 -0.0024775150062150884 -0.8959960273670375 -0.832236011401257
Ni 9.02877858918434 1.3023744629652103 5.0026616874519325 1.0812743491549897 -0.7863148233891103 0.6574074241917194
P 7.993764608889035 9.378214416868316 6.6808969806211564 0.21969485159460875 0.18122883430892658 -0.029480783067936327
Ni 6.389759087205861 5.595907391250908 3.8887837243335532 -0.43851038590805763 1.1494306944162527 -0.15610144311367954
P 8.217310224882693 0.5572199410359746 0.7662167625085289 -0.2322724311493032 -0.3900641174812121 -0.47952693752973546
Ni 2.1933816682730485 2.8780433468085387 13.524585677590322 0.5576910447359879 2.2151318717233335 -1.2688815761864343
P 2.8110944527027684 9.23068060528595 7.946943892390313 -0.8433532043603411 0.13209531000706928 0.9145069416870315
P 1.2695572851990384 6.276412535846479 13.20440944194176 0.7024788626090611 -0.21010078014827038 -0.11973318889729058
P 2.5457428071485926 7.958623845334624 3.8481774426541357 0.009761450262138028 -0.5697950270883736 -0.24659913218462043
Ni 4.855840689039665 7.819217955354148 4.430528213727297 -1.4544005532302824 0.85300435429686 -0.3059345367201441
