# total energy = -340871.5053045926 ev
CRYSTAL
PRIMVEC
9.29017517377802 0.00000000000000 0.00000000000000
0.00000000000000 9.29017517377802 0.00000000000000
0.00000000000000 0.00000000000000 13.59711043212304
PRIMCOORD
 96 1
Ni 3.6864344500117623 2.628274196261127 11.68305872409849 0.5869378574162473 0.17665664155721192 0.010338920032162838
Ni 9.062473076893157 7.803756519352664 3.1784197955675872 -0.051443146271640434 -0.28504792307912197 -0.5712600416696741
Ni 0.49795989774639116 6.497595036693825 12.738561987721097 -1.4504564809808698 0.13378478189435025 1.3376141056661415
Ni 1.364810359156216 -0.02034362581244363 6.791485086362172 0.023483942054553106 -0.6411261705331927 -0.19754016987444042
Ni 0.08693188609798157 2.0738644065044376 0.9078192053454788 -0.31318170520086064 -1.5961971496855156 0.6275180928314548
Ni 3.777868355046958 3.378697394099261 8.797425305376839 0.5506156259464452 -0.13944557972455338 0.3573056921032685
Ni 7.234584641087447 4.834746564609943 10.509737457665851 -2.5369406564715726 2.5367673641185022 -0.11879267936089218
Ni 7.059427676493506 1.1597297400084887 0.2440965682410324 -0.15429832846666974 0.8370907683903971 -0.7974011631102589
Ni 1.1289420991543293 3.4137585155789223 3.305824330241654 -0.832993458392572 0.3619619599283573 0.5853208906381145
Ni 7.022071881721455 0.6014821788465929 6.726069246196066 0.10471203289810997 -0.4710222424928339 0.3517366826559233
Ni 3.4863240746349993 4.397383693115642 0.00883309864940698 -1.7788326345339815 -0.35532285734528485 1.1531881045761558
Ni 6.864445477867346 8.75274792347227 8.74528048058797 -0.35992307512145755 -1.053339056197302 0.12092309544033367
Ni 4.192693261329373 3.473289958727219 4.88192021661032 0.5324842064530572 -1.10241344512645 0.40081261424696774
Ni 4.938926590119461 9.209369328307151 5.765895258100553 0.17013426705766183 0.520668958985684 -0.05446136427267395
Ni 4.28199971622709 8.463637668981795 3.4038189570545216 0.07055981249643332 1.445772445241639 0.9046624447927838
Ni 4.988313161869827 7.327913741878299 8.626088460855087 -1.1700650828371526 0.7189655474101747 -1.753776205785986
Ni 3.4223612178815634 7.4299570270750666 5.734227837648056 -2.979010734706431 1.0096853240630934 -0.6457945225431394
Ni 3.691116698349269 2.651035125679561 2.4808335405761475 -0.2520069334637531 0.45210123721861495 -0.6464920628307963
Ni 0.7488735966026264 0.732354735950007 9.654193139563061 -0.35764070684518406 -0.4673008277771888 0.10247388759621061
Ni 5.3457898161930615 7.9181278671364765 13.052397114682686 -1.9704690373294775 -0.6808805676129951 -0.12894005220753924
Ni 0.21495886251532764 8.811118094711464 0.24722642829044886 0.3156381371611532 -0.9729316614828277 1.0482901809194851
Ni 1.947917500330678 1.9140083605848477 4.996693828983447 1.304400080808018 -0.09694832979229111 -0.013314457720719005
Ni 7.697885681943491 3.1131191535748637 2.0500769127183553 -1.1555571190289646 0.3972871175922125 0.7092467774605139
Ni 5.032255690910314 2.295723082194896 6.93063797668626 -0.018294427433813654 0.9013583201202153 -0.11473702123427981
P 4.421984077238096 1.3717779906108387 4.10538883920295 -0.17789488483968718 -0.6628080263820005 0.2776061220890961
P 8.227472123371177 3.0282069515811956 4.25521614091552 -0.25546352455378585 1.536362179805754 -0.27636299371061435
P 0.6818338337988289 8.739602325461217 11.774798275900162 0.48162187238555115 -0.5386733659829046 -1.3766951308280033
P 3.455712947111024 9.356321320772778 1.1267533338600504 1.1155147583950982 -0.7645872019040316 0.6985067653351905
P 0.8188611320204929 6.7299794809684 1.3343525195242418 0.5267398477701122 1.6577102785986482 0.1069298664850352
P 8.636304866602618 4.8218239308054365 12.005255937823152 2.095207135640527 -0.22214562712794644 0.5367164993668498
P 3.939182958484382 6.190155266390055 12.001952351496135 -1.209571111351575 0.16200083931725004 0.7100463905436739
P 3.4859803381499046 -0.6694899779138194 7.456152534291866 1.2418862785445128 1.4352579188635606 -0.8273522009463945
Ni 8.498002027315994 7.345481463319222 10.459400500985076 0.65145814858682 0.046629526933080985 1.2781452608765471
Ni 9.035940336313955 1.5507253467160944 5.610657358309087 -0.8838344523038392 -0.36072705907999164 2.0360218835296227
Ni 5.408526369810483 4.497243787123294 12.536943816897553 1.5887203816924962 -0.2604450369287773 -0.5366992729756692
Ni 7.768816170151549 3.3961907941380005 13.285736588975308 -0.7430452140671977 0.21822212370382418 -0.5289139726032955
Ni 2.538531103125587 8.22600427567807 9.17174040238208 -1.376476587059294 -0.9694838121435432 0.5498746340153627
Ni 6.325485249589373 6.711306228670011 3.660546447596494 -0.789091614803299 -0.06673375388212378 -0.4635652719941564
Ni 1.0754399797581 6.588034892974828 6.529468699037378 -0.03412625225974768 -0.6829240804055852 0.08640706394133506
Ni 8.039243882168364 6.887949621307606 1.053516095131748 -1.318810085585761 0.9170795875102141 0.34922651463955984
Ni 2.1516510440638448 5.457244048941205 2.195117916130363 1.614525258570742 -2.4770480938809984 0.07610928155975279
Ni 6.188557356243127 4.274372482328096 3.869697092531248 0.002968081489388437 -0.17464655310571855 0.4794001821438841
Ni 8.673948656808125 8.131513902978114 5.761789000629962 -0.7084592485622122 -0.0016779019230551747 0.06143882403177161
Ni 4.978270482399897 6.0691507334614405 5.92023665597819 2.6516864194566008 -2.2951417738890734 -0.2832273249306154
Ni 7.34767394468361 8.52858528431415 12.360384964854944 2.037306920889633 2.8745169884667137 -0.7442978555273763
Ni 2.6742234031605454 1.3190376655869813 8.307535782889955 0.0816132420971175 -0.16637788533902315 -0.25637446640382944
Ni 5.542880884606154 7.039630312987105 10.803951734451223 0.5783169485164557 0.377035309321712 0.021236540781273103
Ni 4.877602143143509 0.9777166260631988 13.187415877010363 -2.105941491338896 0.0052440220077587104 0.3924395596919241
Ni 0.5175110716080624 3.9132262087720937 6.279050166523185 0.409500628939269 0.1384832158112841 -1.4948162380431673
Ni 2.6632052552869685 5.04438865981663 5.03978259091636 -1.2578458871975629 1.2740587495119993 -0.37561965992110796
Ni 8.803435119760833 4.860712604497503 8.322410282519284 -1.3480777242016269 1.5164772679563687 -0.31324598277989274
Ni 3.5993762175300703 5.622488396519036 9.737666293406969 0.7932742854260789 0.8057083974243737 1.1998741957787853
Ni 6.903724338920871 3.2916484517928417 8.893122471844736 -0.4717706906230843 -3.095967903520481 -1.6226463450159796
Ni 7.702224193795902 1.0110776454679322 10.069408233206936 -0.47319611021570124 0.8632586850350166 0.22099942933864522
Ni 8.890511932593071 1.2256621139197648 3.331468930064774 0.2985451862346084 -0.6131386841813311 -1.3209222468327575
Ni 3.1027884786714766 5.640706430229056 7.461441431074689 0.3280290546263383 -0.4806844481729464 -0.5708715479820039
P 7.967198572927566 0.05646382727320756 1.655353158673763 -0.19119957236839327 -1.1630120326451132 2.453089526182872
P 1.816805256705225 3.1576098029564474 1.2900978405945878 1.5719390484690992 0.6568536085707785 -0.9646622223851837
P 5.8726077853894445 6.289318597252244 0.9394661874123749 0.5546638278738899 -0.7357432810891459 -0.7936756346295557
P 0.9428784687900854 -0.23942732614890788 4.557710750921563 1.2491833264265582 0.6177461010463554 -0.1610716426347613
P 8.585887085396967 1.4428478314479898 7.9588643566903094 0.28612315842117175 -0.21310305730970397 0.512129554056105
P 2.8029387815656075 3.009087770869711 6.78429170364842 -0.21978021221956343 0.3576360788594938 -0.5730952951062002
P 7.188291697702934 6.55160811573006 8.945988214234776 0.16444287309983938 0.5065597732778114 -0.38921153967292965
P 0.5276735943390114 5.660448052683821 4.56733723053927 -0.3163058526521391 0.19152713091114112 -0.1295684298201575
Ni 1.654933242751431 0.4407101216451022 2.32431731266714 0.6293428047450194 0.07836491036314891 0.4795819591373869
Ni 8.08603849501761 5.3203533162960515 2.9164034082427928 1.5337535385383134 -0.19115252118054177 0.8166756950691548
Ni 4.959792323782238 0.9470869181886775 8.74700752417119 0.6494992250882362 -1.203261109973147 1.1757762742893172
Ni 6.207351380820063 2.241124722116473 11.696247985933327 0.36541649413586097 0.23762649637236496 -0.9878476593627117
Ni 2.305905114293918 7.2921465670779035 3.523637134600795 -1.1022010720053275 0.6924065659747237 0.8688922291717102
Ni 0.1894350349707539 4.681570154711518 0.9792179183872881 -0.3017104713364675 -0.36382986637503145 -0.6707365372004578
Ni 2.0258899413955422 1.0142270148854216 13.36730618590581 0.5737115885339603 1.3589226373359307 -0.537924403632022
Ni 1.3738125389955884 3.4588808968790588 8.516822064383694 -0.05976195054998095 -1.2677747162755004 -0.7259615191120335
Ni 5.8864408563706885 8.273737196229872 1.783464675686092 2.0126384716086756 1.1279619830195156 -0.46632792234095816
Ni -0.29525570543345386 7.794995884070385 8.186561907539742 0.49014019426920746 -0.3493632973277403 -0.3296239099172839
Ni 7.878412367845128 5.6397588323512275 6.220052908453076 -0.17300901750229558 0.723936775372521 -0.7600098669459944
Ni 1.931501760623587 4.230337051534881 10.677715903826478 0.013300316653331933 2.182075712599313 0.27869524138821683
Ni 6.346629688510333 1.9934765198686373 4.982987104385913 0.26895821660611097 1.0416423365856642 -0.6446436967681478
Ni 7.196002543179383 6.415999427272557 12.489966187595433 -0.4114713795123946 -2.8030025253664954 0.5108679137348621
Ni 5.993937474452607 1.3442604914527154 2.458778664478449 -0.7819570606410469 0.7901935896182262 0.1970696579959251
Ni 8.743606391003807 1.318786830854615 12.165987118253442 0.9647103020142999 0.17930744891649764 -0.46791249321925865
Ni 1.0339314766390946 3.219352307819677 12.622537917756247 0.009243630085455048 0.568530301443337 0.08652816290023163
Ni 1.9052291449520231 6.868347351481934 11.144463599708741 1.274761946226611 0.10722862867237662 -2.1718342373769626
Ni 7.052515786090519 9.157613761862214 3.965216816651434 -0.5289039453009665 -1.1582513780316763 0.7286061558237322
Ni 3.89433928244243 7.091729615917137 1.4753132779564222 -0.6133238036089437 -1.0825758415752322 0.1622209257478561
Ni 8.7906239680596 3.382924423848399 10.102040902870279 2.851288871176709 -2.4778183963881197 1.716836138226527
Ni 3.4251854311645036 9.273926756278048 11.071148323508146 0.7152137936772263 0.8429359143172644 -0.01823863449521375
Ni 2.8192058784683334 8.10993282581933 13.074342366712164 -0.5192666793215186 -1.3709980804432258 -0.4114119870293689
Ni 5.678554604290566 5.104040875243472 8.273814304684636 -0.8724364948795426 0.8980318268501438 0.3788343102036637
P 5.233313664164905 3.8864333432852516 10.30058588371357 -0.4389765269111988 -0.31165112748894713 0.4739057346882161
P 6.301813882994201 4.185437634441293 6.471980165431578 -0.7008351563580509 -1.4121696695855293 -1.091176695870366
P 6.5364930005611654 7.63443378483006 5.580322148990715 0.26109578313889875 0.43921718216709515 0.39885960428565503
P 1.8272474137118861 2.2129197499881603 10.768517147925593 -0.5184143586235523 -1.6291625488679429 -0.15584073325312517
P 4.20604324319643 5.492165817791774 3.3365813135174127 -0.16796425598953654 0.20967834789887113 0.8297402415625967
P 5.779854675465508 0.07429538969187789 11.018622601533092 -0.7016612518037723 0.2219031720998372 -0.4298257136498662
P 1.4415100462087023 5.61294738651384 8.881591506296099 0.5729181460983874 1.419465431915994 0.7652618593735531
P 5.573649945109768 2.812284697890075 0.817246499558075 -0.014329015028162417 0.6581581863148149 -0.7092609185279011
