# total energy = -340871.32131318795 ev
CRYSTAL
PRIMVEC
9.24998545975279 0.00000000000000 0.00000000000000
0.00000000000000 9.24998545975279 0.00000000000000
0.00000000000000 0.00000000000000 13.53828872320927
PRIMCOORD
 96 1
Ni 0.9211107633900943 6.866513854280326 1.8931537959613425 -0.1772495379462044 0.7547720155858226 -0.48900839465760937
Ni 5.144074087431566 7.524789059735414 11.279642076569923 -0.4738710247955387 0.20575021648905856 -1.1245992371948696
Ni 2.2558586704246553 4.009914887104729 9.854154588520078 0.25416820278113 -0.9269276839488875 -0.945901653948229
Ni 4.803702377530198 3.5765160748178935 4.367113245305731 0.12240970728818917 -0.0351354102505524 0.10881551354352227
Ni 1.7866994148821542 8.559631167657681 0.3980213184235113 0.89738056641939 -0.43305939009581546 -0.296944674516708
Ni 9.158752716977235 4.101887491163466 4.666688819942023 0.40150938320367624 -1.1252494691843589 -0.3642579550513856
Ni 5.650501533837252 0.9526837382903944 9.98620737897995 -0.7920972343988423 1.2221864861227403 0.45198630890730546
Ni 0.007979962337470734 0.7284363441240528 7.212631655063852 0.7200585233640374 -1.6978917359135404 0.12179881317706766
Ni 8.952117294864381 5.917983359399604 13.329731123507885 -1.5052135221170915 -1.6507693285044407 0.25289884915040317
Ni 3.7752057595389688 5.982696256713787 0.45776327362553804 -0.3234602043087333 0.5370545994325588 -0.45549740738435746
Ni 3.5109799288100345 6.179350944663976 9.327217149659454 -1.362770550327111 0.5034225132004104 -0.137615211384034
Ni 8.479757544400394 3.0554551516324713 7.207027088957124 0.7039225370341232 0.636160084777169 -1.2378643018693134
Ni 4.491015873698204 8.383955446418264 8.560273116639042 0.1596426234977186 0.5334745953907845 0.41792613399880285
Ni 7.204434318071309 7.474154640081636 7.803523492442236 2.8626919708073277 -1.5000582031683973 -0.14687786763288255
Ni 8.38498219478903 1.3744923189685014 5.154960395157276 -0.2803556598097752 0.7605641967875676 -0.37664193053803524
Ni 1.4857603924093679 7.52556605850248 6.8291050636402435 -0.22249632559914584 0.5933879839169652 0.08415374913078409
Ni 4.134391939585712 5.423664143780691 2.8632534066163946 -1.4250629806084296 0.47540725893440705 0.46038121783922
Ni 8.65719076285103 4.650541120565042 2.3237258127337115 -0.2007242240293769 0.03230539700092501 -0.36122611020359724
Ni 3.8402979062513616 6.667056420777508 6.936735117853885 -1.0012999282128756 1.2471719524234843 0.5733084395582706
Ni 1.4301217306962735 2.445992118722686 8.248500511356882 0.4094358371396046 0.07975921960751425 -0.8129267695496838
Ni 0.5688010224318815 3.0460201666038165 11.774966765593362 -0.5500741516206785 0.6054120049610348 0.2660605833433418
Ni 7.661920092137181 1.7249650128417235 2.355229412744095 0.2053910333774269 0.3209626346978601 -0.3918181240578414
Ni 3.8312976705328508 2.090598432658048 8.709343105096185 1.200030261740675 2.3441835098080723 1.0738657153957443
Ni 6.471761480669684 2.7526291321539538 6.010729262231277 -0.8615753837953225 -0.23575499038126493 0.721223747316732
P 6.680764899025024 8.486944782995753 9.987073177606108 1.360105087679806 -2.180836697985889 -0.9451223525800433
P 8.64848652666283 1.8801057666658327 8.952884118647592 -1.0135926295372997 -1.80531808241902 1.6719184517782304
P 5.754064369504717 -0.008014187283162912 2.39003618251304 0.15912788864482919 -0.34340270886893115 -0.08465665690913161
P 1.6981493053926362 6.240613597452973 13.168016405115281 1.6733654686374018 -0.017663478718034094 -0.31675322460220284
P 8.170502785122942 4.5454890372607 11.493722811868624 -0.19602681855370757 1.4993508926887273 -0.06886854083693945
P 7.2075885630661825 3.359677918894642 4.118307140108921 -0.5608079930984148 0.3238684954907455 -1.6353234262630159
P 0.17955516508355093 8.911824358800834 2.3949904746516153 -0.5008174714773955 0.4833967048977868 0.13281470467159706
P 1.0936442646155555 2.329775303134437 5.410441289762591 -0.4027183159101129 -0.6074472902235087 -0.12829984752037904
Ni 8.438067860553193 1.0562835738991487 0.13848708025000214 -1.1242354260975478 1.8740722091652822 2.3732922542485704
Ni 6.813363438618906 0.2979226022592137 7.718259902737699 -0.09856246835694639 3.725967882233525 0.7355165097903205
Ni 1.4950843776141558 1.8154298692929391 13.608687555862439 -0.2325028019925544 0.009846039556144335 -1.678212255206742
Ni 6.217063134822626 4.544194039315591 2.3235898379494753 0.1511266156069075 -0.607103790841161 0.2535933041142665
Ni 1.6230301745909672 0.1035175107393865 5.28476543918385 0.02991838482598718 1.497872251260672 -0.0509716059518606
Ni 7.016539366221254 2.853860971520222 10.608196742013073 1.4949339945679545 -0.08415529179268087 -0.185008613066333
Ni 7.809041108686934 5.926511845866681 9.492181387895753 0.5172501631121221 0.41281092425942456 0.8962158566873274
Ni 8.192203250688847 7.981867834447109 0.6415290320277591 0.5017633803304326 0.8939872244671249 0.3157209266829466
Ni 9.154867723141905 5.603631858209613 6.341415312501759 -0.11312313977994067 0.6446367547896124 1.41842567779757
Ni 3.53887788454182 3.574129578604763 0.16994720532937121 -0.20434356594951905 -0.5947077311696533 -0.31197251538410786
Ni 0.8000256805267663 6.0902365860698024 8.647555053140884 0.09846939442250784 -1.9635946788071472 -0.2481896166001919
Ni 6.009382464368363 5.175024538319682 10.865058659426994 -0.6532152404872428 -0.10317348476639653 0.23840656907149907
Ni 2.896928903180433 4.9902098315819226 5.317894261615346 -0.41300658520999833 0.956246487517663 0.6096116448646792
Ni 3.266817316244974 5.160613061187678 11.434492380854916 1.1041556246285371 0.4855559173326347 2.612569655960797
Ni 9.237784591570199 8.406321910927367 9.316684191373053 -1.745997847392148 0.128967563011365 -0.0864253187737802
Ni 7.65651810070901 8.86526918267415 3.7868625910420177 -0.5419124417454925 0.18685903601151044 -0.5920566667000513
Ni 3.2304463739580433 1.3387873756247701 1.17035254289558 2.0726639602326884 -1.671464137849631 1.6180782660293231
Ni 2.2865686216943932 3.3942081141024527 3.762290005033566 -0.5190599626273512 1.0537833428235723 -0.6102150827766329
Ni 6.230466363554509 6.8140756874887165 3.33383068490879 -1.5205938612279037 0.8712003084795964 0.7189529490046844
Ni -0.12603290001217832 3.8646161176634517 9.553456065665669 -0.3213066483008402 0.39299800329855544 -0.1694629520222501
Ni 0.8127296103682898 0.9150982729306577 10.707432434546808 2.051113230645106 0.3690209236576677 -0.90557852884915
Ni 6.382795121840666 5.135120101639667 5.5435226785902945 0.9266757158390816 0.46372879415521423 0.06508953341048145
Ni 6.178166946542733 2.693096226620209 8.307270293101544 0.002371071335337852 0.5441125347206048 0.4839307230243859
Ni 6.581568056429641 6.485895458242021 12.858652496011025 -0.334212814839547 -0.5873415206125691 1.5381326414426155
P 3.8579468782461386 8.256546148590141 12.895802287062084 0.5404266012285854 0.5446390966480362 0.8516756081831074
P 7.250998744183315 6.35100292228823 1.5835604872210962 0.7625413751185964 -1.089594953205543 -0.8330371671463137
P 4.988628084091824 1.1766258829411034 6.638824540575589 -0.08965488145467139 -0.4165673059780632 0.5560393680651778
P 2.0205205438569833 4.459815673206389 7.494187333293946 0.18109565116517198 0.7957867674352875 -0.09401521530589614
P 4.693942051696851 6.452826760715119 5.090870021855277 -0.2189543738841584 -0.6995046104720856 -1.8589775196156886
P 8.09859339922808 8.30915081511755 5.990313619626626 0.6760191257556357 0.47161436755087804 -0.576624134195065
P 1.9088454710619398 7.77884915659524 9.036739860586088 2.713667232034772 1.5887592053502315 -0.4607833383736451
P 4.5086000957957255 4.230527037039443 9.392011446844473 0.5420245418433246 -0.4986682863448767 0.6994357049073632
Ni 4.884130999906815 3.0744731214549352 11.472683720253258 -1.1522558225698738 1.6716006634274954 -0.7460161237700635
Ni 0.5499273523804438 1.8065128834423285 3.116527254723832 1.3571087240556432 -0.5020084064617031 -0.26546768695434925
Ni 4.001386400637652 7.9891105729544 1.7668683713498679 1.7885622031169197 -0.2408216062708949 -1.3329228708380592
Ni 5.615980588614763 6.279102786378689 8.470893283466122 -0.22215205488584966 -2.0851482087426283 0.6835601713276873
Ni 7.410653490844663 3.770636266789797 0.037431915603387995 0.4472611355174942 -0.2635763834689073 -0.28137201688943153
Ni 1.8701897824004234 7.236467017242123 4.413021847458393 0.8959692878941603 0.010503984855117394 0.5046728406677438
Ni 8.050983724774664 7.79889387478847 11.612453773467449 -0.03510918499830728 -2.4468214337859733 -0.7646571359100187
Ni 4.389025535535515 1.1664046491600608 12.529808117818195 -1.2391264564111883 -1.095105855721443 1.0504373091694748
Ni 2.7949570649883873 0.5903423882502445 7.633821411723903 -1.3360866132780216 -3.3112168035285947 -1.050177884860501
Ni 8.433368868009511 6.7758362481667 4.2456211630882255 1.4401988078086037 -0.9776192967664842 0.4517091439865189
Ni 4.462784918494819 4.419439487274942 7.227428856583791 -0.2460707704849762 -1.0365438390168342 -0.45844569137940405
Ni 3.467541997736935 1.4596846837860573 4.112431549432253 0.6415771420276822 -1.5582348115091291 -2.378583070333865
Ni 3.3599646684396305 0.4913638453084666 10.54229244658939 -1.013329348573584 0.13854440806652268 -0.812545217840549
Ni 4.331934626126833 8.439584858146036 4.164553366725843 -0.07678265347769357 -0.04289628514289386 -0.48267448201978164
Ni 6.136949011946964 8.945318555652555 13.336811987272036 -0.1646213076592326 0.21366510046076104 0.5327269185914826
Ni 0.839243768295873 5.611438845821558 11.097212941046761 -0.4804353082766178 0.38735905984522323 0.3427835872276935
Ni 7.984106330895084 0.7570909486551954 11.533593023602947 -2.872639311828027 1.4724224437289997 -2.749054096174498
Ni 3.1589994873292917 2.318166571555063 6.046957754744246 0.009715684625867138 1.605757282570125 2.0837186753849535
Ni 5.753222620840397 2.4065501813087815 1.129211383177986 -0.881520973679314 -0.8121186718260917 -0.5744973176600493
Ni 2.344834279238995 -0.3660894440927095 2.801816854103339 -2.006297616992313 1.4830562692937619 0.9251433383549551
Ni 5.786023068792954 8.298300582334598 6.04481915813775 -0.5012064793856981 -0.2723212195410729 -0.6673349677180765
Ni 2.482298311112361 7.554879261988565 11.174435518510702 -0.14098001409120883 0.11895517308068546 0.8795260547364724
Ni 6.0871933408987955 1.4423594612775574 4.039648964922974 -1.5177247672102248 -0.8164136996570198 0.435381867581405
Ni 1.7088330384397887 4.583349227184506 1.5355669383768087 0.36985216130971144 -0.4174471374798553 -0.5752341958260738
P 1.1539634189016883 5.573856155457419 3.5082854080856745 0.10585463114298545 -2.7625693570521133 0.7736449412309256
P 6.413643822890237 1.8670170374349053 12.572738224697105 0.5930516836234689 -0.3400954988725691 0.30027425311057315
P 0.290859313467174 9.021177685280001 12.500308064628602 2.1224322899050674 -0.7384933330304572 -0.36742066905008336
P 5.3578319982425215 4.663833349473057 13.248244302810406 0.02641397121715451 -0.22818386290222634 -0.6812695755212976
P 2.690006731522591 2.493879292735768 11.639759730138614 -0.10617010550087523 -0.6015270680843317 -0.007065648597529767
P 4.03871009141277 2.877392934179925 2.3697694646720775 -0.6420913626599393 1.4045504624773746 0.9286822047461489
P 7.3365333584577925 4.802139130010745 7.641849473985049 -0.3020316021213121 1.0850477001544927 -0.14702107807896614
P 0.05839053234645185 2.971261785229714 0.9747218283205602 -0.37592613541793324 0.7620335822442424 1.109394247319657
