# total energy = -340891.5470888206 ev
CRYSTAL
PRIMVEC
9.04395148647417 0.00000000000000 0.00000000000000
0.00000000000000 9.04395148647417 0.00000000000000
0.00000000000000 0.00000000000000 13.23673717708391
PRIMCOORD
 96 1
Ni 6.303905328978068 1.9031819659328262 11.506192281146102 -0.7811723599562224 0.8692143883978192 -0.9131239452965757
Ni 4.9324172561210355 0.44537932688892423 6.013065423203652 -1.339318747062074 -1.1667295907060165 -1.3199917645986878
Ni 2.6045313402164587 1.7283443006676236 4.798171557181606 0.3594227384462713 -0.984087163879015 -0.02050686170410017
Ni 3.4127892620430225 4.464501307150881 4.957515125191875 -0.20101578712786672 0.343848281046782 -0.7207023275956232
Ni 4.883480435991199 4.685969584981124 2.569939131139649 0.7596242014718014 -0.2735448075355289 -0.10238826986093981
Ni 6.9826176933217665 5.9793088752209105 2.8470765463986862 1.9018259822397827 -0.6574043388679259 -1.1783268086253127
Ni 5.223949024164891 4.516901960603529 12.132594431549498 -0.7168099345197526 -0.7275967407226114 -2.4691728048979797
Ni 5.611636081733866 7.62902506385586 12.554158321652636 -0.7385876925164764 0.5829945564977831 -0.4340986299936072
Ni 1.6813790619069058 6.474673216187749 0.42562100662692925 1.6930809447884585 1.1327619755113203 -0.7512501184754933
Ni 2.779043423237219 1.886694842832347 0.4456280355478728 -0.011074255536290604 -1.00533218930072 -1.2446604988555403
Ni 0.6006015663216365 -0.08402011575867904 4.684348908919904 0.6572901818875648 0.5168346728412582 -0.22653527155520986
Ni 8.582890600557747 2.218372710406112 1.274614693603893 0.049589380892353305 0.6758255216875908 0.14984774889448388
Ni 7.299798107066641 0.5148034097502563 5.009045750535765 -0.6523847741661475 -0.11449970841249313 -1.0722389784255986
Ni 0.7132485009228536 7.473559542134939 2.5442199426190006 1.3246740005657056 -1.1320826900561083 0.04030795559042735
Ni 7.827413178135679 3.686658193325914 4.0303880303147634 -1.2199408846216733 0.5706303785054754 -1.2093487109281236
Ni 7.6353558297200035 3.8941264346451643 12.681985528400949 -0.3162922258053843 -0.5924945255684184 -0.36401729979548925
Ni 7.9087182997337635 8.630063850196859 7.394464762218564 -0.07665924052595184 0.8832595536369757 -1.6133764896782796
Ni 6.853569553156798 0.5444983192335879 0.14230566827961064 -0.39454657873259796 -0.805309105103426 1.4290589891417
Ni 1.7645834132642337 6.401408167237128 9.350775419678415 1.0587897948992282 0.37279941686349344 -1.208430055768596
Ni 0.04028989835453911 5.05575866305704 1.2193588647465161 -0.5055932955994841 -1.647660093451498 1.7398683374556425
Ni 6.573595954790624 1.7998186472738151 6.880098175312934 0.6090938246879961 0.9071124489951734 1.3626350531905114
Ni 3.214853345324927 4.415003762044505 0.388413286853105 -0.3708847163392838 -0.8567882468193245 0.23988726738208363
Ni 5.900590323675891 5.403127786022649 4.742087302391148 -0.5506444223018517 0.7856939019756597 1.2842279767355174
Ni 5.223035585090207 2.786079617297654 8.854582652778497 -0.5688007814959042 -0.3603462787018052 -0.3640054727209473
P 0.11120532877443902 5.5782910335322935 12.280805799985233 -0.09717304420858748 -0.4484217314844987 0.30342796824820645
P 3.8755320709070484 6.143031524418922 12.670243766513206 -0.06573616585554486 0.8282716274368704 0.27195946532628
P 2.4355270234975035 8.514509285273752 1.1686792752137924 -2.233615018129185 -0.6144466043594773 1.7071752180979956
P 6.327772316285893 7.690225481859668 5.781131485004854 -0.624979128459685 0.21444723004242422 1.1665915224662553
P 4.5987678071781515 1.0560621856516492 12.66836443344668 1.012282138255992 0.4371335601651891 -0.12441388220241154
P 3.89313160000937 6.211883125167111 8.26378744278042 0.4594926445866796 -0.6359541394139498 0.4284368037221396
P 4.877638043493717 0.9168848201040494 3.7054388624594603 -0.7524271695027299 0.9617956994706662 0.06379035498308369
P 0.1667722695542823 5.571535201960128 3.5523030625765455 0.17604497611514197 0.3561103862435867 -0.17309334968598578
Ni 1.4539508202131315 1.145018489994114 2.3725395207297595 -0.09776619770789614 -0.17263517910264461 0.9390080121521893
Ni 1.8428407232962944 6.604065026499628 4.896176334734179 0.39842534496171383 0.46812538056101316 -1.3868628153896245
Ni 6.1512615200423095 5.766197208331337 9.073716686795118 -1.0169476620524616 -1.146674214717038 0.4145312493846409
Ni 8.55129103494443 2.5762870805111393 10.194564312719928 0.3154183078408632 -0.9389599325230733 1.13585681238656
Ni 2.2702307267846904 5.4146588238466276 6.9629208719281666 -0.22579942183044985 -0.9184978080139794 0.6769460084452793
Ni 0.6148919136672576 -0.0295764337221597 9.127325612132694 0.2308120445536928 0.3750547885565734 0.22387083734916927
Ni 1.5303993399982938 0.9717996919998858 11.238108765467917 -0.9044313026185842 2.0040569005872517 0.2232661138856348
Ni 4.237145417066983 6.887439150529971 1.5684345813100742 0.5269337089484731 0.27685176042157483 -0.53032627956979
Ni 5.575089474795283 7.776803227027461 8.070967689275676 -0.1124983617117482 0.37898677662112795 -0.49287044871617697
Ni 5.176739598720841 2.9536097699653867 4.472018639416991 0.8331202137784234 -0.8152708443018282 0.43157380668922446
Ni 0.9793966110368592 7.451248114439447 6.964602142462658 -0.8496737472617303 0.7545809826209392 0.19415891210703334
Ni 4.864705193228394 4.621902234435982 6.940020683007308 1.1090224658025352 1.0628896760002147 0.8776131539844756
Ni 8.283192144549146 7.178726731890495 9.183555474538023 -0.8153608329124732 0.06056310629503764 0.9157349005568617
Ni 4.561723782921672 0.14468422745428208 10.618073556733602 0.558165156158929 -0.23022403326070673 -0.5680191661348734
Ni 8.092030147305685 7.076629566404313 4.847783056073535 1.0375699662885036 0.3040576314124054 -1.092756124542344
Ni 7.3554364950612365 6.200460614757946 6.9899894179730016 -0.7369732968415049 -1.0185805696701942 0.14037246241419696
Ni 2.5894098537523877 5.375634174269793 2.4719470151188037 -2.0201936582481146 -0.35707506414970114 1.198946284647877
Ni 2.24200455498184 5.134187808162556 11.396049616641717 -0.3840006848959516 0.08249873002586437 0.4853129480838932
Ni 1.2703224343480028 3.5724421331855125 3.84115510786962 -0.4347331782538125 0.13492403770511602 -0.3658070447060603
Ni 3.598235482106284 2.67520077516278 2.66921458384067 -0.42847974114493304 -0.28229375737275253 -0.03235964727762814
Ni 1.0507624302282368 3.4201239064941955 8.376008407278492 -0.3905667681492435 0.20677788642262454 -0.8254007336469785
Ni 3.8960075765019386 2.613683818865764 6.736360849552903 -0.7165654226091143 -1.138716650432858 0.5199637053885433
Ni 4.130327309036396 6.978774014047107 6.140628546575917 0.3270296668275465 0.33639028210684 -0.9926489374060969
Ni 0.888522989032682 7.434679595777857 11.381687822081345 -0.5207607473685418 -0.020158734336062058 0.24166981320380315
P 0.1568790912988713 5.6194138797955295 7.9882779387435905 0.5462190395406463 -0.7093601631099268 -0.3266031208130891
P 8.615901022563644 1.6768751741921288 8.06964455921007 -0.8260579076150031 -0.3499122278526748 0.09955465706688661
P 1.757936109106882 3.26305760540477 10.502358009478522 -0.5201516530296332 -1.1296949065502222 -0.9040803470370689
P 3.879556629206397 6.46744709915139 3.9064786632412334 0.21490977150113957 -1.5156583715994993 -0.36627369992983366
P 6.443643419502207 3.693142706361045 10.22068053069977 0.4767061802514886 1.8200921554044012 2.1167794624946645
P 6.370188447575661 7.691582074544841 10.325210519068031 -0.4952163232405342 -0.08766947559352643 0.10604900654197863
P 2.4981021220889548 8.798751628622606 5.817889720402324 -0.07279307270232624 -0.7120875893434189 -0.16430017687438803
P 6.802887250438704 3.7167293311806007 1.6840705417942907 0.3685735517076039 1.3250434680899825 0.08202076194818132
Ni 5.0660325916594235 3.010025937766149 0.605198606734129 0.5053238439881813 -1.6988890668298033 0.31391112716771746
Ni 1.5976772932316812 1.1674474890556545 7.320617282808442 0.08502715287467291 0.8525947775632671 -1.529726162546475
Ni 6.798898867944294 0.5561695383017 9.322303252401987 -0.8285161393475086 1.1673955064247894 -0.9222696163515858
Ni 2.9972468346718113 1.5098243509398241 9.32657832815053 -0.25806882338711684 0.24183513513707383 -0.838750415481007
Ni 6.522371014998461 1.67347464852796 2.4428263965388624 -0.5590457589916695 0.5894711653610623 0.6904939223330431
Ni 4.026285694034798 6.550027417873538 10.550777515597746 0.9023857329434651 0.8812561500537016 -0.6022840008550144
Ni 8.284910495283698 7.1191994448650675 0.3394737535378976 -0.4135087216573975 1.3267933609015536 -0.4298370265037758
Ni 7.567137305558229 3.884639329800182 8.444084941405885 0.11263977238561892 -0.049551842786198536 -2.4957927214783533
Ni 3.034137111757305 8.514798691713255 12.395754420175628 0.7494590880133415 -0.8073297350778805 -0.0712187862366709
Ni -0.13184091230617978 5.086969338767273 10.18177707006948 0.6685572701609519 -1.3214948315067758 0.027401017720772164
Ni 8.809378271323133 2.3279944433193918 5.854410099882327 0.5194266019381506 0.40557069775724347 0.40874523883048314
Ni 3.643129656034303 2.766626078192261 11.344307362838942 0.8678429619715893 -0.22294858264521603 0.6912071463499838
Ni 0.9482040232290958 3.2863909995897598 12.696095901117003 0.274474775548966 0.22555336725791475 -0.8385172164242783
Ni 3.090092038045108 8.357433940233092 7.986556874823667 0.02133141448792455 -0.21427882278536 0.4453274088298911
Ni 5.676906277793196 7.881016677102514 3.600974894935212 -0.4859107295688922 0.3724880562706617 0.3575502040139068
Ni 3.086682468429704 8.471206846763003 3.364818335905029 -0.4710934620504016 -0.06197721303374488 1.392238220768925
Ni 3.2620989465739143 4.169786068272485 8.996520232242863 0.3739708114637753 0.5195487293383118 0.494694132188477
Ni 6.999041508763605 5.881869344620491 11.312167873336925 0.5570487831662988 0.22158486952847004 0.6388731128329577
Ni 0.6462147343727977 9.1072588931336 0.013924067320624125 -0.4899581601653885 0.37707490431039575 0.838270390520795
Ni 4.306413039571958 0.3135320838168803 1.5688442723009965 2.142094287110369 1.0200167878960884 -0.8168929532862834
Ni 6.382578660766916 5.617505606085051 0.439818201274835 -0.012913879848190661 0.2842477957753298 2.070177703475725
Ni 8.067891841460826 8.955546611174997 11.097667055537736 0.6186151339148701 -0.04321510193489332 1.586948377393738
Ni 0.05691358511865915 5.032271521701064 5.713081178336042 0.30501588156061665 -1.0240534198593072 0.7016321983380497
Ni 8.058549439835595 8.905388857628502 2.4680156095171695 -0.48943751177522804 0.4529098491628394 -0.07803349516565916
P 8.693064014496331 1.757067889788371 3.5915637592805996 0.058710883577647276 -1.5131690295187423 0.3079950187935986
P 1.6369370855406113 3.277148081428109 1.6200574549565554 0.12589509473362834 0.7503967693362625 0.24552209707035783
P 4.820624974911478 0.7650296437159385 8.208564172147486 -0.048212040928852444 1.1592515371614165 -0.022965350546921736
P 8.291494491782409 1.8002075371768984 12.338319903465862 1.3864126152260832 -1.0549832766689442 -0.08900156414138866
P 6.492354140851182 7.646308054664974 1.4820775085524023 -0.5291960226200886 0.3679050648856696 -0.5893644645798689
P 1.8557283538054459 3.347166351885547 6.125537809546043 -0.08566118691424601 -0.13119928055536115 0.29639805798461855
P 6.69299419898839 3.7326285974508377 5.949873527138008 0.49865774482191544 0.674290058879671 0.5286357792412444
P 2.4454301500992726 8.400428884401867 10.188223598509426 0.6811420488044979 -0.21055432274592126 -0.3638206104036509
