# total energy = -340892.50850089075 ev
CRYSTAL
PRIMVEC
9.06350888849844 0.00000000000000 0.00000000000000

0.00000000000000 9.06350888849844 0.00000000000000

0.00000000000000 0.00000000000000 13.26536141183918

PRIMCOORD
 96 1
Ni 6.524312640934892 1.9079502360658185 11.29162144532375 -1.0040967742317224 0.9673369410038694 0.8749291793944094
Ni 4.586733793637729 0.14872221438789035 5.714770884786149 -0.24377580380321243 -0.615021760136657 1.5329397843877666
Ni 2.871319681275629 1.7088974493228406 4.592826284451344 -0.40851872464197386 0.0722089180640821 0.5438361411307667
Ni 3.2540172893001937 4.32930294481427 4.896497343975346 0.5354656576788842 -0.24461526898537225 0.5247688400866704
Ni 5.330367524349917 4.48786903643017 2.4203448465370943 0.3675147714257864 0.9484434465334762 0.8562567997958866
Ni 7.284840752600041 6.0097500390881065 2.500720045190984 0.49955763092836547 0.8157794085071306 0.005138606778145989
Ni 5.0442053516955125 4.6089756449567005 11.506255310551834 1.3768134015734224 0.7104487681884152 0.029084318960466038
Ni 5.668563302718347 7.9362623417803535 12.56716624064134 -0.2558543322343013 0.15014805374372206 -0.48577163288786657
Ni 1.9229956611634118 6.339543944525532 0.5864480115314479 -0.883492495583388 0.5646178537628082 -1.1693906824779472
Ni 2.7439411244554024 1.454466622009806 0.5122432498693903 0.3445388793559034 0.46600370623232007 -0.38758711669562923
Ni 0.6404583685790791 9.362332989795727 4.869276907110525 -0.3035904619679997 -0.7042506097975032 0.618097056627871
Ni 8.594109958908977 2.3676332903427673 1.2991062935607847 0.798576928585915 -1.4583073444838561 -0.2554473266038697
Ni 6.848559678806216 0.3922514529615366 4.712864305255582 0.3538701840591583 1.2676623590673524 -0.32373351257477795
Ni 0.6987512336740674 7.282937415690104 2.481617793422498 0.3671507032181483 0.47824421416256996 -0.1792585979564332
Ni 7.747251923114566 3.926955649071884 3.8166962482301723 -0.43179852110552086 -0.5062491840159281 0.025386815504220797
Ni 7.771487746434423 3.7269058763284635 12.51604079853863 0.7520296769539951 -0.10697563212130609 0.3556833260084971
Ni 7.892920641288372 8.754778784634903 6.938632832191687 -0.19554216560780516 0.6380819843902301 0.5363262059069667
Ni 6.648002349553479 0.9515506293500139 0.3334727837790596 1.0448333327191361 -0.38643603381032154 0.03286769726229823
Ni 1.7227646182380922 6.296138799469885 9.324408548689787 0.674829990543541 0.8511277060994373 0.05207615186994902
Ni 0.29874957408545144 4.543020489272854 1.8244245616505292 -0.5743736475979915 1.3041308863070316 -0.6908878153373521
Ni 6.218210748271628 1.6131142852075604 6.978350035396605 -0.9405702144329866 0.3229071600187407 0.5209944606459028
Ni 3.5753911947884234 4.556969229769959 0.7139706781462836 0.006365537206711618 -0.0747244853970842 -1.9223086755741667
Ni 5.994858693645128 5.545834326063824 4.571588669940091 0.10241346667192039 0.624197513098654 0.8612007740647233
Ni 5.58376511162613 2.9427038789073423 9.201478362133354 -1.4146479559226928 -0.7105346430340022 -0.1443443025777514
P 0.16327367823980962 5.725527457380019 12.562470436579256 1.045199200698987 -1.160120312919615 0.2698935839361868
P 4.163948284886263 6.271902976150027 12.596813885241787 -0.01155608026871558 0.24888072912994555 0.28499084458894147
P 2.5374109427091027 8.493785976737133 1.4287851689893054 -1.031774442652649 -0.08430724398951286 -0.44613730632569615
P 6.205630597647858 7.538591816730956 5.757869683234387 -0.2811143923526707 0.4885114004165329 0.23917352914451068
P 4.667290262473517 1.216531381249554 12.520034180645856 0.4778199821409577 -0.8704775713809589 0.910736933121638
P 4.16860692856106 6.149155872477314 8.064385012697274 -1.3938053081457284 0.22873536453032223 -0.17265574792793492
P 4.836324707094067 1.1243011126994884 3.8753960648835237 0.015346400549083247 0.034773656035759465 -1.719897293650354
P 0.0031812916923224296 5.771379749891298 3.805752967348947 0.31518896543887653 -0.857618970250736 -0.19572162860846293
Ni 1.1782471188325456 1.0194091219437975 2.683754892310482 1.3786196015442256 0.9762872082186219 -0.77955205074398
Ni 1.9644612152727425 6.42656269534601 4.601196435100517 -0.5636295217076099 0.7980907329781158 0.6351522123379448
Ni 5.877005884883679 5.526519988182516 9.1885846140949 0.9095789082577947 0.6477717008741684 0.5610257655361757
Ni 8.591409033198685 2.3975519338651496 10.220496846835161 1.065897609588603 -0.3328876682702202 -0.14903399474393686
Ni 2.327083150652025 5.176596029045238 7.092922760216596 0.3079399971859471 0.4058915714317719 -0.4677014056497171
Ni 0.5060039302084365 9.107104573682337 9.100661325066747 0.05831879034555117 -0.5637321087237452 0.5045237166843892
Ni 1.7987621419991282 1.2050841692626502 11.371718394248427 -0.25474618677178706 -0.4929668650847252 0.12134887012384263
Ni 4.067485357588862 6.874735093072391 1.5487307420007752 1.131476166820361 1.0243141297198615 -0.5786234240132808
Ni 5.57315174247596 7.907676034094926 7.9523192544929415 -0.23455814185968635 0.2865520184284742 0.06796994028207003
Ni 5.231774672415208 3.013462694411505 4.965782432900673 0.14655339441392826 -0.4024267528116231 -0.592160025047135
Ni 0.8317555105895204 7.5003528718594215 7.129123321892679 0.4243554345639143 -0.4900198666412593 -0.6783405747999608
Ni 4.8894187433722 4.309036938477993 7.0525167303204634 0.7603963037511355 0.6288442678420461 0.17299847597933432
Ni 8.149399821656862 6.996911195672124 9.60916315838175 0.9563393043417853 0.4894472819672409 -1.5989937385940463
Ni 4.7327106711207625 0.49255277636064243 10.446113872384485 -1.0742940611824143 -0.8397438897425279 -0.20588931317008413
Ni 8.167880316701435 7.467343571735666 4.964323207936387 1.1104954508036358 -1.4016512865527087 -0.9292231648512834
Ni 7.218595564625155 6.131445775705809 7.1555216984825885 -0.1282340272794501 -0.6214037524036008 -0.4354587435659275
Ni 2.5156313303539726 5.007770045133871 2.7177412387146718 -1.7205809499809401 -0.07188830149986973 -0.23605529523050314
Ni 2.575133267562225 5.250354866059825 11.552339628895943 -0.9618352944593499 0.5627000679148051 -0.05884046717697608
Ni 1.0628414575267293 3.459885834882563 4.074058214384509 -0.09315235308496861 -0.5286620044934894 -0.6521001530461931
Ni 3.9534301591381915 2.7570469586066797 2.4733400905660927 -1.4740144708064677 -1.3279089625632359 1.0574420226220822
Ni 0.9276320288484786 3.673503680741102 8.315471405154279 0.616401414093003 -1.2872045428653378 -0.16319897339040926
Ni 3.5017592469011656 2.4449178323952836 6.93300892479828 1.281142138721342 -0.15556074011886115 0.535361270890536
Ni 4.085857090524297 6.66414445925156 5.792771444057165 0.03178680549329364 0.5552610951382566 0.4064101629394033
Ni 0.7930334806832267 7.61196092285446 11.539604492266651 -0.18234160775713112 -0.6737143888818591 0.15452175733138548
P 0.04411209876505203 5.615985886458626 8.084137118067868 0.45598591698500174 0.5862182056414033 -0.08221050936148422
P 8.376531359575951 1.571839064789223 8.078870312932802 0.8052594828124131 0.6664983307493941 -0.8962577656688565
P 1.98175439062588 3.4998831005185145 10.364956492895702 -1.5719447048960542 -0.4496486619130643 -0.11536719861911099
P 4.089364668544037 5.997387412682615 3.48390866573869 1.0698792199441702 0.7413068912198524 2.440058661140843
P 6.977868763063663 4.034503247992391 10.468546057394452 0.1053380965178831 0.048613904352961444 0.22069835315845862
P 6.372553244649287 7.8986940965818455 10.247597645379928 -2.1561034569052677 -1.4907649507919294 0.4215416192642031
P 2.554232815589303 8.478423328821217 5.66864759335293 -1.6963981820871494 -0.4658561249108622 1.164153602448724
P 7.085878600948012 3.8164896002228077 1.379623789307465 0.1856876414112286 1.606876997996865 0.024457618821732068
Ni 5.246312541003483 2.9841150519621036 0.4448941264867421 0.38240557249468976 -0.36938602030657025 -1.0842231473706683
Ni 1.5196241888932986 1.0147776687962853 7.030548596976158 -0.731352865330934 0.09348942470941318 -0.15836787055035306
Ni 6.8039128330045635 0.6481859164334213 9.184233223378422 -0.03155592042941017 0.32988410555720604 -0.43023554749377513
Ni 2.4225490919489827 1.7216135525830356 9.172015613118447 1.2761979073421892 -0.19234885548148808 -0.6111041702498057
Ni 6.337341511815463 2.191012688609755 2.695468571464777 1.1761907361189163 -1.0467382630513329 0.040045960178292324
Ni 4.116102020374097 7.003881034166129 10.368697909450093 0.20253813730966405 0.21634521839608548 -0.11499258888851163
Ni 8.097266517342792 7.311306199157253 0.24703047213701987 0.6112486662474698 0.5660718126005154 0.2470806998067293
Ni 7.584725078024178 3.7236430130542866 8.256400890978943 -0.08954278135683934 0.3120856439232044 -1.0647069317146114
Ni 3.0740703797293403 8.430568000799957 12.426632906720727 1.007351019502962 -0.5826433438059513 0.4590969518101577
Ni 0.04380031405218625 4.89081452377282 10.41537860669265 0.7109539899596078 -0.7948102624546312 0.45470627894162985
Ni 8.076647034151813 2.345844614478542 5.919999546626416 2.1260518889355255 -0.08642583299441245 -0.6548545758628787
Ni 3.8038006874898977 2.784862868019037 11.291993049196645 -0.33036310207615366 -0.9102975315913743 0.13299622455478388
Ni 1.45954218710297 3.276241013600976 12.550624430192176 -0.9535468291983126 0.8401722355291982 0.8060045885085538
Ni 3.0609282915416838 8.138695817415742 8.091260129865578 0.0938367807465029 0.4710178716174598 0.012519472623249405
Ni 5.363404015000958 7.901123117019289 3.615792692930009 0.49413543147152966 -0.8085792912142655 -0.4625908238960292
Ni 3.004498883916614 8.564218505913878 3.485234657119279 0.3344161890996047 -0.289318782540334 0.5808289163050319
Ni 3.607249429257122 4.4210891014186835 9.312920550911956 -0.10999693544613313 -0.1734093382645078 -0.41393372500995806
Ni 7.287142883910154 6.069097896641746 11.590039294976329 -0.9863741601409787 -0.02899175924665975 -0.5592524756858369
Ni 0.7086068934639006 9.120699837324741 13.616363491576555 -0.06619819309362793 -0.851552966562314 0.11761125745828131
Ni 4.69149889526609 0.3601394402381794 1.6633705367880691 -0.22333630500193796 -0.3128880852198418 0.07156768493565739
Ni 6.132914064179189 5.643819922889173 0.39861856810072893 -0.49612803642152625 0.052981694403353916 -0.27538443184742895
Ni 7.864751255021312 8.986732109392497 11.241598125926982 1.218853050874133 -0.1410571471860474 1.2702938831529282
Ni -0.020671145192819845 4.904908280415445 5.811992427794795 0.08846754601478958 -0.0679740540471281 1.0506483967390163
Ni 8.143970779708996 9.031841194157991 2.2576050089829764 -1.0250054993599316 0.09393371133568339 0.39542923844786737
P 8.424332306542642 1.7097494191777647 3.7136640895407624 -0.2592070507566181 0.2086285664781181 -0.32964473585289034
P 2.0314314839752226 3.2063341679517365 1.6295563970566833 -1.282791758509623 -0.8800916974319554 -0.26940867387996825
P 4.595906064841803 1.0388866029888144 8.283820725043853 -0.5343631686433249 -0.2899934400098554 -0.20034061543771306
P 8.94815781468445 1.520267698039039 12.326213757703387 -1.4350200918211413 1.4758024159448262 0.4634002071712019
P 6.448949562810501 7.8944795648527 1.4605826779470685 -1.185367774632494 0.09951197675440926 0.5856705606680495
P 1.6947311846074564 3.0589705735771777 6.099545849095273 -0.8760607218956912 0.7816030197357378 -0.005734845601248187
P 6.807656062260771 4.056600083165844 6.021890609520773 0.21256621096962747 0.551538909091663 0.36512210282389373
P 2.339926143039549 8.426815708034654 10.299239707501053 0.2883751876801421 -0.09779396562203803 -1.2681441837997773
