# total energy = -340852.563922061 ev
CRYSTAL
PRIMVEC
9.35679045434944 0.00000000000000 0.00000000000000

0.00000000000000 9.35679045434944 0.00000000000000

0.00000000000000 0.00000000000000 13.69460862881020

PRIMCOORD
 96 1
Ni 7.468159538481576 7.846155149648817 1.849101046417269 -0.5969523042294558 -0.33765963573756685 -0.2351520666899434
Ni 2.476115465370085 7.413927582386588 1.3997121902189078 1.252791612603107 0.5197040239692533 -0.7955821076236492
Ni 2.441495341568937 1.51068185082887 13.808136260432738 -1.9094678150557565 2.272245071796558 -2.491307946234122
Ni 3.8955311844269542 0.5394610615387331 1.359960802663016 3.165573579633761 -1.4471649547137915 -0.4377704224182396
Ni 0.9386825513121655 3.1570184462169424 11.675242831069195 -0.15779759986917982 0.10425463364571723 -0.009209177303093818
Ni 3.629854483018898 7.148700006908925 10.350426132459452 -0.6783241197397286 1.251240208955587 -0.49532919466931463
Ni 0.6776159404437918 9.027955181156994 8.825421842846145 -0.6996645330887176 -1.5928955961161084 1.969839888385911
Ni 6.657150389673916 2.5644622785945295 4.284207571626361 -0.2785070366368107 1.2774695749657612 -1.8631648182241591
Ni 8.021697890901073 1.6648536832265788 2.5774485677360466 -0.12738247791243223 1.2011281227905444 -2.077473722916506
Ni 0.609455466432482 4.6785635304871995 1.7831338040327132 -0.13887248082990275 0.44698911280303016 5.116903325030627
Ni 9.025045219399654 9.107225907871406 3.2961960222926674 1.402999573050487 0.4228353983749621 -0.0011526255472044666
Ni 5.78061563897992 4.758910288076514 2.4646599471079913 0.27409682338425695 -0.9924396496087682 -0.02405935494204889
Ni 4.384601252254583 3.2332014321599023 0.7859853490525812 1.7854527109536606 -1.419051484307027 1.237263435060521
Ni 5.378348513991008 7.97892800282133 11.885358912171517 0.05234637481220017 0.2691587626526913 -0.41803257766968005
Ni 0.9847740999187755 4.874476004040834 4.421728995833761 -0.04468500161220046 1.1857758087041903 -0.3881890119456863
Ni 3.7603162090079283 5.777312692033487 5.336199916781642 0.5874813886245431 -1.4033086196504736 -2.207531433668256
Ni 7.897486500776682 7.413805944113772 12.77531691411014 -4.848984091211991 0.12922081667275165 1.2483716291585405
Ni 6.403515877274528 3.9965096644437095 10.72463130790998 -0.28186412603450167 -0.7922980375557387 0.5998702492071991
Ni 8.000598328962806 5.667566899583845 0.8703021927307674 -0.5907734291122535 0.28824406141891645 1.1092430664537736
Ni 0.6886111046272322 5.132723414016969 9.510357600276327 -1.5872209143288343 -3.719331350753614 -2.961577883941964
Ni 3.277795894331868 9.589306453407291 11.989067703573454 -1.3968559220465941 -3.028621969975655 -1.4173414435944558
Ni 4.2510050015430165 7.048385858997543 2.9603630435201165 2.374428424735543 -0.5116718976933962 0.4944905008181032
Ni 0.3539804733975046 7.120386359713716 1.0089464317641506 -0.4726173548940958 0.2520925511990239 -0.2095971010389745
Ni 6.14339710925509 5.98303108173404 4.518563353463617 0.6009092319946747 2.076662282758804 -0.25843494847728393
P 8.312226227124224 2.703550965163197 5.654749968345247 1.6516666435077296 -0.22475195440254195 1.2497764799258668
P 2.3631228667153095 6.194082841858014 3.3194364178324762 -1.2314738249619372 -0.3513787850958723 0.32740530499941034
P 2.228787429576637 4.834485082655399 6.717506364965621 -0.6719213015371782 0.029054494163795123 0.04756746536631808
P 0.42939152414760073 7.595159252090491 12.607434577008155 4.589420171336586 -0.7152927265442779 -0.5343896510058861
P 3.739431853244641 0.4605009802595084 5.5296908530272395 0.004005264504651167 -0.24909413069233233 -0.4072557987691502
P 1.897051789239903 0.2560261079787309 1.7028974565679542 -3.5967874318804056 -1.0667404172048724 0.22761899153769186
P 6.7971841120544525 5.544908736635398 12.783574281476227 1.49537725275296 -1.0145272255364268 -2.231122847834951
P 7.163923504591213 8.773282065043572 9.366975082677294 0.2813059395381865 -0.2990540075502269 -0.5891942575505917
Ni 3.2500717249203 2.426880035250722 11.199121625222215 -0.39893596604954523 0.8245684675536702 -0.0542073392803389
Ni 6.832122366722963 6.116374699109761 10.105991216200955 -1.2469467237865557 2.334318444088535 -0.2900967983569391
Ni 0.8168880201007037 4.903491410502283 13.453569116288655 1.3800609619764428 1.0839953476305781 -3.851774273908089
Ni 5.1891448590226235 6.398453853767388 0.0769895412596242 0.8999686388615404 -0.5772769372877155 3.0058376250912877
Ni 8.774395523079338 5.557942745407019 11.23342736087209 -1.5821131607886236 -0.4165007144061859 2.1378383400474923
Ni 8.995954958616473 0.05922099663844019 0.9308293972834348 3.121135403925044 0.5515139693909986 0.6509410997410854
Ni 2.1278557335109647 7.128489340041226 5.568830306502971 -2.0162652697279855 0.5864794297225899 -0.5572061346797693
Ni 6.270883375955265 0.5159923603176412 3.306138547576749 -0.8882464653286057 -3.33267368785079 -1.1827871583895113
Ni 5.382138014028701 4.933489279936468 6.646102827465263 -0.19423321698839452 -0.5248351745482317 1.5793870201067122
Ni 7.000619444942174 9.72432493623177 0.2432531536541504 -4.152825257283687 -2.198182645463504 1.8080038567812993
Ni 5.6100694237032895 0.3719211829586727 7.146435663676525 -0.6275114079632355 -0.349730707969488 -0.13042537850381408
Ni 3.084568819570377 5.039913411859241 1.5203754854931915 0.12361272645735487 0.5535495117637886 -0.6928904475896777
Ni 7.9371780048751885 8.685075603672377 7.044931332049601 -2.3457511114055087 -2.1604483641375243 3.9771875439092925
Ni 7.165944571277983 1.6018824850693547 8.468430354356963 1.074259608400053 -0.4362532144427648 0.8290416728336754
Ni 0.7771328898287254 2.3003294475722 2.8145982871319566 1.9778311341215034 0.03187602277299026 0.8734801056527086
Ni 4.281966620369503 5.2188339543796625 11.171513480009333 -0.8675719676983896 -0.0977865094228703 -0.97446429607727
Ni 2.1186112247770366 1.5947151837634954 7.831371421106706 0.41863498714036934 0.9357319125040787 0.22795503472087195
Ni 5.04444209832404 8.44033004197869 9.122827419878444 0.9016912779796019 -0.030747822705818013 -0.26100450897667304
Ni 9.258646843945458 1.045546452375116 7.097792518377868 0.7595010456303759 1.4449548344363503 -1.6795700547862171
Ni 6.360876984257818 6.814625169018058 7.109624179606666 0.8516383271872687 1.4127008594986508 1.06509156874754
Ni 5.065092534331915 8.045772912128196 5.436307279629239 -0.09120937042598486 0.20770322645037131 -0.6648499965126937
Ni 7.1436941241430825 3.692058424378367 14.099284016168223 -0.7220727255805887 -2.450170038543232 0.270995558751114
Ni 9.161747924463107 6.335370374127566 6.652471058886631 3.1092047139257293 2.592885804378625 2.342274722821134
Ni 3.0763722713407 3.855259559335024 3.621553138738795 -0.3248105476890406 0.6750163955227343 -0.8381986567425952
P 1.6972562477464104 6.848917805161628 9.10544905340929 1.1811295681814304 2.6251009556585885 -1.089977533355942
P 1.6698408524119877 0.6598296179211964 10.571429774657723 0.7147206560908916 -0.1997024676330819 0.6373204236338572
P 2.7479863619014817 2.8046697970332 1.773547772455882 -3.35864028711788 0.08403007906872624 2.7811370927519716
P 5.95078758264789 2.3179482835499194 2.0785950400580173 0.3788083420617347 0.6896976516839929 -0.2660937505741224
P 5.058982550320522 5.377843247319316 9.023679128028041 -0.6628733324022971 2.38509516042077 -0.046647010434577724
P 8.054306304805667 4.922888036621142 3.371722161562427 -0.6120603635154879 -0.8674074170960674 -0.7577501243775402
P 5.365052515093323 8.37241845858714 1.5948330793202237 0.5481465955806624 -0.4668184888241315 -0.5363642582337538
P 7.322362033327659 7.939816619716249 3.9866232799009276 -0.2572985208799956 -0.1075991246379179 1.8399631832967152
Ni 9.237753131391953 6.603573408894085 3.6582542126840996 -0.2446972871762173 2.633174733805659 -0.6361708834104463
Ni 8.718357706472561 8.559348413532907 10.936815239650153 0.44301958663232094 -0.061346007207649184 -1.7430963574746365
Ni 7.458793391474833 4.771102185728648 8.055497424200233 1.052977301982509 -0.044799929923509944 0.8901254275188735
Ni 4.924656469972066 1.1626841090958124 12.908441582594795 1.7089371950944245 1.0684756547284244 1.4329313276129128
Ni 0.36172041026461543 1.8539356999221486 9.501962688094059 -1.0504069701521717 1.0706186692133561 0.4743626197199766
Ni 3.700301756559127 6.806681254124227 7.443567086755479 -0.0824161976143871 -0.14683775842356647 1.502801056020857
Ni 2.0538060957373734 8.751190683342353 7.252281545963918 1.707752173647388 -0.8732944720044639 -2.3392112534044616
Ni 1.4310836364568782 3.140896696673867 5.470475470462929 -0.7719811803752575 -3.453797072227387 1.3338284133714642
Ni 1.676428032724422 6.066287801080693 11.099753448801726 1.542836474676188 0.8368190027862492 3.993517648527884
Ni 9.38850973536063 2.876660940959156 0.6054535672568736 0.12437377299309546 -1.9948304968929775 -1.1744524132715708
Ni 6.318163236919373 2.751598082925061 6.504815295195711 -0.3134205606845441 -0.48215049119551157 0.24350609508159352
Ni 9.352439309075919 8.372371674636057 5.512463130880571 1.849794824675156 0.45182767184225414 -1.354404437750603
Ni 8.009272073493525 5.052245661364623 5.722442602845731 -2.3038030491084966 -3.9061387075915825 -2.656028241365065
Ni 0.5768423741327786 0.5231896033521933 12.509244420475927 0.3910683903760104 0.6290700106996069 -0.7053970646971206
Ni 2.567999145296376 8.66744741090444 3.4491374367769034 -0.5803283225195296 0.39993921050307896 2.0149653199696393
Ni 6.9426541295507915 0.6051887700937459 11.590623763067015 -1.0011878281150435 -0.6192802783026947 -1.8379476955285832
Ni 8.715850086694532 6.911524088500408 8.864355446937113 -0.6976392751285727 1.2917589950052397 0.031875508552358
Ni 2.3927932484919157 3.680399863768575 9.047178706656847 0.8816883524951137 -0.29350813803133324 -0.4277670313486246
Ni 7.264471572258008 0.5569694873918978 5.340924160161967 0.7826738842024134 0.41952690282701943 -0.10585308848108865
Ni 0.28467659962173536 3.3020206242024557 7.7093523269300475 -0.5725759322676203 1.7856668838469958 -0.78045193685043
Ni 3.7540003756117732 2.8776153335612418 5.47897985709073 0.40215395876621063 -2.133526600046016 2.9841526839186865
Ni 5.602892765607214 3.472173854289992 8.505611431640375 -1.4600253556162275 -1.9066588848520518 1.2906469928879838
Ni 4.154049941319368 1.2856978300724877 3.385608573922774 -0.8428392408384 1.810599128312301 2.2559951855965985
Ni 5.263054144942967 4.055298377374146 12.776658677827191 1.9215085482703744 -0.34967748613404936 -1.6966362662398844
P 4.208525173959986 1.891222508935007 7.879261344792932 0.6134731847026144 0.5548237504905219 -0.27514429081216485
P 3.5821442097048286 7.307166606016018 13.038020027587386 -2.3891785864615236 1.6868046248614432 -2.204475677561068
P 8.24060935480693 3.427476467425644 9.916991539259291 1.609916299043821 0.5795024841841245 -0.9408067559238249
P 5.340210237068446 2.0299182103145808 11.014354024495487 0.6257571442762901 0.7954892907995267 -0.6113725934198438
P 3.13803351886761 4.055541653919776 12.774686266449546 -2.7506404668250113 0.5124501706203175 -0.6086554515989969
P 1.421932695625115 0.7882927335199766 5.044806077463463 -0.698879575293577 -0.4852458422913836 0.048473265010039096
P 5.231446907591541 4.103757193905537 4.759588655367212 0.06155863743908753 -0.194286181713517 -2.0601288038801555
P 8.030586841606773 1.7008960391406394 12.974408824979351 2.7418490937856266 3.054955722774177 -0.06681011564601398
