# total energy = -381176.0747796291 ev
CRYSTAL
PRIMVEC
9.06615253294953 0.00000000000000 0.00000000000000

0.00000000000000 9.06615253294953 0.00000000000000

0.00000000000000 0.00000000000000 13.26923065271325

PRIMCOORD
 96 1
Ni 8.971601432388754 5.279429026227443 4.483526925188736 1.0800502469399014 -0.7266639444956969 0.5441685847695209
Ni 1.7532306708646492 5.810959405329182 9.264616756013208 4.010399254774571 -2.1294912536343777 -0.6768040835507764
Ni 2.889101698471248 5.372121367701417 4.905939814631016 1.090323089620819 -0.15296135482280107 1.4000312344507824
Ni 7.9457028326068135 1.6599852940982343 2.3000483960338203 0.5136860999099476 2.0171672127169646 1.0000819966453742
Ni 8.291957322588626 9.12045858757862 3.896217950460579 1.4064332813223843 -1.1545050236153664 1.0562042935602391
Ni 3.6433693081415144 2.89172181649609 8.172691182005265 0.7211795243423579 -2.161682236544625 0.6283855830380727
Ni 2.116484196474757 2.3719683692776337 12.835525748231738 0.10358923214757643 -1.5996077180289612 0.4585711612136748
Ni 5.442937083590816 6.177730598045305 12.347602655246554 0.037825041267573564 0.5592679023048046 0.1965397536343841
Ni 3.474004516369672 7.8216506702057575 5.782067391067713 -0.06937247705655149 -0.32549908911563297 -0.30499711250753925
Ni 7.16485326429006 6.519696797972619 1.0422122342937035 0.5389165923419621 0.26882940433773056 -0.7604017030677743
Ni 8.120434786561031 5.480026712793675 12.458944978689043 0.7017036750059333 -1.0224521368104584 0.4630199410136478
Ni 6.896495155171353 2.3063203602192366 6.2562298780386945 1.303024026396098 1.1103902926843392 -0.22978180351696556
Ni 7.779891972550327 4.228335589106283 2.4422546218706636 1.1161523919790972 0.8225928318845381 -0.6425330781830482
Ni 6.429506714543129 1.2328516591350718 4.0858610051603215 -1.4434641088234368 0.8613074748459166 0.23466972773688619
Ni 6.241529112027344 4.310048820102462 0.44968659551193557 -0.1761874152302772 -0.09598545165838954 0.027909324815758387
Ni 0.7187047205206363 6.6772121286424975 10.877969388960665 -1.5086541723675244 0.9596272310644377 2.381578148406447
Ni 0.8022085166029959 7.779855707940986 8.663878996446314 -0.7334737683286787 1.466133011175862 -1.2716671093513712
Ni 7.452277491769463 3.2562446034331107 11.823322478167185 -0.03920443811360345 -0.07361839681709903 0.5455240703561507
Ni 1.438326935657584 0.8125620625696702 9.49970752575353 0.1266049763164594 0.5366859032392306 -0.2884788031375419
Ni 6.397167749163858 4.3599217240978 4.417910647663511 -0.6599610438515086 0.26363937549635885 -1.4844544351928692
Ni 4.2160509526922345 2.9151850187393062 0.2223655183227873 0.33206311548639583 -0.6889751716956715 0.5521947975081071
Ni 0.3158366422823463 7.812312533300614 2.4055385181440103 -1.590036015180126 -1.5469242715923164 -1.0958273072685
Ni 7.325197234488487 7.718196805910029 8.646005077117682 0.5763328282068912 0.47057152810866054 0.4281686376624174
Ni 0.07268878296182898 3.010343353648426 0.5965192788853757 -2.362521903105944 -0.16926574840977945 -0.4603858458249104
P 4.3850530983706735 2.459157556284208 4.363148367713859 1.9435153915587688 0.5234375228697566 -1.175222458668376
Ni 1.7014810733359476 6.501156516447358 0.08563796834204006 1.6719289933011914 0.735561761205959 -0.6371831267250445
P 8.39298145805855 0.2742130302967081 10.208974381693334 0.998313591891042 -0.6787156987511923 -1.0124302337980822
Ni 3.0260640617974746 5.913660778981098 11.374928715978234 0.700772935661548 -1.1732295966080633 -0.14644000876451554
P 2.844296773631226 4.29797270519212 6.946482292686113 0.8154320524700408 2.01802956071726 -0.3871873101540493
P 0.8912499185316292 2.0131572583117205 3.095698458037611 0.4114526104593172 -1.3778778382821948 -0.35748052711823597
P 6.062391008038272 6.006289657388726 8.318639915526033 -0.030873549650404893 0.9013488070385187 -0.5500803222682655
Ni 0.6487448494116699 1.9172101681494478 6.012593353107316 -1.759362955845144 -2.4320159933420245 0.8103487244098624
Ni 5.176491932614813 8.1159833057645 7.543145723393617 0.7474672543942934 1.2982019224171062 0.7337218797837428
Ni 3.2543679098997464 2.0010720772490433 2.4311349860316738 -1.3770296313492865 0.3535583092456943 -0.3359560227828988
Ni 8.455193395381945 1.0063973061091582 7.99065100265373 0.5752352242673383 -1.74266775457765 -0.71228607850747
Ni 7.606048501524948 6.4852726175562765 3.4736717885789736 -1.6930184669816388 2.1201051844337875 0.06195921531161587
Ni 5.9426543341487195 8.048095957079337 2.3471543103364887 0.1755955472825492 -0.5993292891020646 1.6816968713212328
Ni 4.1018174332700825 4.907381332852296 9.198734840224565 -0.15980665987940865 -0.14532697820599488 1.4011797462329287
Ni 5.489074732824096 1.5207110619265596 12.100250821088254 -0.1463515628157673 1.4674365604786341 0.8474798249342049
Ni 5.80144901152967 2.890942127395272 2.3841623441683315 1.39573980616428 0.8746669268719581 0.757275755844283
Ni 2.9544323921979174 0.5003373753776243 7.287912683010423 -1.0395584574734418 -0.3637799869737025 1.3542339736110096
Ni 5.083400680438095 3.5626624200545307 6.174929156973762 -2.50339984440165 0.671352830628218 -0.3201997883899066
Ni 6.6618087358251765 5.119674355930797 10.551890714385365 -0.3773021898298534 -0.9636088414200048 -1.15135285113963
Ni 7.350509931808062 7.182858642827551 11.355647729807197 0.18724290171349042 2.9557641054736643 -0.9086350562872868
Ni 8.8755818130078 5.7014856158829526 8.516324647347 -4.237465716242903 1.2638080183182685 -3.1660656887788314
Ni 1.3707387699994773 6.2463432389172775 6.787476486572347 1.3502063405088554 1.0004470932942768 0.23650780938688948
Ni 1.996747522585205 6.0274500569388305 2.3691279437510495 0.7151022078000264 -0.4094600055093206 0.6338363217399987
Ni 6.245255300637066 0.3441982866322128 10.42662912726281 -0.2609014077399055 -1.1697982023290112 -1.2547281675041875
Ni 2.7794647182829877 2.334643020114062 5.628369817146141 0.895351194694187 0.9880479482989759 1.0666059485095374
Ni 1.2771216809873234 3.0014585243600367 8.202016558348351 -0.051024827787299214 -0.46070132018280013 0.9366886199903933
Ni 1.1044930743748476 4.43976732771295 12.331108604303322 0.8317282185269032 0.29875293137004033 -1.3174435442555374
Ni 4.222496987002485 4.2420073468276005 2.999443118695946 -2.0204191439953587 2.032891308320441 0.09614974515039569
Ni 9.131247308857379 4.228743565961362 9.930307150754398 -1.090651162384199 -0.8072819125590807 2.421543633055791
Ni 2.7797276367007058 7.96460576022548 10.00821078453937 0.1301986072049887 0.1503534848863088 -1.4863722210408725
Ni 5.19544925714749 2.8851488560531484 10.0860618346408 0.36966549922020203 -0.7002299186738844 1.3590475929495693
Ni 5.305584875714181 6.182163946537165 6.230965231326496 0.11508154905789213 -0.44124244012724007 -1.1454436847440468
P 0.8633025973434765 8.846869308562566 6.5544555194101255 0.30773019516798616 -0.07462601214600696 0.4448669242537048
Ni 1.9767022597723178 3.891029391479207 1.3258613159407748 0.8884629522147861 0.44536906070110394 1.346470527615507
P 4.197710126518344 0.4979013002451853 9.324872217662692 -0.3195757816526625 -0.5099646851943024 -0.16869882016271592
Ni 1.4183814005203828 8.955971385763057 11.930458106926194 0.891162096313504 0.9327031529800839 -0.7560110301992464
P 0.19424775347073475 5.576826021275446 1.2009850402924591 -0.988516403294962 -0.9329926591960448 0.3437351525076854
P 8.261132404649313 3.195519515092668 7.61040750756766 0.359480074046768 0.7930637120771696 0.17921566053363971
P 3.3652288206532446 0.5240943209564979 0.6012073862578514 -0.3348221662887717 -0.05617886118441292 -0.8936918047138931
Ni 7.624987693752955 8.941257020523203 1.1125664830292465 -0.33275242824393664 0.1147241657184734 0.08044261882778404
Ni 3.295510109196391 1.6204931345265758 10.966793203233257 -0.42897622116537737 -0.04401882878311129 -0.5712068198342356
Ni 3.772779566572609 5.139828412571704 0.3673496132351023 -0.5615564412286652 0.5252866602633535 0.4807754652248559
Ni -0.0725210591436298 7.848423018051283 13.110901965873039 -1.0353565035769523 -1.5667245941476955 -0.38671294162079206
Ni 8.654277034508219 7.341616036367337 5.737986851799265 -0.9399801462574714 -0.0997487753555637 -0.06711916224600054
Ni 4.080974349051707 7.406339297887555 1.167157412699766 -0.38111076494266627 -0.24779443804430223 -1.5725913373411173
Ni 5.185394894207874 6.970520288987374 10.046904216090306 -0.5009136307356277 1.238233512283274 0.029190505521027147
Ni 7.633509876947941 2.3642168090311304 9.625433299875644 -0.6574336494439644 0.6275348050020032 0.5079682235895638
Ni 8.387831883532217 2.855067362605315 4.46005375017795 -0.30537326490003536 0.5770468235547803 -0.9741976726794448
Ni 2.3284508380691946 8.52454039459306 2.294276883457301 2.1561998732738155 0.5691733343439745 0.7263153029070265
Ni 3.918998471432964 7.057156440701508 3.526748670809533 0.8373116261519516 -0.7995714312887003 0.19928234937652778
Ni 0.8750795292267601 0.726555101827592 1.0411941053864728 0.2018225992998782 0.6697106670391048 -0.28674742226873196
Ni 0.5612782381436419 2.3064200878949226 11.093660405934358 0.3372927393164514 -0.4956804073611464 0.26300636989805026
Ni 1.549414500219459 7.1477998317477525 4.370618877237974 -0.5770200840819031 0.23470032386450548 0.3099904519570726
Ni 1.9390505291246833 0.3546071361281313 4.569352562884112 -0.8305503961687181 0.648187191145032 -0.4493378155408648
Ni 5.743915208811181 1.4180912836456598 8.139717585962536 0.6663512636485684 -0.0482223253414976 0.7749032391180589
Ni 1.5693600353566604 3.852924353214817 3.850597978525633 0.6943420924345396 -0.6866416384664885 -1.0682067173377539
Ni 3.7506400225703156 8.103707735502788 11.963511485109473 0.2997392065427096 0.9129318838904278 2.000770516526496
Ni 7.115007558751727 0.10914196827076457 6.101086252819677 -0.028573954982950792 -2.041309614291123 0.3536848075212296
Ni 0.9459260700340986 4.127030402913971 6.155357147312767 -1.5600420399211972 0.08983408734501304 -0.45472967598039754
Ni 7.425586739294954 4.89693712536227 6.320439995336746 0.9044176757718294 0.1398276456543205 1.5834406213507957
Ni 5.360616420388186 0.9888633674930916 1.558577660384536 -1.3016955373926615 -1.5318498937576972 -1.7932513810624728
Ni 8.175022089770616 0.9496250601868159 12.249835081695396 -0.6137632051392076 -1.0136916170090091 0.5198516052907112
Ni 4.911905342867506 0.9377937313895216 6.073114453020218 -0.8192583681946666 0.36827376107899806 -1.2464067921226856
Ni 4.225815198757128 0.3483406116341161 3.8417476006161166 0.15955777709339616 -1.084178924396294 -0.3169149469910478
P 4.671380321417531 4.23101917019747 11.68090319775047 0.4642617838405488 0.2953009682656979 0.591598239006394
Ni 6.090051838812636 3.938699220457117 8.284033505447756 1.6080543061344177 -0.5727268560231878 -0.9043233162858103
P 6.038528895092312 7.88686350395207 4.493332875554371 -0.05139506664252439 0.6221807397789413 1.5451550955070357
Ni 3.5054459326677683 6.7076653343360695 7.988103413847568 -0.8317012219437095 0.057578826855733095 -0.7511711856084419
P 5.754676731632934 5.798493445868432 2.4644540024783685 -0.8881459351949994 -1.4625203541239393 0.05212320305780055
P 6.951853081329422 2.0682160014427304 0.4702150842442831 -0.4078065290662977 1.0963027042430216 -0.867518488752635
P 2.11527839821419 3.624683968178891 10.278385750586029 0.8913353886665746 0.04525810050685109 -0.023623295845894798
Ni 5.8493817589253 8.533715340756173 12.926526345679983 0.6705264780721807 -1.411859337433962 0.18419048804041183
