# total energy = -340869.18708639144 ev
CRYSTAL
PRIMVEC
9.27231783246537 0.00000000000000 0.00000000000000
0.00000000000000 9.27231783246537 0.00000000000000
0.00000000000000 0.00000000000000 13.57097440806356
PRIMCOORD
 96 1
Ni 6.802255685323159 7.134195385189005 9.268256383622594 -0.5877662668548136 -0.016152955610778633 1.3705365674257752
Ni 6.363971774229027 1.9211222234002312 7.387047778816249 0.07168595568107654 -0.5180258649358821 0.7657817364327649
Ni 1.3222788597270605 5.752008081068715 2.9326467746481732 1.2367420153394122 -0.3526910761493926 0.21624545959342759
Ni 8.263999474955586 3.7330721786862555 9.389621749458065 0.3257047773685358 -0.4640044164141041 1.163263486534287
Ni 3.2290475353915356 8.067296528142712 10.265085238613173 3.1111574667767257 1.8294748821708815 0.8427106856803358
Ni 6.547508029966465 2.0220143118451674 9.749849436037248 0.4867103426520521 0.8227555827146475 -0.7767760306607396
Ni 6.227752155504226 6.6022703380590855 2.7325566501945553 -1.4968764630063058 0.19475643648171623 0.47649766378510844
Ni 2.586271930651174 0.2031759517704521 12.434676831083353 -0.6865645053716498 0.35514647966842067 -0.7192553107364515
Ni 0.6404297083726963 4.9682376140092925 11.065826828683418 0.5457937790777697 -0.029333201746478514 -0.9909131856619128
Ni 8.16974636595432 2.41925894498164 11.745053768603885 -1.2506241726381429 0.26749654445891996 -0.7220429007839179
Ni 2.184660035897426 3.992632166907844 9.334916929734932 0.3852744094020526 0.7838177679988695 1.7562686331905368
Ni 5.4059466414085815 1.276139807057085 5.2372284765216035 -0.404899896942464 0.6721771263017263 0.09385760668210931
Ni 8.91018729259437 2.0466323152291674 7.329398071004692 -0.2531356477515576 0.07910693073549602 -0.06963987178532523
Ni 5.796459571924798 8.631507785360425 1.0652835945698844 -0.9427556521200797 0.5192774779547961 0.09720955387347775
Ni 7.730952477388956 5.650355662575761 11.05800933766532 0.5675381127333968 1.5105009957682758 -1.3175620721112729
Ni 6.958633322638098 8.431939692390996 4.853686474421241 -1.0251901045669118 -0.7224180247351494 0.6917226525338216
Ni 1.7983660099159455 6.413597218338696 7.9561325661954045 1.9618453002162084 -1.4910431441539804 -0.4731115209216948
Ni 6.718879004935615 2.07660044590227 2.987894024954346 -1.464913536946464 -0.8302588330702283 -0.035570698015758094
Ni 4.460735851592538 3.661424980137039 10.77795938188141 -0.7007724214409157 -0.46769137834738805 1.8833397505101372
Ni 5.070038389584787 8.458486337848017 6.7886624676354215 0.1899307329582987 2.076740187184591 -0.13138491420360598
Ni 2.9995113117490027 8.280170396952458 5.348918178880162 -0.8263121897176544 0.5305556219717765 -0.3487259208540575
Ni 5.2464627776779595 8.933813157988883 3.4870618282594092 -1.8244213789073742 0.16853709777387102 -1.2206739061329557
Ni 4.827567282808288 9.016856034940712 12.232374331636356 1.4910007209518192 0.9188461924923337 -0.34322787385396375
Ni 1.1230909317816398 0.2865646861709526 9.937820641310871 0.7627748312856413 -0.2870510695520798 0.5152303044686158
P 7.471661386379472 7.169142750444862 12.488186449060274 0.815986382311614 1.072023519980683 0.04145106805593506
P 7.828246906582295 5.32942220377086 1.9019452160183894 0.799618482476552 0.8571368884079947 -0.9573600322968157
P 3.5155528787294723 1.5582964334130645 10.649319882842644 0.2504524444924396 -0.5767205505636132 0.343244328914196
P 1.2929597912900705 8.659028024171615 0.5660008145258527 -0.7290442718024155 -0.40587254526837846 -0.15786136322757974
P 7.688151459076133 0.41121059799409293 6.469337755944314 -1.2323644550970065 0.5069325832361979 -0.12475481048159805
P 6.624366271039904 3.9726317777179045 11.008367203383866 -0.9460638905577062 -1.7541575003848047 0.26427160976371905
P 5.353548774318946 3.4696827232716 4.345127667791389 -0.09665393848032386 0.31655010745246126 -0.45815824204597216
P 4.879890971356655 7.245750638941513 4.933130764889707 1.2606262781561774 -0.8592158824242105 -1.1039453083899438
Ni 2.2250409793013137 1.3853677090772438 1.4256169855703769 -0.425656412763525 -0.37536743470098577 -0.6256815538433482
Ni 2.130110991110958 5.179748452123202 5.69698614808165 -0.6349172135090033 0.08099566311777663 -1.1441200808366168
Ni 6.167760260252067 3.663492706974942 13.248229055230937 1.4095047211588565 0.3980967579777015 0.6803540056855637
Ni 4.705033604947813 6.124143277985274 6.818356137705826 -0.6697260936580723 0.6100423046441946 0.2647297803470602
Ni 8.96763857280803 1.044470950353038 1.450004108244674 0.8809010807071281 -1.5470057755625293 -0.03847578747769503
Ni 5.082973272718753 3.9466507436380676 6.679049764432423 0.1102051948021973 -2.0780702188499243 -1.2916160416694722
Ni 1.1608292646527814 2.7262746549807475 11.442488771080983 1.520372489245717 -1.1997829216165594 -0.19724963521721514
Ni 9.403984569511481 0.5746815583179811 12.41091373538749 0.3181714451059681 -1.127749095677761 0.7573361767685731
Ni 8.487007986966352 4.483499391444788 12.899658526412344 0.5208612775021481 0.5804373372935681 1.352101243538723
Ni 7.074834007537643 7.083104914889254 7.139770829797216 0.9155029870517135 -0.03956259278397057 -2.126530885454473
Ni 3.4208361538452676 8.556114570477071 1.2785042480600681 -0.5878097184982392 1.4739460794623775 0.7395683112621908
Ni 7.140750913773747 1.1321128968636105 13.514342717573735 -0.2210266830321548 -0.5341225133874286 0.7234045570181348
Ni 8.621716217912777 4.983091866898622 3.9563189892608537 -0.9059770498391494 -0.4563101330936399 0.14932915738685248
Ni 0.8726836483210106 7.09410188363254 12.34962742459017 -0.14008372752918455 1.2005061729358293 0.43992706374992624
Ni 1.0138908467144572 9.03887778938026 3.100899469188682 0.7417012984447936 -0.5504968409803939 -0.3553125729326397
Ni 1.1860314240492833 3.0949234604576135 2.701167073224365 -0.011397186093348112 -0.08505517789913093 -1.2890865903793993
Ni 5.737654533332959 1.9725372248180393 11.93963428190467 -1.562952785810089 -1.3714829904994446 -0.9547912431283749
Ni 0.5364054310226317 6.1752337482850255 0.784372240475476 -0.988808480614084 -0.16695921176378986 1.0227627260723418
Ni 6.140240021440877 6.1125621532294865 0.16591699772226834 -0.5445601637809847 -0.35789241784467396 1.008285101281457
Ni 4.153367793522398 5.597707442909338 9.718242886833844 -1.8675084399048352 1.9513217749770653 -0.6056264349646859
Ni 8.054241104879182 0.0063033215444230975 8.489892604989992 0.03827704120332763 -0.5019603268325871 1.021791363298008
Ni 4.1811105679574 4.653294072411947 13.24106340814425 0.30948034508987343 1.962908708483716 0.934604483767855
Ni 3.3310986635438167 0.5721335254253547 8.474978082035882 -2.031747938744617 -0.2342663216508804 -0.7471895752528745
Ni 5.6194324831838065 6.891733550730166 11.310443549766154 -0.7123670682570505 0.16259476414750706 0.5752719910425447
P 1.1195767233889709 7.099869265216287 4.648899921073464 0.5405821529698431 -0.6429747937061572 0.07396678129545324
P 3.773453122090143 6.530224429850542 1.4738080021382354 1.5530926051865575 -1.376268841923862 0.8255817393095332
P 0.7401061959725694 2.2361213989035282 9.266641145886439 -0.502651696472657 0.8859119036581582 -0.26215970562703883
P 0.44547273897496636 2.671336172852612 13.635978835084844 1.0618710049277131 -0.43265932644391936 -1.5891518128029598
P 7.100295791828589 0.35445381437307466 10.9234531727285 0.17118533402999553 -0.1884513201992948 0.5101734587709988
P 4.515182900884761 7.4433808175202625 8.601866967500676 0.4182732329255764 -0.22227315384474622 0.4080489840944069
P 0.590215472091697 3.493206593171867 4.602351959194737 1.0577603251934493 -1.2211297627234516 2.7605057896548653
P 7.538486979746135 4.151522602308306 7.367410864478534 -0.3873757720157716 0.10793593915204637 -1.1017786397559284
Ni 3.6264868871988423 7.20085407683781 12.93111671853321 -0.10642952980984897 -0.8345824001462464 0.12113264034797847
Ni 3.9761830753812086 2.511277425427146 2.7398168749213623 0.6780973484409032 -0.08276278232052843 -0.4067660036169253
Ni 8.146509937901474 3.1661997663004797 1.3225718649650773 -1.2736566289775744 1.2946244894784928 1.176927871395257
Ni 3.076721900893473 2.9356714046684598 5.032049704136859 1.310086332559518 0.9649229322457381 -0.1831445632744007
Ni 1.4695696257364175 1.3692060593980302 5.488699294817692 -0.7204598725675141 -0.8053366159072517 -0.47671980709824346
Ni 7.263071328328071 3.0461325249372337 5.473676285746974 1.2135488650524002 -1.361784789375074 -0.7042511240181355
Ni 4.411397849330292 2.6817675302187136 8.7148863202115 -1.2249776757146325 -0.9444325256018703 -0.8220410731461262
Ni 6.69847063376869 5.197838743875437 5.296818880419137 -1.0103409553692213 2.3690116245953456 0.18351197391614846
Ni 8.7737358659281 1.5743653599156906 3.8936214317158693 0.7273589136801926 0.18267970782284024 0.7714983272015681
Ni 2.0451487444037664 4.497092609132525 12.851793895426074 -2.2085441912034867 -0.48661444050413605 1.37933591088496
Ni 3.7270544445257223 5.219953221491573 3.5466652134016656 1.06561555957181 -0.24636567601757567 -0.277733905916212
Ni 1.495170494792246 7.0185974009372805 10.145145028001851 -3.1147068746908806 -1.2166683845179886 -1.1735234736993982
Ni 2.000372722429628 2.637529302668783 7.487255570217969 1.26948552831902 -1.9540034355742868 -0.980004252058893
Ni 5.235901607864634 0.024274927630626168 9.425299773345431 2.031563333537637 -0.12653787052394982 1.421108623946372
Ni 8.657915346052565 8.030058900425145 10.583188786068622 -0.9206907019002403 0.26880472174738224 0.9513847885499872
Ni 7.844890716779764 7.777833315471632 1.088444916849694 1.7519458374454666 -0.3372554583206127 -0.9758645188589063
Ni 0.46191348541570865 4.341252766241794 7.705802242971343 -0.3286684879825501 0.6442045523482002 -0.6785403495155927
Ni 3.491083232428012 2.433352867822951 -0.42217974978440265 -0.4523339220547113 0.07853074651705184 -0.9627958586004065
Ni 9.296425684669897 6.189290581855702 6.365479453080341 -1.327971697480371 1.019082449007277 -0.674764170302612
Ni 6.007247169261324 4.143455685945187 2.0842028191506854 -0.9700944491443487 0.677933054948897 0.5000044886577969
Ni 8.52948447416112 7.201586589932853 3.320220380466562 0.6562920796403536 0.7307293728143222 0.14456130368456394
Ni 9.164693867691936 8.74411081100837 5.313009274283093 1.5420749139198153 -0.15216894082849278 0.10384248580896309
Ni 1.2973085082720277 8.577338905597966 7.43036619245443 -0.5919594790005547 1.2007203458291644 0.0523466319225163
Ni 5.896016446626873 4.443962228947847 8.853364675517975 2.043320731183881 0.5725281097488204 0.20757749950578444
P 2.7667946831495165 5.966467516198109 11.47841158415454 0.7033399250577758 -1.0331440693066658 -0.8277612634593551
P 9.115810208994969 7.056215193678858 8.57519978191409 -1.139208245357296 0.892903761594959 -0.6559534653540122
P 3.131029865420814 4.5030639817047655 7.4335549424972776 0.4562258009099498 0.2705289035273406 0.7485412041847624
P 2.9080491703630225 0.690519695597068 3.6760511340119626 0.368585635892462 0.3095531073093379 -0.7224175105145171
P 2.7645322376407795 4.2453584570149285 1.6784443439399417 0.25503260766395436 0.03905300013740371 -0.564515523856989
P 7.551301322750536 9.23032333208062 2.8391289604372467 -0.6787326680320568 -0.4091206198920309 -0.2551783892131993
P 4.878602119202088 1.3375132776403984 0.6547443123742855 0.8058865748734506 -0.876028325995859 0.5551775342855148
P 3.495654485033779 1.0889038965738023 6.384030579020216 0.02265681816756743 -0.06105701521232065 0.5353838965983554
