# total energy = -340869.8679120865 ev
CRYSTAL
PRIMVEC
9.24884437746699 0.00000000000000 0.00000000000000
0.00000000000000 9.24884437746699 0.00000000000000
0.00000000000000 0.00000000000000 13.53661863393821
PRIMCOORD
 96 1
Ni 4.573627554541001 8.092461398797875 1.3722066515708269 0.22934394464859856 0.34933321542075324 1.0695321210173967
Ni 4.627853529352882 5.389051922490776 7.096328484223172 -1.0855184691433242 0.46553962211170785 1.3734200596211572
Ni 1.0426499775657232 4.1303396905193965 8.686015238048652 0.2866209239931967 0.6063568853728073 0.9870542169271388
Ni 4.395679787974295 9.075077127258375 12.54604912654612 -0.1807349253916436 -0.5018870503924905 -0.02617485862315492
Ni 4.176842880243793 2.615804421997336 7.020049564785425 -0.4413131454641754 -0.5716117685821381 -0.32734616962670077
Ni 5.782396026665176 0.3065557228265829 10.539368048489706 -0.6943960856009267 -0.7456908792201609 -0.9511945269160521
Ni 4.0230993395141486 4.322697156686463 5.101545119623694 0.08779006033179074 -2.368459865856934 1.7298556904146465
Ni 9.16282091423438 5.68269348385909 1.6018147635083753 -0.49371608454592397 0.4034418243396987 -1.1010960118666069
Ni 8.553072348410927 2.5958176692140382 8.545775935051026 -0.49927378113935955 0.4755103601711746 1.58441326967671
Ni 8.87815073194973 7.585227024483016 4.792409894089446 1.370639925772859 0.04340844889262202 -1.223493377859622
Ni 2.1960918623924948 7.580334385786874 11.886180147947112 0.43478845697178026 -0.5044599533259893 0.7951252225918887
Ni 8.347276311307196 4.375221344125773 3.775119323028362 1.2807418179591297 0.45023615898541813 -0.021778786437988296
Ni 6.807473199840216 8.714640411516633 5.494040179880691 0.4172838724291136 0.0931729219102589 -0.7363384914709834
Ni 7.506417621213012 0.496454846147837 12.010135010581225 -0.22617917376737173 0.7826456020676392 1.7625143569899322
Ni 2.091533676267931 6.812865276134831 5.608139473904954 -0.43359495088431127 -0.5695548860531094 -0.6138863609806331
Ni 6.467781642123896 2.6118921608093046 13.077307374231925 0.7590539307906282 0.16840699995390995 -1.1137625515906817
Ni 3.427630989469229 3.7838317344683743 9.063578038995777 1.0847448242020932 -0.26151127340976255 -1.023525058159663
Ni 4.383388073745232 7.820693354473753 4.086109866752489 -2.1792873512208986 3.7264309379128733 -1.426607442277414
Ni 0.401373026012059 1.660657761452798 13.591442311365672 -1.251184158906671 0.2954758032806653 1.1436400558764048
Ni 4.167409058939321 1.047912570038512 2.414648530137187 1.413692791098275 -1.4545355361462498 0.30042157732171487
Ni 3.828355671487716 4.75416499754423 1.416065596676647 -0.4611314657416832 2.8749124241329196 1.8821408451060295
Ni 0.9853718840965126 1.9209294921676465 3.141916612649996 -0.5515520217177855 -1.2356624091219879 0.9345170662603712
Ni 7.5310287962043825 1.0628956979926734 1.0565408169943373 -0.08765456319519098 -1.0276763613238753 0.05716282236423703
Ni 4.622822157990497 7.406789069162254 8.935008002998007 0.0799808487000171 0.5227479530018998 0.15373628531561265
P 0.353212443368288 6.250137835323079 9.5918452103974 -0.5439495267801794 -0.6838211382985577 -1.4474948272493846
P 2.5900093949206964 4.31917334696391 6.8860782036486246 -0.6430652965374344 -0.5060280691440575 -0.36586360897560866
P 4.51373203810202 6.656818773145565 13.364527462922107 -0.48140975637474503 -1.0111549666300843 -1.613827461172769
P 7.402497605353161 5.65207055999722 12.9398972927412 1.3809803884669183 -0.8971252558754742 -1.4125939016071416
P 4.544410455030386 1.685167199155593 0.08648964367317559 -0.23353844234592036 -0.6609347206186875 0.4278871018662566
P 1.0853241457018346 0.13923487849403163 7.918258489335267 0.32225744224988373 0.2509784921992387 1.2144952881260695
P 8.42423594569397 3.3254682540484475 1.3239924256294424 0.1711727356245052 -0.9014745339831056 0.3039750990009281
P 5.172175769776499 1.7239476037925057 9.004423354994529 -2.2921022157318007 1.6867884269115272 0.6380629582268367
Ni 8.459668268652237 0.39785661536503913 9.861426827901544 -0.8914230632843745 -0.0025060542513053617 -1.1127829612862319
Ni 9.19589478186653 7.47003266727988 7.141892916239331 -0.6985653864872678 0.7731392052391007 1.1989131174170964
Ni 2.5925065829130567 2.1322840847654834 1.1950561353927927 0.1821122653551444 -1.8273452374223884 -1.2604928379021065
Ni 2.115932127837732 0.8683231335879391 12.457438722848321 1.4212780596447008 0.4372505453590277 -2.027279104339986
Ni 0.4965889543918711 8.85845994218775 2.245237446966586 -0.5350972185958719 1.009614618726158 0.34779543861998813
Ni 6.233887615683905 7.3565493462937335 7.151016901255862 0.5011013212664015 -0.5946228847653308 1.702375996937139
Ni 0.765263260258791 5.604309527432227 11.666399858086164 2.828665734460554 -0.0716874983429733 1.5067073330537988
Ni 6.730596805053186 4.8633106104992025 1.3282385701008963 0.4405325585444091 0.42541344351478344 -0.8696946704683474
Ni 8.890368455423463 3.6766191299963755 12.54452029256413 -1.0738351192681248 -0.39360915451999307 3.2338685073554174
Ni 4.2908163899839975 3.740389912245723 13.213052663727744 1.7993343540317592 -0.5776314924136569 -2.0176827189008026
Ni 3.673742739382953 0.27229430357140055 7.9542799636828425 -0.1331286363675901 -0.04832028437194259 0.3225734308284057
Ni 7.707080549665779 5.413579857882403 8.238237060063007 0.897384423074132 0.9672703494319922 0.3073522430032771
Ni 4.557220104546753 0.43017485240838854 5.7572456440443425 0.7263811231479554 0.5369299009292365 -0.8176635129037207
Ni 0.3309153292498361 5.193808816865871 6.694913838411241 1.023445096851347 -0.9728691836760083 -0.6617358763637442
Ni 2.171249466290719 1.4905345172621538 9.521359767101929 0.9845785016931367 -0.9035643266325987 -0.47514577774290423
Ni 8.719782769012012 2.431576690072064 5.260397722008818 1.2036015240317013 0.4125314453457928 -0.22089735654314216
Ni 1.1442485334771197 8.276365421168581 9.825676344695362 0.19868636766374168 0.07759306519413088 0.5507086998808838
Ni 3.914675136423634 5.130685453725653 11.22923472906805 0.5948278016872852 -0.6240980114063124 3.3131088783449845
Ni 3.5785998768740286 3.1959474368446967 3.0549848742137287 -0.05081142622491249 0.5224427630566552 1.1527142502635308
Ni 3.1831840315504114 5.712733730522742 3.782943845404424 -0.7015432381686693 0.032360418608576524 -1.50338263955594
Ni 0.0030456444662378596 7.620215402909308 -0.046199827627547395 -0.3949741531883198 -0.18594706572020234 1.1017842961828832
Ni 8.423033595919872 0.7750772090687668 6.996279109751482 1.8503278143604907 -1.9163912816484672 -0.7505266100459074
Ni 5.5207369692879045 6.335393683151139 5.104415036046024 2.2058260209413754 -1.4561026235230534 0.6651634139880545
Ni 2.5491572491345664 5.914571262216361 9.815605278010617 -1.7705894206885828 1.8347160759651626 -1.4580636039041661
P 0.9849556860977859 5.796851970487617 3.408980694704064 0.06349005013384548 -0.7192337134698967 2.534618178985983
P 4.948215002239451 5.403100917158906 9.378345810779459 0.9756079227634101 -0.8665628097075849 -0.006072431446325025
P 8.377677262903077 0.4771996769578564 4.3104794332127305 1.086973456422296 -0.4098981214880037 0.46163823017477273
P 6.9765883199895 7.89657087406384 9.382244198700866 -0.5420062870108794 0.09065684035662451 -0.09974183337702822
P 3.4791470528671784 8.47505834576071 10.39812617075737 -0.07888298765014802 1.0888310784563247 0.05932820544667203
P 7.8348440864304605 8.066425901766415 1.7248493661230802 -1.2677073533726746 0.1852407836817971 -0.7296129998216918
P 0.22704988157204137 -0.2187656916284967 11.87276562400593 1.638176579441095 0.9611380112820092 -0.47983984078446396
P 3.9762446937019384 7.680332891614276 6.304937238488761 0.39638903125797537 -0.4063032050478938 1.005715540782068
Ni 7.3743996160169 6.534456561519915 3.20518703241643 -1.0263396447903226 0.4193335558692907 0.06901046573144244
Ni 2.180553803773365 7.223920917366157 2.3217873575457264 0.3374025254214382 -0.3558507048242968 0.07478490632137443
Ni 5.9455548910104605 4.485865269876163 3.4943697258917186 -0.6522454203748058 -0.12987619086856345 -0.5310217629749177
Ni 6.51755892277161 9.376201003759354 3.2201044935752363 -1.4449455784649696 -1.5267156578549255 -0.6431172328212924
Ni 7.56295580712893 2.1147575245968806 3.167379606212096 0.45158598814509326 2.1385664764627683 -0.1620589462486951
Ni 0.5845473145583312 2.1278816348233964 11.012093134519029 -1.9256850482455674 0.02810884242107417 0.5299588689280422
Ni 1.3731204373991426 2.18337470132029 7.240981335776184 0.651094337489498 0.6006073844835398 -1.037951260887322
Ni 2.8361581402120852 1.8020633437312998 4.904601151510659 0.01580045736736634 -0.30391236408379274 -0.054761926232228274
Ni 6.048577768961943 3.77111457339617 8.127737416285509 -0.033665510573245246 -1.0216419822043372 1.308636744597185
Ni 5.888591258251399 3.8549183526508957 10.866886277185491 0.7045388304618834 -0.11635038846798672 -0.4709569364725373
Ni 2.002134346141435 3.725813733445872 13.182270659741915 -0.8924905853169403 0.9945332989130031 -1.287610777164821
Ni 1.5666895021847245 3.8012473085039833 4.748550948983627 -0.442507937103225 1.157475161987284 0.06442644590518581
Ni 6.299739387926886 3.961539031080261 5.675254638295182 1.0251955038835505 0.03128698303873967 0.36367097219966404
Ni 6.527862135451199 7.509580726003334 13.349326062239726 0.35680561253839843 1.7056940055667786 0.576156193419711
Ni 6.277014977196407 0.6285625651347841 7.637874221553061 -0.5540956140752457 -0.4615361573792696 0.16447784010283287
Ni 2.1852059725146877 7.3789315497808134 7.916634392255792 1.0652586904530232 0.14392495565214566 -0.9276136542723187
Ni 8.398884863149307 4.608107246524404 10.691641022957183 -2.884476413672271 0.2852860072318571 -3.884149347804685
Ni 6.18466526570116 6.303975358669481 11.185159361002894 -1.6035276219086578 -0.04640249852393944 -0.8877301878138196
Ni 5.6897318544597795 2.8180119074676013 1.7890261726422965 -0.4145986122874666 -0.9127853310102343 -0.265353272863672
Ni 2.2149965003791037 8.592435430246056 0.5529366141128172 0.6314197418787061 0.35263913986553463 0.15420165498780541
Ni 1.4301025678470365 3.810560894831045 2.0892011177061782 -1.1346627920784587 2.4661661568611724 -0.163510333983241
Ni 4.027252070657 2.4515171986332818 11.1956096303087 0.5711659392939712 -1.897919705206841 -0.05743304530648818
Ni 1.3930054528938627 -0.047177430482334345 5.8368411990897195 -0.025715145377917 0.13542720259377966 -1.0503262375129072
Ni 8.275348048282805 7.191217003510654 11.311401462861118 0.5127764436114846 1.0298638558934974 -1.1083773760193685
P 7.791883204117449 6.152608770954787 5.949831556668488 -1.8045218117699697 -0.6328857849012712 -0.1546459416140756
P 7.605814952153364 2.576302607495964 10.810004959141732 0.42903407098650626 -1.1573846591560069 0.3918685176798026
P 5.051154640591189 6.331943864183916 2.767805480438978 0.4805592354489917 -0.43803678870574886 -1.0332829088773752
P 1.6903835474063011 6.020858982246746 0.09543975041468296 0.24924531155821592 0.14240954744888376 0.7139130725879318
P 2.2094564425738303 3.43552950260062 10.776271648902712 -0.47734715626959723 1.1385377016528326 0.7593408659034276
P 5.408178532743372 2.3943130959194003 4.176398935711818 -0.6114181019457986 -0.49102645352890273 -0.2524103395497589
P 2.455595939020803 0.1614533774349463 3.3000653779750526 -0.15387898154106402 -0.2575826277793177 0.34021814049336246
P 7.333686202897012 2.545244987946535 6.838875801286367 -0.8194087777296016 0.30781401313104406 0.5349239262428013
