# total energy = -381168.0744980763 ev
CRYSTAL
PRIMVEC
9.25630119299489 0.00000000000000 0.00000000000000
0.00000000000000 9.25630119299489 0.00000000000000
0.00000000000000 0.00000000000000 13.54753243720851
PRIMCOORD
 96 1
Ni 6.459278281745807 7.2632713348381435 7.013327140046226 -1.027719555856985 0.7952110974374756 1.609812426476105
Ni 3.8080885343770055 2.4545118626118287 1.5199383193160116 -0.18100694810610762 3.478624929904345 1.2335376494695014
Ni 3.881972329375601 1.8667830273029042 7.313919962935526 0.07540222819039917 0.03233290780475077 -0.2539499161227368
Ni 4.314769197672938 7.038630164602497 1.8537899575159424 -0.3460229201005976 0.774835361994601 0.26970615051572905
Ni 7.94290598329428 5.535823407273884 0.6913762663408428 0.2574646141442147 -0.8679699744677568 2.5101055385565996
Ni 0.7926318691808752 0.9094917443346926 5.790594763064518 0.3884031848390214 -2.2945247091303647 0.06486713298703022
Ni 3.4051154680698312 0.43099929463300063 1.0361475628920447 -0.7006145557068127 -1.7005420290521938 -1.6748345969837606
Ni 2.7629873514771752 2.4479769140689807 9.472353300681208 0.11559319858698802 0.980784324758027 0.44258661285996037
Ni 2.6533649781160666 0.2892436721692079 8.805814466953713 0.08459006533725433 -1.0753662112006706 -0.3487246353024768
Ni 9.152880400535752 2.7141603634268634 13.139710885120898 0.061183256377539796 -0.2768106227709942 1.8894885437203524
Ni 0.684438668702225 8.888788875215665 1.1904787959653453 0.7704773421362214 2.839333241476729 -2.23883872842197
Ni 7.135414048404216 0.9377466032965084 10.373454208112088 -0.6321015984370791 1.2129881074529238 0.7677514585646261
Ni 4.453298999220041 8.51642639648809 7.6020214075548935 -0.36446287197334004 -0.08147671651925321 0.7406605158851051
Ni 2.3281078154430963 3.6962261361612665 11.411262351412898 0.296027047798445 0.9682784789815323 -1.2373390254934626
Ni 5.394914736356366 8.562680132845893 5.335153279873099 -1.7734505442864619 -0.1422848489455614 0.32706411960990767
Ni 2.193336072123182 5.252201086733671 9.035838176251207 0.3385104137736364 -0.21127783117550708 0.0609963371777143
Ni 7.814733982624579 0.7557436582276801 1.5771626236808722 0.9830839194254812 0.6468548454868537 -0.3400654169655821
Ni 0.1785679317483599 2.8330297815391114 10.90339225343176 -0.4670370325928408 0.0924149606983118 -0.9127660477365248
Ni 0.4799382839260444 5.657867736647034 10.406767635598928 -0.03910159398715202 -0.0750031929797676 0.24740208770189
Ni 7.747542493286718 4.5319035077552545 7.193861110138071 1.4608481086278389 0.99367480756745 -0.1336873370845375
Ni 7.679888188896248 6.8968976828913355 10.511773891625309 0.10908316538261212 -0.6532023849714363 0.03614045447629905
Ni 6.866953548987494 2.9570457030363784 11.616751309141453 0.7573785999707343 -0.21971722019211193 1.4348717391687353
Ni 2.645376790308025 8.36866806279195 5.740171063082703 -0.15197919341518987 -1.0076086440397227 0.8968426916380489
Ni 1.4112526836213846 0.21754991799956083 12.149805951025394 -0.07106966225331632 1.4851522325908422 1.7095403758960623
P 8.925517877790762 8.793032440830741 11.071680137231553 -2.470523148278287 0.6688030676231708 -1.0249962433885507
Ni 6.0207147378929555 5.568090872741824 8.770740491006746 0.2636681718517652 0.48137144693764194 0.0311532856743528
P 5.3988949458088085 3.00701121611611 2.9386626891467253 -0.04601966126322397 1.4920613010058497 0.6799176894790936
Ni 4.015503728354521 0.45073835662679984 3.326474859960514 0.9487558355675726 -2.2912941180082087 1.0013035277573015
P 5.795046118240517 5.247239709369697 6.389273802518185 -0.6147602789451542 0.22500083718855443 0.09098722711284976
P 2.3536274374439894 8.090821674108307 2.1480292553630185 0.9829720764379652 -0.8101628336513015 1.385013935106344
P 3.386389971041247 7.240084300702402 9.415873202920944 0.33137226006695836 0.319008853405599 -1.090944782365218
Ni 8.452252461293243 4.772502541004879 12.305589497733784 0.5592167373518949 0.05658792369737351 -1.2679467230769905
Ni 0.4357875791672995 1.040704439900039 9.387505417086292 -0.5612777336459818 -2.054940831921313 1.2963669260908963
Ni 2.3402335698214674 3.121233971100158 13.525869880566766 -1.0323490842091962 -0.9613874082886539 0.19233651418631392
Ni 1.6945880588289783 2.925129977008421 5.372626489052793 0.2972110408042172 2.0853225295369633 0.13234702100655918
Ni 3.243472682795405 6.656835515102739 4.30627283893713 -1.0382024576661797 0.5915658431065619 -0.5956672668694452
Ni 4.547731782554504 0.697027238133206 10.1935154181779 0.3678685552207794 1.2138710242785093 -1.1305587972124143
Ni 6.3390019058736256 0.6758664082977901 7.318350028619105 0.13978830777595277 0.1948505388574193 0.17114265371751813
Ni 4.694916225585406 2.965857701638065 10.892716961428267 -0.6758440336303523 0.5093946716234453 -0.4380041356956005
Ni 5.01769269957639 6.452437875268237 12.659437523096766 -0.40098693504130295 1.7865467153487877 0.8888571023294111
Ni 0.9950986446158894 6.69269442537893 0.9383538166455322 -0.6679070381714626 -2.8102910886081083 0.8903187744766022
Ni 8.044540168847346 2.4485785736373735 8.40869601106205 -0.628142356679015 -0.427455927866109 -0.0420097687728825
Ni 6.768614606609008 3.065936828614364 0.5912897343237024 0.4644111649342196 0.027348310105965806 0.33163579814099015
Ni 7.656229083406846 8.887483736767306 5.271805006732109 1.3645371553092307 1.0855878889286787 -0.22618534441495886
Ni 1.2851726069894789 7.5987474538727335 8.198681647749078 0.2157356098365446 -0.06965169885986713 -0.8652505186540645
Ni 6.165177828414514 3.0408152275587153 6.876862419263865 -2.015209574769962 -0.11137530385089851 0.7151338323689104
Ni 0.9528436303126334 8.93357085970617 3.782904916104307 0.3023689308560728 -0.24486338044043635 -0.7087415556893213
Ni 1.2402054964779305 1.8508807020952385 1.7386091753729926 -2.0128338754489334 0.6187961395774246 -2.638628043610746
Ni 8.413079795240368 6.650494948881987 7.951602278132814 0.7534304139562638 -0.5347038398121952 0.7161000529369216
Ni 1.5940183478969137 8.039504741074955 10.443250420566038 1.0391216270463393 -0.4999795489571324 -0.7854640453530408
Ni 3.201624945738445 4.903821684032325 1.2168962791683011 -0.7207812604626748 0.820930870801083 0.10683833521249343
Ni 5.244314718237204 1.7335108047534453 5.163424828972205 -0.7250194669137385 0.36178686780307373 -0.05828947976951252
Ni 7.434577698411058 7.1467900423973605 12.83623287319363 -1.1395504591880634 1.2078690410588038 -0.5991428841228714
Ni 7.912730441864135 5.613604105015451 3.05823373487873 -1.0921909960674931 -0.43600407454643625 -0.7169104646533588
Ni 3.89079358427834 4.172860846241783 5.974488770438309 -0.1739968353368616 0.2460550867556924 -0.7850806938716931
Ni 2.347740429974795 1.8439847578113557 3.4778681430798493 0.11812804919369978 1.3610268281631268 1.2006437269549581
P 3.1806409112531258 1.4024036598154892 12.27341366964626 1.1357094881754182 0.7571669981805604 -0.4835532850803092
Ni 4.090350178662545 8.548536504838143 11.902834880131442 -0.5426266942036977 0.4670012942588989 -0.680990353717982
P 8.56460544346475 0.2813082452771638 7.187764910265098 -0.1226385354695436 0.20597390246409045 0.8594737640712875
Ni 0.8142194144947972 6.61038739642284 3.279911963147568 1.298251801818435 -0.003612399941606682 1.6680481701895464
P 5.603866476308546 2.417634759219896 8.909236969870063 -0.11461078006906067 -0.6918928595630988 0.29408123692598387
P 1.730215561578865 5.245962339824494 13.030816057022491 -0.15894842564417144 -0.1552393522237004 -0.23028856795005498
P 0.3103989482239925 3.949783990883959 8.93126511511407 0.7993875974126684 -0.0496855401505854 -0.5314326252600913
Ni 0.38505379310023574 7.1653304134049005 12.279401570796923 0.7701533831378995 -0.49737913521980787 0.6949311321687903
Ni 5.651295762899977 8.680077799090842 -0.010999262540319625 0.771786033645316 -0.5714094227633449 1.2331368144866568
Ni 5.314782938147541 5.889969485530745 4.247124149583519 -1.0490332297330967 -0.676191903888074 -1.1712120519574023
Ni 7.664022888892791 8.600936425094602 8.99915175266095 0.7879302475053462 -0.2694264144917812 -1.756843274747084
Ni 8.460398006219172 7.808393416403828 2.23148221438937 -2.3610250068454435 -0.48708469527233533 0.8619808467638574
Ni 9.129693366400012 1.8163454428695107 3.8078997058355406 0.45305023139544554 0.772436008524489 -1.3189062448439932
Ni 5.579661249057064 1.1880647526509338 1.821208703442332 0.817345981663302 -1.6978256585622953 -1.113553006683037
Ni 7.995722437098087 0.6963080235414507 12.706596525697472 -0.4275546582275023 -0.2774675396287028 -0.16359955126293757
Ni 5.512608604234986 7.793546309516112 9.987105458494652 -0.6458413166206748 -0.34738431922449853 -0.2896584252679399
Ni 3.2641234904428447 6.483844504738324 7.1934825274250365 -0.12095986221554006 -0.4125586990393024 -0.20706250754257888
Ni 7.1274258605961744 6.639193005297261 5.03705410448726 2.7583609753977205 0.08411981056905513 -0.34449954147753575
Ni 0.8855919750179332 5.0701203887360045 6.931364445489277 0.6470312231637179 -0.8059611368651279 1.9305300350426944
Ni 4.781721816852862 4.260758681033398 12.937663420123549 -0.30313743359098116 -1.9736317513281751 -0.7883688777046616
Ni 4.0670150437099695 4.41486683725134 8.182302623037225 1.2296563121372242 -1.6041490575427404 1.0302582631184387
Ni 3.4906992275983977 4.303569073399785 3.59512233665849 -0.14861567625959568 -0.880571208171535 -0.7362652150308868
Ni 6.175239427658247 8.235358815038284 3.2269270446646114 0.3404515966604072 0.16760018778189845 -0.6315215575638929
Ni 8.215170822443453 2.319055153014052 5.830261715593581 -0.6263564684231857 0.19892959402279933 0.6969473912678706
Ni 2.656549145678021 7.75228171942544 13.40184192587813 0.11725901632518516 -0.8359998493190633 0.012391688796133496
Ni 6.893259956577824 1.508665995894652 3.590177620636409 0.3004190062185536 0.03186265303655158 1.37357329736957
Ni 5.294437588434823 1.591917167558066 12.989116420782368 -0.8110511497935259 0.6070410559240256 -0.82613581204079
Ni 2.9066729127103503 6.20286948629904 11.434252226336227 0.01070170268822028 -0.19199147214206935 -0.2234008396912862
Ni 6.832668209890176 4.082982163025 4.718442965969762 -1.7968763794095701 -1.4448728162455051 -0.50499320012164
Ni 0.8120923165130035 4.295904856128571 2.9928805469298343 1.4877295063997151 -1.2323197179020002 -0.48528183773564165
Ni 8.899553953339364 4.768013234994565 4.938983594839287 0.618722863137328 -0.04084428770987159 1.28350189720277
Ni 7.675111937553317 4.438340816719699 10.0929929143812 0.06477277350101103 -0.06114186161664309 -2.0054093008500886
P 6.255852553521786 5.346189567617627 11.452758349029875 0.5315650370728974 -0.5912457407629818 -0.3835525416149394
Ni 0.5181945761747535 7.176502768774896 5.949751305876326 -0.5830608909593442 0.5932807689151395 -1.0009134914077342
P 6.533948862333839 7.181815885578854 1.3614047255650157 -0.12339392557832941 -0.5807831506687611 -0.11524558543958215
Ni 1.411206402116124 2.1067804009841358 7.67315978366141 -0.39578430779444096 1.4761927094047094 -0.6384241982209973
P 8.453955620686846 3.5901304135010426 1.8495496460039333 0.12696184543524588 -0.6024822329087496 -0.46285256219784804
P 1.701419209005496 5.309210644914121 4.999676235208403 1.665371394688332 -0.02912828482452403 -0.8336349486313127
P 3.1079419227892107 1.0075020880258265 5.337957939091914 0.8070235166913715 1.9495217456538487 0.4549579899411197
Ni 5.574783178402559 5.095519678823219 1.344472174050241 0.7154037982008453 -0.09522286246075214 1.576343605294698
