# total energy = -381167.67824059824 ev
CRYSTAL
PRIMVEC
9.26074269572663 0.00000000000000 0.00000000000000

0.00000000000000 9.26074269572663 0.00000000000000

0.00000000000000 0.00000000000000 13.55403302540958

PRIMCOORD
 96 1
Ni 0.2617409938540631 8.856112817223538 4.391533892590695 0.6085104413807004 -0.17745548330942343 -1.0357894773493128
Ni 9.285468618807062 5.470635422484338 3.822847442827273 -1.3374516119463484 -0.1663740286842812 -0.5025200559907991
Ni 6.428427708979516 7.3159772640938305 7.761120779383102 1.240488883976354 -0.12139283598790061 0.2458594258051185
Ni 5.984708495876978 1.2611001227754788 1.9537869876894132 -0.0029698812616013367 -2.6508243285666215 0.3051524071384809
Ni 4.557822562003248 8.228780863832483 8.850376713358369 -0.7479773612614924 -1.1694050806556504 -1.0082545051538376
Ni 1.9183720564637436 8.650635464042441 8.627236346128132 1.2224014303470239 0.5711463989099455 -1.2557111002427472
Ni 8.121874853145508 6.814165413687118 0.30085096131189665 0.4403520671024867 0.020410959556184202 -0.116656863964812
Ni 7.363216311262425 7.8121771045840225 5.0184750426509295 -0.45535214005574487 0.5969615602008365 0.5296853035516813
Ni 6.084567081569775 8.68306658405507 13.857778686277973 0.2031130359765276 0.33960287550686674 -0.20566228476094256
Ni 6.53218506723808 9.055524384108729 9.951764219925455 0.14394269626395856 -0.90011210641794 0.5811472188763991
Ni 1.9750663216600064 1.746640848721258 9.171742997389849 0.8478328373982497 3.104294678218621 -1.6126848629278934
Ni 8.731213183982442 2.875627219897605 0.8330732377315929 -1.1291940556544036 -0.5708448085091266 -0.2508720485283615
Ni 1.2196583003721342 0.4474466619332297 6.538627765751155 -0.45703698395733544 -0.6036325444631088 -0.14179505379333646
Ni 8.80327102088086 1.7455110381440049 3.140089945953756 1.5226792830020228 0.08165412263738196 -0.4245089294226431
Ni 8.270676462615217 5.841379985187244 6.106376130007737 -0.7754974210586321 0.15068644274569534 -1.0169780010697647
Ni 8.147453023755126 7.595957290176583 11.411925853522023 -0.34414987144760084 -0.718658043472085 1.110269707946075
Ni 1.0811361150069432 1.0165239150274716 1.4716829232618198 0.12059630822853425 0.08226295986597446 0.1716710154171624
Ni 3.698759050623613 3.866480356891094 10.097469963198641 0.3684470534320687 0.04412218713019498 -1.485362034608803
Ni 2.62924516737448 3.4893644033918756 4.768538717180674 -0.13900720663555413 0.5068433659565013 1.309434815018448
Ni 3.2453994046446772 1.0164683505728525 5.641391474048261 -0.43325633659796997 -0.4701267272617581 -2.428045952950683
Ni 1.1480449791106673 3.754879149788813 2.8510362444317185 -0.21310999928823943 -2.1570545079646273 -0.20970663003364529
Ni 6.796116226678376 1.9051569770068557 3.951000374886313 -2.569414203619246 1.9300027017843149 2.458412223947366
Ni 2.8291845965785494 8.17963410372197 3.7649576157824574 0.23547628279858154 0.5103729763763145 -0.7121616371144638
Ni 0.8129950220550138 7.211830954652934 7.177524534296913 2.047887524618957 0.6456006613647784 -0.7846806302197971
P 5.797215504507567 1.802325692991942 8.815840626589925 -1.7912248375507474 1.362320093053254 2.0763858891689657
Ni 7.758909314089266 0.5688373998651364 11.98911088661942 0.5805566364802517 0.4326277018750356 0.7164512656287533
P 0.506339427383918 1.6709713222726035 12.678428693434956 -1.1126783173875676 0.06729811102602605 -0.41776235472742895
Ni 8.155361697795898 3.2490481371646593 7.722816496517243 0.47075716175690535 0.11447091205708672 0.19055422547491055
P 5.567502788370145 1.1981641171770139 5.929374633744637 0.45394420396462465 0.791228972861276 -1.0116997833899608
P 5.868671393147614 7.026504977013663 10.82486053431912 0.0199774715631914 -0.1295468325536027 0.26761995741066164
P 8.460549464790809 8.38068482201842 7.157450948991552 -1.3925151285793955 1.5295425857807592 -0.5524956165779775
Ni 4.3808127310719565 7.55948848646164 1.8673388831189142 -0.4190173101804526 0.9954020746712019 -1.0957018374342289
Ni 7.460028112693612 2.9483240480241424 11.842890246066766 0.5370533138809782 0.44273239440920525 -0.48313033861027765
Ni 4.018513965471141 1.760670873512558 0.9831769075878729 -1.9892830847121872 -1.2644896177663254 0.12337232831177464
Ni 5.441908599446311 4.701280723087095 11.470479675799535 0.8389429911077875 0.35858327326411144 0.30783895283170853
Ni 3.205365215091681 5.977679592367674 6.519205210639079 0.9361407179067233 1.1660711311864111 -1.777508002185287
Ni 8.442676231888361 7.24209506093542 9.23188225877249 0.29704083377494 1.11325861537107 -0.8725514231908521
Ni 3.196169297852235 7.544578691138872 12.87104472752024 -0.7290913229902669 0.292751719481283 0.39848602299632013
Ni 5.696412323086248 6.1102656418310675 5.957783813317094 0.19340275066729917 -1.490020873537053 0.2863373313145069
Ni 6.649324198317389 3.325264047417067 1.7874112672979563 -0.023537163889991723 0.6101528620801298 0.5624190463392765
Ni 1.4725784370554293 7.591891824246959 10.516939922231199 0.12345331806135514 -1.542146133477383 1.791876097981501
Ni 8.128746324033393 5.017627684717989 10.474623885741847 -0.20338043070530135 1.763735373881227 0.9563842986471076
Ni 1.0782282418818818 5.39627166071923 1.1260775719770417 -0.44761466220217105 -0.2044117001832931 -0.76647542006568
Ni 3.057424854668568 5.081073031150462 13.201708796957966 -0.02398787827416514 0.9395345740796206 -2.5264400140505647
Ni 5.10606777498658 5.313147236609192 1.5898342534894383 0.08878661991710517 0.2043268537789707 1.083315033734102
Ni 8.34346589816612 -0.25581504476894573 1.295875136698786 -0.6802077099156866 1.6642665916599275 -0.8387738125197747
Ni 5.299617291909462 6.593296706576554 13.169111909655726 0.46736484824590474 -0.24101752433178492 -0.8525099311589446
Ni 6.479556267971441 3.773428416889126 9.521382328079968 -1.2504130850686015 0.10268497516575219 -0.9913656998182991
Ni 1.6832695882282775 3.0103895438335764 0.5716517394915892 1.0088641137133787 -0.32385846818841646 -1.5424297261560724
Ni 5.141804980049039 6.918765499507403 3.942109136073028 -0.3305479643934501 -0.6526971632002436 -1.4348164604507676
Ni 9.171422575701545 1.169381729684367 8.372665019068409 0.6400979863789944 -1.3425413677644298 -2.818726363859655
Ni 1.0532705410155099 8.33467745359388 0.18126051170964588 -0.26601584614833546 -1.3990256760044035 -0.7063249758280288
Ni 0.10979628840140665 3.1344094065432055 10.250020321206643 1.1177588172342687 0.09118185962215909 -0.6206211086013055
Ni 7.057565507145689 4.752974187367647 13.23497060556715 -0.10734535675589901 0.03947620371775137 0.5406585147337335
Ni 0.057793515323475556 5.451975026474788 8.150772073844369 -0.5641470847739768 -3.059302172668331 2.648570756645755
Ni 1.3783318612791526 2.9772638681382095 6.969185611702937 -0.3714583294545667 -1.5001808447891904 0.5562070039912937
P 6.8313255694219555 5.0200076955241695 7.4554366365935945 -0.1199555893207418 0.4714354187708526 2.575821135586854
Ni 1.1739843186753083 5.061949598019085 6.229352307044773 -0.09908183119552615 -1.6426657255607 -0.5759227372526662
P 2.8583559352535293 9.096614298299485 1.4574519403596478 0.3066400474276009 -0.6465206020758865 0.0633165006704587
Ni 3.719058598044425 6.121100710481775 10.915767686372796 0.35070798428109284 1.3764832719275135 -0.08391335098520386
P 1.2163707368071761 1.7173398596521667 4.648016636889311 -1.2446985511823274 0.2725353924344081 1.0050149151706178
P 4.419772674502319 4.734267487645913 4.923136625341389 0.18427944820979233 -0.10134183087429645 -0.6525824919992502
P 3.0419316325723007 4.219027560706273 1.4618702405761026 1.6777455999829687 0.2022290907096775 3.2328030422053806
Ni 4.757715687495135 0.34332535649691126 3.868050052734081 1.090851194210147 0.5767676017514648 -1.0441321928870535
Ni 4.9205751039834515 3.572285091168311 13.668292783136227 -1.0802430796769977 2.4370239880795768 -0.9646061723362679
Ni 1.4117075770203042 6.7717049096157576 4.930794333262131 0.39368423073230263 2.1300427552624734 -0.2777655304850958
Ni 8.6776953534419 3.5087378765690374 5.129957712250023 0.7206735312402169 -0.8924029106991406 0.01502501265392251
Ni 6.778252254518364 0.4268257667498716 7.7133288658910475 0.45607282027185325 -0.6026614387990912 -2.142412075461104
Ni 6.80097811645754 4.529521733117299 3.916532817611898 -0.25201824631766273 1.0220698137703752 -0.38946222223115506
Ni 3.593501452090336 3.940871900883511 7.319529684892473 -0.10014678212493075 -1.66964251125986 0.19937233798717277
Ni 2.80408798457563 1.7295362574410396 3.2620761496243293 0.058396951881654266 -1.3902173336841541 -1.6101019326920656
Ni 3.49043864951451 0.47360455501937215 10.06244583530379 0.13370379214476974 1.0152743881150965 1.4096448462811466
Ni 2.3797607661351265 0.6328328343983372 12.497685857227511 0.9756503459655714 0.025629527642646182 -0.1458468552652069
Ni 8.075367404629398 7.344139181843231 2.78132785788944 -1.175450258408466 -2.249261980637823 0.4953744460849533
Ni 4.664960091251135 3.2241645222377793 3.2312952939138855 0.0038211735183030964 0.603832833399373 -0.16997974375766853
Ni 1.0061796657258992 7.196180299935245 2.367726431338893 0.9015547524017377 1.8840686582563615 0.6690678912487832
Ni 2.6014722008074114 6.2472135009820535 8.785344075672281 -1.249874438956312 0.4079584812631296 0.3217128826003234
Ni 4.963656077798058 8.345882951942047 5.765668785397624 0.10305521402097735 0.009967909845989284 1.6919218914833507
Ni 0.698522058723174 0.40963042019377544 10.328498630836288 -1.460020213409905 0.28669857130866755 2.874600035098824
Ni 6.384429921663697 3.469861279820603 6.141521573628504 -1.0407589055394462 -1.089323444711711 -1.5266719491011838
Ni 2.1287112994240047 2.8503824360157015 11.42442322544008 0.08371229071799131 -1.4106666026774413 1.3988937784122297
Ni 4.7283128302592425 5.673806850798747 8.402375332953193 2.4429483239838117 -0.23365799864292017 0.7681018999255094
Ni 4.05520502700456 1.4525104081955307 7.570727323482578 0.782155292694782 0.2076291786793263 2.7240819996101924
Ni 8.154148540536717 1.0520296015290185 5.647138690804353 -0.11548135559947208 0.18283577378473026 1.3255250357120913
Ni 1.4676424613367742 5.021026377192185 10.886870465673935 0.7411246000057171 1.3651017695634489 0.059774806065787375
Ni 7.724931650089741 1.8008069312323556 9.741595374626025 -1.954820275048627 -0.689753958843225 1.744428960243131
Ni 0.194699701133497 4.422050817141698 12.698136479414076 -0.6626239353956523 -0.18405164846970237 -0.47763049183797096
Ni 6.166737649208854 1.8895804082286602 13.402173310258187 2.086101059574201 -2.3390757562678623 -0.4149817066584982
P 7.692546833789295 5.138674849105502 1.7712679410826466 0.9823598967752629 1.2629865508582376 0.7046725278262702
Ni 4.86456613372749 8.872633981730258 11.647834006349465 0.34165718693273417 -0.5224257937757907 1.2893069339203214
P 1.7708947331624556 4.221898390861589 9.01808042421522 0.08993744569209673 -1.9436542311294784 -2.373903919690641
Ni 2.5536034231531346 5.553296809472551 3.31603479150485 1.8208773703098575 0.09014827615132216 -0.18167774892088712
P 7.283314625520289 -0.007843848843716857 3.1878809333715656 0.05659537989654124 -0.317925133423117 0.6825749245962824
P 3.042792881618895 8.077219553116699 6.659231340575959 -1.4241553811924956 1.517119015305426 0.7630242282922859
P 0.8801039181953664 6.488363234028555 12.3233403418952 -0.4331681477595379 1.1565878742863243 1.7407347992209956
Ni 4.9141574094749565 2.2862920927235155 11.602780494395883 -0.8407959851561262 -0.38966611071184504 -1.4405891012684868
