# total energy = -340869.40508930484 ev
CRYSTAL
PRIMVEC
9.27621846124845 0.00000000000000 0.00000000000000

0.00000000000000 9.27621846124845 0.00000000000000

0.00000000000000 0.00000000000000 13.57668337257155

PRIMCOORD
 96 1
Ni 9.184207415396445 1.8292702337648927 2.3475037896610385 0.37761843551869156 -0.1207875983037339 -1.1150735570926216
Ni 5.956955437971451 0.005995219838145286 6.719792664593373 0.2542373654561686 0.644028174671336 -3.3986517945138113
Ni 0.5952382262387038 1.553497542184789 12.427946015470882 -0.10694760709684809 -0.2946404518635635 -0.08756380325359758
Ni 1.4161631313790626 7.94019234181763 7.0971427285913045 0.2675402532126618 -0.8756686286635952 -2.3784447449837876
Ni 6.578712516868811 6.1489267741163 0.935784894433075 1.7126825210694696 0.7791617572840969 1.573972276849044
Ni 4.996403040880403 3.8347236802574565 3.7914241488316565 1.8657626608583222 -2.979532668648172 -0.20307369809815995
Ni 7.467930795817608 6.298116191812248 5.693341085617491 -0.48087959490288795 1.7613918133497148 2.286119258675489
Ni 8.040681613837787 5.1154354731302565 10.242303885221542 1.2531243133521774 -0.6714898704267145 -0.7588947795049447
Ni 5.348648875498832 8.846887015900368 12.630347531386754 1.9306742739300424 0.5627705161414244 -0.4624491561118423
Ni -0.05782052343358687 5.903663564274802 3.268599792536473 2.5854041512895987 0.7365359521937702 -1.0661539485737832
Ni 2.0248314663624156 2.9186321971138485 11.10259056715163 1.8214198730768887 1.3075113727434902 1.621217068768621
Ni 3.254347810857181 2.4587172975699163 2.0048959457773035 0.5415686852528285 -0.316191695671778 -0.30300527888849105
Ni 1.1994150163580155 0.6768745123404853 5.81836873770549 1.2367828958796763 -0.8416688746793827 -2.6925607890734597
Ni 8.27374659671478 7.726152882517979 13.063783466010392 -0.49703872116125364 0.33152806891853226 -0.4635591013465694
Ni 2.422215378858634 7.7886653171292455 4.485858542270098 -0.20668969758419242 -0.5258214497209008 0.18376908423227706
Ni 5.587984581895222 5.129572429703571 10.40199305432519 0.9267111970627072 0.5651264179681106 0.7715376650799357
Ni 4.452900138920368 0.17745219938070814 8.278246490175224 -2.8793002687879703 1.0414317632367547 1.1257073826573838
Ni 7.1060284180280355 0.1383473738357828 1.252247717252579 0.31485112248348357 -0.6215798729701488 -0.8938429855797767
Ni 5.061661236085961 6.0435303826556686 12.73790157120628 -0.5485543725420424 -0.4486909259854853 -0.03748925519470963
Ni 4.849421363121758 1.44030912741603 11.227794467385884 0.08614866807362583 -0.3258413029464002 -0.7597347589077367
Ni 7.7419502821533825 3.7308485885855536 2.8086895311016526 -0.49634195220454513 0.034911467165204386 0.5480728049199336
Ni 3.5260760712916386 9.569161195472557 6.108054828999711 0.1516071547877518 -0.8209259857050766 0.5642141905664863
Ni 3.2233095846798108 8.747844833923146 11.966623913622376 -1.1399425524201594 -0.29320963295430796 -0.013720949130518306
Ni 9.257879140531134 6.41613751627569 7.973884494028875 -1.5944611408310152 -2.016740923812824 -0.26492852662142763
P 0.3062747523441289 7.945683863006215 10.77001588089893 0.27317945377631014 0.12193456742398355 0.8066946725970431
P 7.896445696673435 0.784405361614451 7.614442169312297 1.785971045350976 0.8180126687130234 -0.43989955294610045
P 5.412042550841374 7.354278570137651 5.038741556098201 0.4507856037309849 0.7231070803823739 0.34465920698385155
P 5.15749384655769 8.699562118067435 10.177679255720681 -0.07822787056465237 0.09469835741584981 1.940314625233284
P 1.0882951982531996 2.138539349351716 4.203965401905825 2.3939168724774578 1.2059895646479037 -0.6361649698731753
P 3.7763113341011807 2.6640463879572684 9.780071786365266 -0.7002188629302909 0.5241931700888585 0.5636071531101067
P 7.470555965574988 1.134064058970218 12.904392991133555 -0.5819938831474106 -0.2252440635476121 0.42565281321909915
P 0.0029071667913890334 4.373477158486823 1.4691600213361902 1.2617261960885755 1.2715254415671844 0.07996053698504295
Ni 6.300518732332254 1.7338179482403455 2.8202161598667455 -0.6270750917567651 1.123000782359498 -1.3127263412855263
Ni 5.425242609374069 7.388591301348079 2.780056628309756 -1.8400439159359796 -0.9300888552856884 -1.0113719677368969
Ni 8.44498558512908 3.0092051918525926 0.12748863278281533 0.27708033149261313 -3.6605430769708116 0.9467007528107567
Ni 7.57494124924921 2.7006132401961183 6.546703998265215 -0.278853621342952 0.962633107770297 0.19222132876468828
Ni 1.3225475370628592 6.038836616234344 9.93528054206674 0.1137360907735912 -0.06569914197002233 -0.037635550964586796
Ni 1.2814446141124929 1.1561321821250186 9.987537189809595 -0.4897280464324534 -1.2701717557527674 -1.102192073144263
Ni 4.768922341374234 7.175015652959625 8.770183822650086 -0.5090084919286202 -1.797748497601878 0.7568479242782449
Ni 5.652751137534909 4.546858953310858 6.84438618966849 0.22231557704690744 2.121983632403423 -0.8101705469607854
Ni 8.434837402392068 8.951559862339531 5.90058942555538 -1.6466614769836543 -0.08152556747931766 0.5531432774643054
Ni 7.15277128165857 7.484702198366527 10.366449368956443 -0.22421587939341384 0.3445350227011615 -0.28102620351423857
Ni 5.511632029693808 3.477839736527047 8.848738549057868 1.1486408515251059 -1.961694376460641 -0.17576601142214243
Ni 3.56833852152 4.848289664498434 9.004721868981045 -0.5579273291165101 -0.30395504439627 0.5064687562259019
Ni 2.0477251729391486 0.4286902213802606 3.1368385336397018 0.9709645104541278 0.33075416686698517 -1.9691747439980862
Ni 2.3855279357828727 4.245873500598031 3.6552232918928977 -1.0666136618190212 -1.373679741040447 0.4426676026095409
Ni 3.4081753376651083 1.7874530420112817 4.415802686999108 -1.1686273219493615 3.6367457174408977 0.8201921928628456
Ni 6.872137851729111 2.784442424286044 11.25921116326679 0.5834193027400275 0.0011809076819786115 0.07770130863722101
Ni 1.8706143383890823 5.72602398528597 5.867000239366422 0.2121617764423572 -0.38941619948456807 0.4393189978522821
Ni 2.900858962996741 7.441233839769051 1.0113721586310123 0.026484933664405998 -0.6242962434600474 -0.015846480113953353
Ni 3.259839332045765 1.5832278215925804 13.012965559714074 -0.6536183894629324 -0.17045205540839675 0.9910070309272998
Ni 1.1535904983316536 8.669896772187213 -0.05753017780317692 0.44021631285557083 0.12276580507602727 -0.5555241189916561
Ni 3.7833427075149424 6.5469600218881965 10.869058062876151 -1.0193151338433735 -0.3407076785352713 0.4569727063783033
Ni 8.370664524718714 1.8095118889478583 4.5483385101175795 -1.1235507413256973 -0.40069794304597445 -0.18458489526535307
Ni 6.502378517103844 0.8810793250790939 8.991755571147594 -0.9043950500640101 0.7248795989017645 2.902573380383298
Ni 2.5947252091696162 8.211308371849306 9.7756869180108 -0.9938151898000561 0.6806000602580988 -1.3162672645592493
P 9.196618995380105 3.2860075436555563 10.983549786305375 -1.0988789496106302 -0.12706417534106507 -0.37392530293782056
P 6.816128046092841 5.596852646517327 8.406872387312296 -0.07582028956442427 -0.6414385595672889 0.8403239306157141
P 5.068998724701113 7.617287185441586 0.7051771817636094 -0.5712145331437195 -0.6476526587978008 -0.4076386360298657
P 0.5161538277703337 4.26140188990494 7.181264113555286 -0.3000971041027606 0.3995646007724796 -0.9877232179697053
P 2.578974190625332 6.530457629667771 8.127749125709698 -0.6365838025781488 -0.6543218432878602 1.9480821849938452
P 6.2274499613821215 1.308215779906841 4.845110704513084 -0.6082787849858685 -0.30776516217097966 1.1412720698648604
P 1.5077472339042186 1.2125315889266948 0.9354602267952364 1.0095151170338161 0.16056462109135572 0.5569312837518279
P 7.930906847375446 7.515898120253704 2.3259300889375747 1.206304267674845 -0.041636958814496035 -1.9095470050331245
Ni 3.925009112231258 6.79312302489742 6.59959884982188 1.0931754714679496 0.32039339245795145 -2.133394702453842
Ni 8.064150445944406 2.830749305660052 8.92005689762914 -0.29312041567461133 -0.21872348882027493 0.8388046657577102
Ni 9.259854975012837 8.909102611528466 3.606021302811192 -0.7183058023389888 -1.1704144957567713 0.22061864896045874
Ni 8.088444861472958 0.41719234889166223 11.042242274252015 0.6948578557286936 -0.3180680867588845 -0.7781659690297308
Ni 3.1434691744261882 2.691680242046445 7.7022425024239 -0.11905621743492399 -0.5021505884665223 -0.41985780380387694
Ni 9.173743841239817 4.706845889019495 5.138095419007746 -0.5714104512046095 -2.040335166192996 0.8253385129504753
Ni 0.6967441717762075 2.05065645789792 7.371202102665443 -1.330561055474102 0.5267917840539702 1.317690884379653
Ni 4.1651611258313554 3.6081427739190115 12.141098446953192 0.9976942131394881 0.6211458707565237 -0.3753800331064761
Ni 4.409858486361194 0.13631402680109078 1.5281372891823048 -0.41681721720534026 1.022123549826446 -0.2154659011149257
Ni 4.142146828417712 5.737841887303294 4.151138266742196 -0.8000792241630543 2.8630948626727015 2.2503287313394407
Ni 5.566612175107219 1.998830226680656 0.32072895558070325 0.2049711722311889 0.34556140708314675 -0.6333447268155609
Ni 6.788141695711154 7.632138410818146 7.91259930308864 2.340279803878292 -0.015758805496153504 -0.3501009468247132
Ni 1.7082155859422163 3.4068024573679616 0.3377461779125577 -0.4017302409652307 -0.45651093625053635 0.2004393457991064
Ni 9.241747797039668 8.680072783578895 8.732808084182109 -0.6537358888774031 0.8560919920832483 0.5450288758872871
Ni 4.434616712800944 5.365976851141189 1.8543716802789283 -1.4570040522914005 0.10378000800214385 -1.4208754248896431
Ni 0.11393051222667552 4.776083581843132 12.674607151398734 -0.12133447194613942 1.2701609571194898 -1.06606781661788
Ni 6.907702872399773 4.343978784534631 13.246185455435404 -2.6703528855178527 0.021914540684904196 -1.0304855486378963
Ni 1.5711501854649845 6.576143004420775 12.269153856669494 0.6451962268375082 1.1052187757857288 0.32367643408459734
Ni 0.5512207155223693 6.551431159072146 0.9763006327698647 -0.3913082743009583 -0.3135897392725567 0.5406047786776624
Ni 1.0664960854268941 3.652733554921587 9.066576619720232 0.8057922153874316 0.7185832243700916 0.9285528782571364
Ni 6.792482965839967 8.830245480406582 3.553167266614713 1.7479788823779188 1.5122035802816793 2.5156406094422157
Ni 7.0078860292185405 5.912058541767485 3.544940188671883 -2.2173036825636716 -0.25950632716459177 -1.4395128374851724
Ni 5.057728119559002 2.464848877815953 6.217672827374068 -0.36371905182878006 -1.360217187777638 -0.157933868336728
Ni 4.487073726857436 9.29310094112751 3.85629367049363 0.6754653101346948 -1.1800854431876322 0.6556300205763225
P 2.154262539241328 0.37344013801653303 7.911024201234211 0.9202417872882795 2.409435022717715 1.3701843262926792
P 2.4506933688061907 6.2445182029142074 2.8177728039865544 -0.7823938910681494 0.9105664689820447 -0.2556959522795661
P 0.14971445164742325 7.269493935570657 5.25812689996032 1.629325299698052 -1.7496274737249353 -0.8922149630580505
P 6.947479296144113 4.325602596232966 4.992377162171204 -0.06666279143487228 -1.4211965556744879 0.6989384535559705
P 2.8754606774995386 5.006681090672551 13.127905324483516 0.42647556623071065 1.2861231368757011 -0.38091124733735043
P 3.561251490796894 4.027576257133583 5.639469448281844 -0.5505562334634195 0.1711817344855697 0.22883280934013495
P 7.274734998867195 6.072926718207397 11.99376427290204 -0.5754519682638347 -0.26690441940087584 0.997669787659456
P 5.782033790922239 3.7196614694074577 1.707308371799913 0.3218162409474071 -0.755758547868808 -0.8901637369559765
