# total energy = -340891.5499411179 ev
CRYSTAL
PRIMVEC
9.08609197405699 0.00000000000000 0.00000000000000

0.00000000000000 9.08609197405699 0.00000000000000

0.00000000000000 0.00000000000000 13.29841404028448

PRIMCOORD
 96 1
Ni 6.577285513637566 1.7692074377469518 11.508779973528041 -0.4267550451443424 1.511758265214145 -0.38708549446886237
Ni 4.651633748443835 0.28205591120916373 5.932315652284308 -0.38633036147039274 0.2750111076684102 0.39417351166389536
Ni 2.7166233087658327 1.6122724613466284 4.6203076299783765 0.013819936602227812 -0.8149887942850351 0.974875929693392
Ni 3.3097542909587867 4.070750817906024 4.868934901095227 -0.09245506990762788 0.28558168409540496 -0.47318094070704964
Ni 5.052984592443087 4.681508818059645 2.547257650266547 1.4001276508193305 0.10277470666608106 -0.1337791254673954
Ni 7.523502020547783 6.335613645741792 2.6618768802511923 0.256183690549262 -0.6913531850095449 -0.6601009118634825
Ni 4.7180439929152325 4.662209959220235 11.41079737750524 1.2559458419613725 0.21088316684024974 0.023517109285333695
Ni 5.72654565865038 7.7726790002144375 12.438285340524207 -0.7776142102913188 0.735461745292985 1.0337235959592197
Ni 2.0247991981766122 6.550436112568613 0.5106301778728236 -0.6375628786619665 -0.16484807895805803 -0.4023390781938232
Ni 2.909639155435128 1.3356554846484208 0.4546862024678659 -0.7669472174957759 1.3338677512498318 0.40144741961748925
Ni 0.41473920016679927 9.440721892613936 4.878696089443239 0.37360082971886627 -0.4696611004792492 0.3795061394597077
Ni 8.678962133961187 2.359285493117852 1.4782380705483995 -0.27864998997257817 -0.018537396682555173 -0.1514246064633005
Ni 6.715630346353598 0.8654756785586334 4.814849940058698 1.7477523681894094 -0.7361723982067644 0.9291262342621031
Ni 0.7928087513203735 7.367902699632109 2.567311563328911 0.26826324742161545 -0.15722810051895503 0.13681945495561598
Ni 7.552750149834063 3.943590964112455 3.577978444723867 0.992856939651845 -0.2698185077238773 0.5951144796897686
Ni 7.828149590240143 3.835348353305539 12.729108421645869 0.5443804436700108 -0.20417413025119027 -0.4054156602366179
Ni 8.21112835675668 8.809038623200825 7.10697831196476 -1.4104352033929257 1.7991466635009856 -0.907578075777682
Ni 7.030708749354642 0.7523229437795813 0.29197610616249126 -0.9166101040729634 -0.7747654279886141 1.5113499740321328
Ni 1.9338292477528027 6.422858298555358 9.273754962331978 -1.21282432818155 1.3058193297530478 -0.8610727331272912
Ni 9.532309697275544 4.653578172074547 1.4527852017787017 -1.7232836936240838 1.0983706425156439 -0.41975855922185124
Ni 6.149112526844557 2.2971002813019763 6.926572143401553 0.41701827747255277 -0.8422486584422526 0.29797414422248686
Ni 3.507358613952895 4.231002217788638 0.3840927213629173 0.2907017789307897 0.16298274361454512 0.012457509037062416
Ni 6.155218380488664 5.792601545544216 4.5511161328277225 -0.35726121201857824 -0.38561456635029073 1.5914786611639236
Ni 4.938481664432615 2.821776648383766 9.581267376747535 0.7290995505203831 0.6168631842207699 -0.03854109349799169
P 0.2605772989631746 5.471444547174264 12.476039868890268 0.42048386742365 1.4273358358030064 0.9510965678856073
P 4.03947649016344 6.214523301225401 12.872717735911598 -0.2773158445421869 -0.29231411772323207 -0.6649921785175128
P 2.4120302556238666 8.608944711072066 1.733674458809438 1.442225094210013 -1.7937764003280074 -1.2003444505469845
P 6.669091384500747 7.80141830836371 5.814305492865167 -1.0922120791134156 0.35411238197695144 -0.6032682191451546
P 4.849192640979282 0.9622080283590688 12.716315204486788 0.548007756009953 -0.23115760081856962 0.7750281947316975
P 4.000388123531076 6.287584564844843 8.246704948934509 -0.12752774524104488 -0.006115883089750757 -0.6735758064214658
P 4.6586482112611725 1.0887045974561798 3.8066444809140236 0.42278551897363315 -1.1505699502270186 -0.4043067434431553
P 0.32885200945803966 5.526715243181859 3.7155900298371036 -0.25131607804431555 -0.5200655210737302 -0.5420083438934085
Ni 1.188088268824101 0.961880929056706 2.5459946835157568 0.38630105089435407 1.3698971340695634 0.7361495153886289
Ni 1.9401713397819498 6.440494402607756 4.927873652335152 -0.49485122659163167 0.09829584495912104 -0.9222256504875278
Ni 5.873894808273125 5.368044823260665 8.81503998679001 -1.1546299792290051 0.4623002892388038 2.5034448387069728
Ni 8.668858399954868 2.5523467702458094 10.309634839674901 0.004398900398644037 -1.2301864736090815 0.11995378954852888
Ni 2.36685420753086 5.2724591382368455 6.986667554119 -1.258696408123316 -0.2686946785320792 0.7727211438650756
Ni 0.653254559794771 -0.10113456124473591 9.117219773967879 0.141262321218318 -0.5366491364640242 0.8101612909894047
Ni 1.4936171894144943 1.3168836191294846 11.515269260243251 -0.09779859360772834 -2.0645683277087477 0.25725481212625373
Ni 4.084970551467077 6.766139930293467 1.883347830697305 0.5175957193769989 0.26763101315425525 -0.5913113038935945
Ni 5.830672269902563 8.031723475502373 7.8238028039554095 -1.0222096817823494 0.10993728585279132 0.4740440600382933
Ni 5.504063616493228 2.9074221490524463 4.58297923931456 -0.47550290397200684 1.4413177519043952 0.1268471742342525
Ni 0.7355827283719878 7.3280601873859625 6.95080111561491 1.5894729435878043 -0.4418669610851164 -0.07372124094355045
Ni 4.612345487793361 4.658611866894243 6.764544412585274 2.8852143202795597 1.4652981739793924 -0.40712210140476335
Ni 7.902264840500531 7.37927848648095 8.952771508314113 0.47836608445241485 -0.5168889231179614 0.9068681941948511
Ni 4.476944548798594 0.5353443473846856 10.60927506421359 1.1640242759597115 -1.46022641588344 -0.3895375555537807
Ni 8.521572852974248 7.293605727537074 4.811765211915582 -0.3413599674072895 -0.5285851285089671 -0.027315142875185217
Ni 7.1555516497564735 5.928593080501584 7.021907960902734 0.7597833527574851 0.9897513041433276 -0.9792930849244812
Ni 2.3886517415966533 5.054038579084034 2.615426053488144 0.7471378960793327 0.6518024193001162 1.1298568860493832
Ni 2.2629184042050556 5.50793429157119 11.419853485134825 0.6176000623867944 -1.1392774080323347 1.3614076085413134
Ni 1.0915485441683905 3.256882323168521 3.9787259722320942 -0.9404586285557868 0.5606359862969248 -1.252189974463366
Ni 3.8532570401099067 2.758055887065131 2.6219952978105985 -0.12404595734003153 -0.8786536794338481 -0.21810333873777277
Ni 1.0439283373993946 3.4520152292114425 8.30375561031246 -0.1385462078387356 0.11861630168402797 0.19829118910785204
Ni 3.541731298976194 2.8654171469740133 7.303183376832092 -1.4079296633622527 -1.0496574935806569 0.3079227707947665
Ni 3.829624115514189 7.102797801158728 6.158987291339224 1.3358351593888478 -0.9596179750930571 -0.6910271691286938
Ni 0.8803477935060656 7.375952976906928 11.300234178869895 -1.2816311625426184 0.7107146202552922 0.49248426902135184
P 0.014274250111446729 5.7121078588877525 8.123681992706656 0.6487782877618117 -1.5134294822689807 0.6497154548641004
P 8.6609353279643 1.546925289607911 8.169016138795806 -0.562418017898012 1.362338862106331 0.38954372620136785
P 1.8089136586171126 3.1639770352057304 10.560576338355968 0.5538647290113623 1.3050968497647266 -1.4024753251159008
P 4.00490391112203 6.006306423087964 4.03628091170119 0.09374550658427726 0.3916430319325578 -0.01603905574073367
P 6.837656558318417 4.006911937394869 10.745676381908082 -1.0051550402929077 0.14949036555506512 -1.469511954950424
P 6.354403683444192 8.073655788846947 10.270763630634939 -0.7205642593558623 0.49993558309307456 -0.4415188337170783
P 2.311429047963817 8.625472311933123 5.7233446285330905 -0.16413896870617536 0.23649958185677336 0.5766745278170262
P 7.016834287279416 3.8793886399320074 1.5202748739478957 -0.13504153711958677 1.0324303310690928 0.4158677088078773
Ni 5.638128900003348 2.9612390703828724 0.2686321192838605 -1.303081876217227 -0.8018460862554899 -0.2602969413866872
Ni 1.513870087885796 1.162883450358695 7.135304202940211 0.05675864494728289 0.15751092186669646 -0.7539798587018306
Ni 6.696104335220881 1.0830439623069557 9.237144372915015 0.36978299863467284 -0.8204932690430321 -0.7346140525807091
Ni 2.6990962378142216 1.3580254424933489 9.340207002825343 -0.05649099310819304 1.3580574611221579 -0.7897179355333883
Ni 6.395545506808058 1.49829652665663 2.516817425744988 -0.24655182388645283 1.7372090454559244 -0.20861931050673746
Ni 4.2986754290108244 6.951723353925739 10.3958091508824 0.0980086527360054 0.41258903805660563 -0.11242225705817413
Ni 8.185369286695604 7.317593009710351 0.028151438014191853 0.545562379793254 -1.3815588866782076 1.8613761017548525
Ni 7.532615370555281 3.835793571800422 8.43272359636076 0.9215954731026966 -1.0203438322182041 -0.30298033918782663
Ni 3.3188494687828216 8.25738564976583 12.445227114607686 -0.6755550416350237 0.49977668891770693 0.49494610029828306
Ni 8.992196060340573 4.8965402649963075 10.359437525677995 0.27793239508026324 0.6935494213299152 -0.4818288461900347
Ni 8.497476537700184 2.4321377766274512 5.930693784910092 -0.13566682940841152 -0.21915954791642903 0.6012581306936613
Ni 3.6856186476489317 2.5400169437650755 11.731979816932043 -0.2968919669019016 0.7972803212616785 -0.21019565385492187
Ni 1.2932143501668376 3.4098648496652926 12.75957499583345 -0.2820201919963917 0.009096562984629495 0.02134658399657614
Ni 3.088044566598881 8.329583734670702 8.061923827202198 0.31551395287846307 0.8684417718978528 0.24662612876781398
Ni 5.746943934589399 8.041790865141763 3.7033019993783376 0.19133558372562534 -0.02985179325410988 -0.6763806228601126
Ni 3.300041258896956 8.248590312968961 3.710536345615597 -0.4062651527211068 0.44602597755881246 0.725954320023182
Ni 3.2566915152421423 4.5738113727566665 9.463310825269613 0.5146870303706361 -1.4179934753561578 -0.6015761761547124
Ni 7.229566953007807 6.356584345459946 11.336831139149261 0.34270928234633236 -1.6811471694653497 -0.981192358829723
Ni 0.9501416985385716 8.948355667732214 0.21920741469682956 -1.2971140886695662 -0.12530399811684872 -0.5049440920512593
Ni 4.594309595704741 0.06769774366986388 1.528453265116141 1.011283778898465 -0.23042329375570636 0.15443254005168885
Ni 6.0626856222868994 5.499375193159361 0.16129902625934803 0.0762468355788816 0.4545864655343139 0.9349446407160932
Ni 7.852672951825626 8.788876585646847 11.699199923789417 1.3687123697328427 0.7091706728069399 -2.227631032631609
Ni 9.192671588322089 4.741885897620793 5.848070318351575 -0.461174917385109 1.162153798409876 0.34766868323413674
Ni 8.043162864993342 -0.18734703403751196 2.4497402621404403 0.14489040488920854 -0.3182521777452325 0.18296767137690423
P 8.453281787514266 1.818245074826187 3.7102037946581947 -1.0090934561153653 -0.6678167924505015 -0.5452854719827835
P 2.0193566292289633 3.1287866019265245 1.620012902893377 -0.8680350233777374 -0.9193755826332425 -0.11583771049762631
P 4.737479143130625 1.2402424353675157 8.051178615119579 -1.1682336860553688 -2.038490913895405 1.1032084302239193
P 8.701531985824225 1.6762930636924296 12.543077053691196 -0.05130019293587294 -0.38217751564428376 0.09344571595567132
P 6.430754112270728 7.692903114804825 1.384922999848483 -0.30039689473136655 0.41116233291240806 0.019358864142586016
P 1.6578846418427855 3.1981225679357226 6.09569993659622 0.6920779789907113 -0.4107992931460344 0.3451631432034636
P 6.782340431852162 4.071632168804057 6.079569397943863 0.5665333256179663 0.7178674292499896 -1.1630601122742292
P 2.4728979841385588 8.545396585496345 10.42477288549746 0.07768613912856942 -0.30133406183365524 -0.8888689294039529
