# total energy = -340862.57384363347 ev
CRYSTAL
PRIMVEC
9.37936954065835 0.00000000000000 0.00000000000000

0.00000000000000 9.37936954065835 0.00000000000000

0.00000000000000 0.00000000000000 13.72765540395836

PRIMCOORD
 96 1
Ni 3.870800210865324 4.667230628403803 5.062993132002028 0.7341198865531099 -0.5349601787973755 2.2712775656769657
Ni 7.280670057603913 8.544521363086877 1.178372419914948 0.5192162856995575 -0.8513634762593273 -1.329075214957195
Ni -0.046591080942619365 -0.128119376001912 11.152539516612624 1.3413326921683093 1.9349150514842677 0.41158527938243955
Ni 8.463127193013992 3.930115344714244 0.9945855469322129 -1.6105788723284844 0.18266016743881444 2.3050914289026174
Ni 7.190403003814856 4.663094326375439 3.8372502055241497 -0.3745246270847163 -0.7427873324201207 0.3379648256828115
Ni 4.295197930093017 2.6024186698274856 8.987400192329735 1.405508969735902 -0.7704583159728279 1.0908337107086505
Ni 1.5702377954116193 6.484014535193143 1.9331012219243808 1.1532870920478655 0.43886416970305064 -0.4470413061972042
Ni 3.3654491519396514 6.9768066181188635 11.055567151440169 -1.5964807423642051 0.04444511768725249 -1.4799236372020512
Ni 1.392489360628115 0.7521157096169111 13.640553324782582 0.6212335453743236 -0.4086357098358123 -1.4711667169450275
Ni 4.444367425465127 4.531276664909164 10.452278590202091 -0.4652215766506569 0.7280050319046236 0.06295217535250448
Ni 7.020767723803538 9.263375014011753 10.94667923502773 -0.9532583514236164 0.41028584384472566 -0.38053252384169306
Ni 0.3490082216231942 5.661443814359766 13.325476848846492 -0.027552198586655773 1.7127997633736245 0.5717544648075895
Ni 5.513662465700123 7.3948076072255935 11.163302343319081 1.7799564637257796 -0.6156789341046817 -0.13581029696481126
Ni 3.455416065898987 2.74153348090389 0.07330821547276617 0.10590116811020471 0.3986888830357456 1.3590781890771886
Ni 2.564657327500517 1.20232264038984 9.824649626710482 -1.1292449634969972 -0.27728190598045793 0.7145879871677694
Ni 1.521024242706799 2.38588654142202 1.557430266115177 -0.487550064944528 0.4507334103368108 1.0782486749547884
Ni 8.983363311619968 2.3263931995492024 10.1670453927101 -0.19597205405637216 0.06438685091650201 -0.08974178474152286
Ni 1.6557776468825474 8.536942832386382 3.270805684258451 -0.189711417858641 0.9839326405790215 0.5615824093705941
Ni 0.8156918911109234 7.274676640379141 11.710829613879548 0.8021461339944121 -0.8173408394569793 -1.2788116908159524
Ni 6.838554709052912 1.5373724840569996 1.4913310341775596 0.9760450103008287 -0.1717995705752267 0.049375979329966575
Ni 6.6054586137946325 5.156946278074867 10.879908440221108 0.6899768734873085 0.306752147525433 0.1989725314455928
Ni 4.458821034140203 0.13908948677827138 11.123985901499362 0.4552315553174805 -0.4383921151626386 -0.28483632128894815
Ni 0.20926593071527627 7.999655019704294 0.3802199501034363 0.2712524119569264 0.2407110488349596 -0.2289863041988637
Ni 1.7057227904223162 0.3172262274664793 6.268404398827107 0.576372166085259 0.20255279259768338 -1.9919452049253823
P 2.1839580916064922 8.56326134370518 1.2541586648568608 0.6036433430963862 0.1112392924936665 -0.7188938136319748
P 1.0237300623352408 1.4203554679439185 4.001350719487989 0.5706987698495655 -2.0163218339975337 -0.11186767010628476
P 1.3289816485327581 4.447837792246294 1.2972456132874695 0.10088597428380044 0.9382050566349197 -0.13482093646834845
P 1.4843321485232168 2.6368784740275064 11.31499301326086 0.17093953656777658 -0.8259131545070226 -0.0036339972081614836
P 8.731077025998802 0.4748681074694761 7.941929689015936 -1.5320707515192518 0.2736113991074062 0.7934131249967884
P 8.981815715622961 1.8391068066249556 0.6800380674460074 -0.7298665105933946 -0.6144823426934192 0.0917683282532484
P 8.891314177591932 7.474363420841429 2.4378942083541637 -0.6129067706761832 0.09431526304481821 -0.9855076983756254
P 5.925538726406577 1.9336039561391662 10.816376341764588 0.5636940563969582 0.471882019389968 -0.6761132281313388
Ni 3.048295145619699 8.927734270054827 8.123312629549988 -0.15519410080806176 0.20637293767472198 -0.10931507888776011
Ni 5.802547051808083 1.8901118189384323 13.087054209547606 -0.8734916756169343 -0.6813500510502459 -0.13642273373782957
Ni 7.915672143600051 4.832166844206025 6.4080557098491395 -0.2757796104033186 1.4026198211135652 -0.6850915203705492
Ni 7.335248609765025 0.43976206469858387 6.080953006110853 0.8316521138733289 -0.6232991696541007 1.1695943138483211
Ni 0.2839576032156699 8.148627548313149 9.233647101814704 -0.2827928084963582 -0.587711245247162 -0.9502866703898023
Ni 7.922875499513394 7.48172622603931 12.400795744130598 -1.1660780731649465 -0.5903142300876478 -0.018541767557929356
Ni 6.127739177942792 3.707496005387218 2.040959283546085 -0.03678657270073019 1.6627200731084137 0.027622646813275007
Ni 6.832373704434562 1.909574011022004 4.203930097559227 -0.36850336059130084 0.504275348119009 -0.2801468862330788
Ni -0.013226787121085843 8.296211930209536 6.5874352170197925 -0.5462272670707625 0.9290408736371484 -0.2744053557636113
Ni 6.342517364218317 6.885714179798067 2.850382941900646 0.7676984938395036 -1.2298373177997786 -0.07767071250960171
Ni 3.4359820119244513 6.633033960650391 7.404793822122644 -0.6201251428014932 -2.1052370090727033 -1.2319445939507687
Ni 0.43352947354700144 6.284018235531454 7.459237311360379 -0.28151137068077325 -1.4794461833450003 0.5805098424027163
Ni 5.712533241000352 4.282057433172977 13.426800303612955 -0.6750727026819663 1.0363147537251636 -0.5091321619906781
Ni 9.144425847744834 5.406278062247201 2.8879970281236576 0.8323331991007537 -2.339693592357519 -1.7990507613530693
Ni 3.5528677168620293 8.6459686255331 4.5923260442117 1.3000682862018835 0.7009670539502251 1.031623004676449
Ni 2.6412398809281625 7.152407177245916 13.288878548359698 -0.2594919289868886 0.2378776931512226 0.6644972411589652
Ni 3.494227897629985 3.9214863246097207 7.320162831573594 0.48907858577391256 0.28609153385228797 -0.1580325986981214
Ni 8.941596978440138 8.473341326594237 4.238537157863206 -0.0015904844155714543 3.3968749051190463 1.797270529524195
Ni 8.912577208653838 0.4660730725216374 2.44462109228782 0.44184819203203907 1.4021909611062626 -0.5590940957311016
Ni 0.36387264669020375 3.5068150117389747 13.008339725391961 2.229330531821219 -3.116438769780323 -1.8465202676889423
Ni 6.3872569575863345 8.668713597004263 8.664594177841321 0.8934660618563321 -0.821288768361134 0.22151133597805722
Ni 3.979976073926904 7.499246888599364 2.342981552763181 -0.49043407136054246 -0.6959585449920401 1.5864770941842743
Ni 8.447548059977455 6.474963443453072 4.593657914706093 -1.3653442245915584 -0.7274329614512376 2.9491622838864306
Ni 3.0818357715911944 1.408696911433133 3.052124742259565 -0.6228060320677661 -2.026539140850168 -1.1022926032778693
P 3.859723175274626 5.324236715666475 12.469982664566485 1.391746368734171 0.11400168573015206 1.027016102032057
P 4.526530703851677 7.582826451807417 8.8704957286528 1.5530635517208349 -0.1013145771807868 2.6787745339226445
P 0.7010441037787146 4.8777224427361014 4.933005385560093 -0.1251772427309973 -0.3189677157550184 0.4844714260192043
P 2.907060596995879 1.7197543274618456 7.387922211944366 1.3432427647068284 0.9156940200165972 0.35936077486008433
P 4.664416817500154 5.613280751058975 3.421275160268046 1.156495314572518 1.1178927717089715 -1.640466403916536
P 5.550851666476683 0.12513392263314047 5.014959504002805 -0.8176992512376627 0.858904521831379 -1.0335096801762005
P 5.792023399028435 8.978429763168904 13.311474387852966 0.8829579632361568 -0.2721715813370861 -1.5227934399823837
P 8.542223417515565 4.015064295895407 8.338343120869872 -0.2770955010012647 -0.4477432173602353 1.182454457640441
Ni 4.957146945176433 1.1434764750248614 7.097266800841043 0.2770726181831293 0.997500094850811 -0.4448597251648532
Ni 3.9229964031280127 2.3685628456252212 11.605785363161495 -0.98182613575898 1.070880407515175 -0.9730525033314079
Ni 1.1263403666216394 3.9753614240449195 7.318433275804818 -0.33438045076566286 1.3737224213529244 -1.5532137041454541
Ni 9.03343976633524 2.930471503714238 4.23470756122334 -0.290026607240636 1.2900669520147976 -0.3102370207502399
Ni 5.480534531994496 6.865229636419503 0.3448306503682434 2.157727622772252 1.3268735793201858 -1.0289526569331378
Ni 3.555953529486364 3.7814054384563973 2.921368825440934 0.7880269209842106 0.3777554753171881 -2.7698100977749265
Ni 0.9064457341863131 1.8658942864276935 7.923053707537291 -0.33646510120883344 -0.7008783508911607 1.4892616267735255
Ni 4.350217312629033 2.182598083003062 4.664108236237721 1.7555348403483055 0.3008861756629593 1.8717759569319379
Ni 2.210220326707216 3.232055756367333 4.552351170640527 -2.761195102412406 -0.7998876769775386 1.552933968121506
Ni 5.170499467260775 8.296483931930222 6.735323490493774 0.05851110886201536 -1.3136282842745053 -0.6024143557852916
Ni 6.299897508397714 3.7748211209418585 7.942766328791287 -0.6122516535906875 -0.7573307774519344 -0.7289725380242155
Ni 9.169356212351163 5.001511363757298 10.606576724914586 0.23346593723677211 -0.8030827868760686 -0.4759461621570126
Ni 2.048163577396394 4.716856873374492 11.548472724739003 0.0487026074120258 1.3672383562904775 1.4926685955725454
Ni 7.575857580136046 3.3928931876199075 12.093035176543994 -0.3243618901873962 -0.49885880508912794 -0.32089192936092475
Ni 8.42322735440025 2.623512872235174 6.536794124249854 -0.28920256867744387 -1.7840591730402435 0.5981332119114343
Ni 5.753924399393028 6.257324549425505 5.542939230215623 0.6040680893386307 -0.5533209406927503 -0.29587175316750336
Ni 2.1281602213871333 3.726339159071987 9.561352899023339 0.03130009566486222 -0.5287075130194443 -2.1888536547530952
Ni 6.781002896703612 1.5951494012785914 8.698460267940673 0.6718498248692945 -0.18460417853906272 0.7677375746075552
Ni 8.013452072501853 1.0049713229775812 12.719674616534487 0.10582840589074033 -0.09835086656677257 1.0331954913698915
Ni 2.693314141385026 6.492259001140835 4.26147628228672 -1.1828455224312724 -0.5545059621397869 -0.16853118423660007
Ni 3.8748614779362573 5.612558539593705 1.0514657964125085 -1.5617261124918393 -2.6804938306065966 0.22828207904298747
Ni 4.222751678693735 -0.08454845209587585 1.1167312023856781 0.46592425914463625 2.3091553145593458 -1.2774171244612709
Ni 6.3884293787961886 5.959923495649169 8.430084611572443 -0.11630308016981905 2.3322628471110862 0.13308904137890626
Ni 5.939739092100326 9.09139489158073 2.874199975326099 -1.2416980737931067 1.563279315911572 1.698176614143811
P 2.4385610815383285 8.981290470920946 11.679091702760324 -1.3038033277642835 -0.4310140775310125 0.06835920530068872
P 7.999711295922367 6.7110703163782555 10.156460774027542 -0.7170045670290619 1.5866092488867642 0.06509724671996531
P 4.779239061108389 2.1707706978380577 1.8297593268030337 -1.21883068227663 -0.8889776870676753 -0.5658951778133351
P 7.560006445378824 5.544061002829211 13.6139628117431 -1.307838931286238 0.17460361568292512 -0.855737436957307
P 5.94708313855885 3.9090305216762347 5.345617926786336 0.06173270112310658 -0.8555433186686299 1.6402049227250333
P 7.638389837784805 7.1922882571203 6.736695692277787 -2.642301121586959 -1.4046723327672195 -0.1657086271861404
P 1.8424646209699767 5.860370865878068 9.034856989093711 0.5748824689136098 -0.26427546641846095 0.7668613426501889
P 1.8169433560738806 7.27444215613717 6.082847638785976 0.9791503886990299 1.5206925915892973 -0.6548183233083045
