# total energy = -340870.6686466493 ev
CRYSTAL
PRIMVEC
9.24648200682469 0.00000000000000 0.00000000000000
0.00000000000000 9.24648200682469 0.00000000000000
0.00000000000000 0.00000000000000 13.53316106571542
PRIMCOORD
 96 1
Ni 4.893737673920032 5.648805407847993 2.2333370502845487 0.33056930454968875 0.4428792043997146 -1.2358459858877038
Ni 1.1387412650522197 3.943023623776275 3.101191524414648 -0.9946795946828804 -0.8860067773648096 -0.8948302891937105
Ni 6.971394477868248 4.215424988477692 0.3840748284503961 -0.17989546020948372 -0.20732296029281713 -2.006871487217911
Ni 0.4448158944673711 8.587050800237838 10.098701766521277 0.23649186854728949 -0.7144648313263438 0.993732914498895
Ni 3.418082338072647 1.0804329484939326 7.437812003979048 -0.9048897303122415 -3.0399098841846484 -2.3988027398148497
Ni 5.909593190945033 8.629390442090106 3.9668268428241653 -1.3931352786618973 -0.5125183048540916 -1.458030693783702
Ni 4.342804526839089 5.555120050510765 6.8959172932183925 0.3990768625027837 0.14862158979686663 1.4172319145997851
Ni 4.755206878062711 2.831753657248424 7.105397271407364 1.0299726135572196 0.9133995675554657 -0.4961249510977327
Ni 8.619857318973771 5.512540000122101 6.49940872019522 2.911696168620172 1.1127937599195092 1.4951347977248508
Ni 7.982793190487748 4.900321169224425 2.232674077513025 1.2397550911341229 0.3417865134217469 -0.8479503368127203
Ni 7.832260460774948 7.099190107927253 10.851849930750934 -0.1669818374716092 -0.9277833470809634 -0.8510451736879602
Ni 1.2014046747121487 9.548749671198475 3.6138146465726133 0.6823517528418829 0.9070363443415992 0.49196619173435274
Ni 3.11800625223914 0.7005477011143517 4.968591645671689 0.3862833102825412 -0.1230627674911558 -0.06846976273662402
Ni 4.270903881492238 7.794294404988661 5.533534137887022 -0.5132487552622128 0.1707256207847576 0.4681099539420454
Ni 2.6753771508047586 5.72137179991102 3.440386702360928 0.33331498561562595 1.1576124588960968 0.255105884104051
Ni 7.907656276381716 4.790343510305257 4.448160793970144 -0.1909452902657421 -0.7435990296881387 0.06313292390474289
Ni 2.7278971695251952 3.218561745828003 11.11405427491628 1.050495930321552 0.5799722247316915 -1.0834237913978244
Ni 6.545982326232714 4.9176305838449625 11.491291329802634 0.13733161870534413 1.260705468133545 0.691617494414525
Ni 6.5755710691738045 1.905413334102391 10.583934034549744 0.3721414715645204 0.31595541129125587 0.256013740630301
Ni 7.297527150454252 9.225890253300328 11.683069842527097 -0.22054177297593633 -0.8814011602719982 0.2623214280158837
Ni 8.153418525953981 9.107128436320524 3.5043446195245296 -0.11250761768312881 0.547911853862037 -2.0227169388906
Ni 8.507845433977405 7.464823752339614 5.025024775646084 1.8320287589409867 -1.5870381088940668 -1.5336460664261717
Ni 7.396658685789076 6.557429471158048 -0.2902026921733515 1.0857778934522977 -0.23599950229190325 1.383730697518546
Ni 8.52417472148802 1.8423708186735295 6.5949933049699805 0.6753642657804563 1.2596914250467337 1.2238852139814018
P 4.554826362976343 1.4508192847412065 11.374689491057529 -0.34566759364370797 -0.25851876644034183 1.8204857912983936
P 4.351967790668658 5.509220513023397 9.23856163246485 -0.7116926678978452 1.0896905982431426 -1.0848790357871123
P 2.192202225058914 1.7747605410531369 9.182033263724113 0.34214672497464305 -0.7717513237526387 1.0710408443524393
P 5.179740613892182 0.9026526851252559 5.446014334860142 -1.1020825441495923 -0.016282539210107444 0.8831240565003758
P 0.8428547602895281 5.563876469124893 4.460489128646193 -1.6681453578890433 0.6296551937791156 1.1221075811212675
P 2.994260581370196 2.0875135539404672 1.9718493084873092 0.5177119332398891 1.5807229653093164 0.5697284355164962
P 6.608802926089517 2.871125178324413 8.52129074369948 0.5268164666443185 0.32894051069701413 -0.6948154325265324
P 8.90871742193617 7.0229251229965906 1.4144722879827272 -1.5079152373189708 -0.8969517064120874 0.31795932909516206
Ni 5.04886590527087 5.756471446224888 -0.1800179120535968 0.9381114684798488 -1.5388517789968272 1.7254750448484477
Ni 3.0954633287108964 6.690523335499942 0.6807454349010266 -0.7521749442826078 0.5584407784178188 -0.6282549709974793
Ni 1.7071040310218988 7.715394172639808 5.323391186926527 -0.3665989444797364 0.5851691955515986 -2.148325355621745
Ni 6.555108604133606 2.403928173766758 4.913390147122216 -0.40122013409803153 1.7036008704831758 -0.24520148050614543
Ni 0.5062116114219176 2.9836456198400803 9.655409692315372 0.7879952964153268 -0.6549427647013109 0.3958046195094151
Ni 0.7892880397875508 6.9326887035084335 8.054653151313055 1.1681208146265885 0.13338883200751223 1.6568530728046758
Ni 1.432964327672692 7.781774668131712 2.125004340543263 0.9435796906832719 -0.14789293916095822 -0.04085842877725866
Ni 2.089325864445609 2.9643667045175257 7.380471794103865 -1.0490774527074707 1.131280248759471 -0.4918368652453401
Ni 5.227646638010242 0.7838964160347539 0.051550987389115545 -0.4594831315049828 -1.036065870939151 -0.5050510499427688
Ni 1.6393088237581244 2.60752646464797 4.981962983536412 0.8988324683745682 0.15105899559376565 0.5524634777884614
Ni 3.586460778371792 9.30528979568631 2.1168840799023676 -0.8634484324483195 -2.0175371944618736 -0.5555133203583787
Ni 8.149756919015022 4.617887371369543 9.845117917682176 -0.0867096827834184 0.6369208742025935 -1.5038158704386166
Ni 6.360941725064866 0.8567716406022268 7.79852467058102 -0.8473052470295537 0.05987405064781301 -0.17209164789434878
Ni 2.918088061261226 8.619219311704105 9.404789341011465 -0.27333500551756795 -0.2998487355373804 -1.2913599597946084
Ni 4.962309585686009 8.140593655185453 7.855959194574329 -0.6294705885721352 -0.4873564608764832 0.6246045187290855
Ni 2.135502796398049 4.892054814165257 8.88335617064279 0.16886362787535433 0.6004091524298046 0.6833313431463328
Ni 6.937746529254926 7.042869785035321 2.4597464126769086 1.3861619326678578 -0.20944643439372315 0.6249248781829818
Ni 4.084744455981931 5.494611071196235 11.43585959384715 -1.4170344538769983 0.2741510736609601 -1.8125876194972395
Ni 5.154682647213946 8.753746380782207 10.438844708889887 0.309557478184712 -0.6951548181438222 0.3264359991076055
Ni 7.155066599675069 0.10547554675103672 5.703076710291255 -0.1655016533816569 0.5511493869627282 -0.108974921939522
Ni 8.720616235170356 2.127781983786858 4.231819926011708 0.7161761575904956 0.1260979547730538 -0.503183657716727
Ni 6.433924208825501 6.033459066082175 8.599918204824345 -0.3384399655470171 0.30249671468318867 -0.11290433890091524
Ni 3.243360811005505 1.9876885324429618 13.327295020854526 0.3834954631247589 1.174294804647784 -0.5922083617865671
Ni 2.2862019627898924 0.5720687560230506 11.312099128606736 0.35043776133884164 0.9956522430087951 0.38266242570050224
P 2.135382592129851 4.788152094031183 12.773761762987634 1.207967514309881 -0.09738233200591616 0.054607145821918855
P 6.910339956105741 6.405186142243966 5.621025276819178 -3.5097319357217946 -0.8015874332774646 0.6729073195995314
P 3.3439255510765378 3.9541471418256915 5.79598258918163 -0.004424611430256895 -0.003197681001691267 -0.8523515512042095
P 0.7288946415001336 6.297880716671667 10.324015420776599 0.05134595857214382 0.3080891211693017 -0.5176849366566956
P 0.2541691511604043 1.6236730224101916 2.17461634062152 0.054113751125268096 -0.2859190128301657 0.9298294309767148
P 7.984254134670464 3.275325899864052 11.720759428496528 -0.7199307395369214 -1.5116371662552481 -0.06231479887882171
P 4.114989699157027 7.333579184431538 3.374737603608599 0.036375710415556706 1.2190212010208812 -0.5448404140255649
P 9.370662424621784 0.3749772146442275 12.155499431344241 -0.15365632400729665 -0.42775083339870845 -1.4028985286962483
Ni 1.8979421765097657 5.755556044490148 6.411294368364868 0.7373620476394914 -2.332784009721879 -0.007561614397341816
Ni 5.467768533459363 7.841090851246429 0.9621186612511132 -0.9637070575607661 0.5058786880503868 -0.3888276739709497
Ni 5.0577240351888575 5.641981504007205 4.6024254038863885 0.7695427461370941 -0.6372731153356895 0.39437380060015953
Ni 8.256868168461772 8.119049351731471 7.319843535169354 -0.3444172661763745 -0.004248233753392683 0.7391062840241077
Ni 7.388947119660054 2.323992335414967 2.1457099880645085 -0.34616073123004254 0.4592936412019961 0.6616543723935314
Ni 2.957857181070486 4.378052116867663 1.5270685506521808 -0.08307825667841821 -1.0727061478700042 -2.1527461103972603
Ni 9.2414243433444 4.870935848891054 11.99518484814476 1.0280928800360036 1.4326065972836426 0.5067451498157403
Ni 0.786671285333698 5.231169547716665 0.8624794940452066 0.5235737913373048 1.0082979567972636 0.4501649394278505
Ni 8.311967955707383 1.01170384653108 9.16039372150379 -0.5551022009628892 -0.08396168772463604 -0.08918205558331092
Ni 0.4665959832166646 7.176333508663978 12.865191903323822 0.4229395280529942 0.6381411197629397 -0.7423762130246312
Ni 8.475806373261506 9.025426519874436 0.499820442946642 -0.3964080574213689 -0.5519181468079527 0.8741357369588366
Ni 7.251350218501813 1.799818507731373 13.2102872615422 0.7101304656170481 1.0660883854431704 -0.11664375133868944
Ni 1.3887568964222683 0.8641188953337865 0.32253579102222857 -0.3807767786420152 -1.2105697278194185 1.953090436841714
Ni 5.246361517920481 3.752527598128664 9.930660822821302 -0.6984674274568228 0.4407747564622022 -0.7724727752996955
Ni 4.357922525185552 1.5692944607737682 9.296131155097827 1.1554882134642424 0.3600063788638832 1.1251846773846943
Ni 0.9462017668452402 2.451566049901914 12.206762853137898 -1.8535146967289045 0.7984846259824249 -0.2919829596360584
Ni 5.2578179093279855 2.903450879987555 1.1308503171691175 -1.280726134229846 1.089545845135162 0.2370860504878627
Ni 4.926793847674531 3.3703519971157996 12.209712480949838 0.9090819140167181 -0.4816966914875446 1.648014134356807
Ni 5.055255224449711 1.5626369936120228 3.056085335097389 0.965140447573183 -0.49164326117729523 0.820533121142032
Ni 0.9659430062762492 0.4369905966076694 7.923016532561008 0.5945730053640018 -0.16833809438918748 -0.8595449836288551
Ni 2.5260834497026172 7.422003293414554 11.599611094468882 0.041079286538813126 -0.4606828082400389 -0.4585444217407974
Ni 3.948349597505671 3.5907141601695733 3.5055762509494524 -0.5293600590017786 -0.14005955915946847 1.2686159812298732
Ni 6.7835799320496735 4.293594748735187 6.767650092568764 -1.0327031251145053 -1.1763339465649998 0.20071599649926078
Ni -0.07137267121499569 3.12349866264758 0.7645028443333026 -0.07310854706021602 0.09738593155034196 -0.5690473502890716
P 6.939854727189479 8.234621132362939 8.976207495288365 -0.31084174421377436 -0.04804620477494951 1.2800553334150664
P 2.5956724745071957 8.209110088058416 7.146091039433533 1.1201347736656126 -0.29313789917610805 1.199174084387967
P 6.805956418898874 0.3054048335075538 1.7992470751333232 -2.3059092968182227 -0.9516490979549675 0.006278376809544025
P 5.831747057563457 7.249491675585825 12.07551828522982 -0.8002746280033121 0.8905797414474728 -1.2246922832637295
P 6.100764209790987 4.037781573045118 2.9541669100368018 0.32279017482490213 -0.813956753476095 1.0048663054078952
P 9.35004276938471 3.948941372364493 7.7522145892853445 -0.24676162590441375 -0.027948148473493802 0.10199026309157275
P 0.15600849645333537 0.05013904956189537 5.661489732087553 0.6341679940478046 1.4790414917074142 -0.3243791165785769
P 3.1007893024402926 8.812960852593067 -0.26391309407019226 0.8266299780683892 -0.6011853684741969 0.8795990740662529
