# total energy = -340870.2247321059 ev
CRYSTAL
PRIMVEC
9.24890639808682 0.00000000000000 0.00000000000000
0.00000000000000 9.24890639808682 0.00000000000000
0.00000000000000 0.00000000000000 13.53670940738435
PRIMCOORD
 96 1
Ni 5.659849730758852 -0.1502836291729925 4.888579732347429 0.6909559495711262 0.5058858871392384 -0.2186792658459008
Ni 5.094834043066338 2.362670117593769 5.379704982479879 0.5343330867363377 -0.30036938392754076 0.14966340079781965
Ni 6.206302863447291 5.7620039011724025 10.255221559526982 1.6900642694493218 -0.2855983962659533 0.006745032033317416
Ni 7.274514548923384 0.24167669707172507 11.827198975416575 -0.4605977047254003 -0.5120004846774086 0.20300273565090843
Ni 2.1831118501054325 0.4261720307589524 11.80862624661554 0.3039545301756378 0.9037784995259338 -1.2634084688870046
Ni 6.269380404617088 0.5666518192222696 0.6569988358150924 -0.12181603956824827 0.0179324161087046 -0.2711292561155008
Ni 1.0662416684278282 4.609913884190606 6.288478471297663 -0.360655839522424 0.43272540379516444 -1.2683524431558415
Ni 5.7442275032063685 0.9624411926875586 7.831852719471462 1.0059546533760675 0.8237254028270846 -0.29527422879282056
Ni 6.975700883217544 8.168153127422949 9.731364429893079 0.26403995336888725 -0.21698208064913602 0.4477840979004997
Ni 7.9827957956657745 2.5976015872791107 4.334671056266472 -0.23821553610661556 1.3390238415294746 -1.0127122838148752
Ni 4.288912092199379 6.994522407598855 10.710379662723787 -1.1059739087841984 0.7324329857689902 -1.8603769710663765
Ni 4.599083414878313 2.3716508056400847 2.7454878999313976 -0.016578730294287577 -0.2125782951544855 -0.34518499758033455
Ni 3.6668953947958 1.0553372078648968 9.076850775208825 0.8597275319533065 -0.5266568011380026 -0.41638681453614096
Ni 5.174235903908378 7.455978091115675 14.0833216920901 0.3942853546514113 -0.47244149143786385 -0.4175273558984874
Ni 8.960969378020463 7.238758277052059 12.704580751260107 -0.1779257380776226 1.0695976841480097 -0.46273454856274504
Ni 3.320348123521438 2.7075155901034327 11.610638608374279 0.8854272507122557 -1.3961866638937115 0.47317502716977855
Ni 5.584221423699403 2.256881126992574 10.026965025539917 0.3095932165186539 0.14365936069558483 0.14010995278142968
Ni 8.281063775898152 9.447665326911533 4.971938275317393 0.5751897157413836 -1.144312656463397 1.0771297308589967
Ni 1.6977477437258661 0.035755346980692215 7.886879087681097 -1.8559294768179846 0.44005613312862274 0.3407994669181292
Ni 7.606198827725626 3.6679405212110767 9.547968791168474 -0.14695551494835335 0.9906010537381328 -0.3786232226341221
Ni 7.899490896352525 3.7528454813193965 6.712542676304034 0.42244227670160145 -0.30319682607400683 0.9684232320895129
Ni 8.762571088338156 7.165960135329555 3.756531170491855 -1.7006944954696581 2.795834803973462 0.15102685680424957
Ni 4.633628080020424 6.810432176008876 2.949161765784269 0.7232760018600705 0.44697008663963667 0.8142670856276623
Ni 1.3293545557003217 3.6088215119504685 10.431063616451974 2.380314708312991 -0.2403680636732441 -1.9921426656481693
P 9.037309850867313 4.157744102628987 0.1307869346296005 -1.9579534213609697 -2.216358802151899 0.7636572338905945
P 4.244961289319778 3.3228823238558256 8.19980750933697 0.8071551571732292 -0.7759098260057025 1.1656864941534828
P 9.544316398058804 0.458832693681666 12.640105700343861 -2.4924960530049525 0.4301794974448591 -0.3823803756837092
P 6.87149345559876 2.312587289817456 2.373783603439755 0.7785315798992657 -1.0826663444065097 -0.04943562892330841
P 2.1894565998477318 0.9679627897664983 5.91445917355165 -0.41726793158951364 0.5671743016360749 0.03321968128507827
P 2.81308260695271 6.645496429428084 0.8228086040440585 2.3572614260379527 0.29040661628787406 1.9877051987021057
P 7.201078232664118 1.712055801818194 6.067193762902062 -1.4445925660009251 -0.7423147636590764 1.4768077172808889
P 6.295887770158531 5.202445068214519 8.196843234858243 3.3608473220715283 -1.6876767430537516 -0.8420185447093175
Ni 8.814614684256405 2.1578900825438434 11.165984488096322 -0.308119717296921 -0.7155320962485935 -0.3051886596930551
Ni 6.636506492475439 3.486319747611177 11.996367021533922 0.5316375421820456 0.6964054027214716 -1.0175984082625829
Ni 3.0744382020225256 7.7246310732797685 12.56864495047666 1.101453909426658 -0.7333948354616273 1.2975046392397653
Ni 9.043321639981736 4.5097852242632985 11.549182400484112 -2.1640396810332088 1.691708489920964 1.469336091494192
Ni 2.925715788238017 8.33548434074318 2.398420840121296 0.5993830251581355 0.7867634808907547 0.30850075478542355
Ni 5.831518681147798 3.038090000146088 0.6393297251624853 -1.1623846834737592 0.20527250552169166 -0.01666203403671324
Ni 2.347945858716596 2.53712298878801 7.6960528776110655 -1.1770404857137213 0.36241241720221457 -0.7447138600188722
Ni 8.084718743421078 -0.2981542186845187 7.618054075859269 1.6102024628256717 1.3797632282303656 -0.11640695273753501
Ni 2.293562289496888 5.283243513912371 8.302550835083734 0.2081395426568415 0.2552457521160249 0.6295060697957611
Ni 8.072750658630211 1.9206741329950205 -0.0889282343618189 0.22785090504283986 0.8726743219219616 0.06224357932125409
Ni 0.1535151970446534 1.8744388502519387 6.557303483119492 1.0146840628292653 -0.5201004880767236 -2.845621388478286
Ni 6.442075983608652 4.407908521039645 2.7908769077452953 -0.06255288303155677 0.4982268279320839 1.0088353173579723
Ni -0.016602711752771827 -0.1896645474349986 10.283973634634687 1.0148568409617038 1.1500367034313679 0.45027549686378576
Ni 1.3419608150279514 8.891695069609645 0.6752154817224287 -0.1935001954771119 -1.2111741941726366 0.39772240535741826
Ni 1.3563058687455989 2.687325227585299 12.960099361545133 -1.2729138372742788 -1.1171494657850438 0.6677964807355273
Ni 4.924145476748358 5.650443593021361 12.21843696207693 0.869046238251071 -1.5566492121895643 3.4024590840750433
Ni 3.4859590402643112 0.8586203693533629 4.227907230938108 0.001926270488435392 -1.2169938861782073 -0.547541872117128
Ni 2.699931486912929 3.141400283850874 4.717191023820278 0.1941558267832398 -0.6995719733749113 0.8953558226798775
Ni -0.0588951857274249 7.1353462553776446 6.109536180970896 0.21487506160846218 0.371185021188522 0.6777998718051422
Ni 3.7486927223772795 4.427765922929902 6.427878912392283 -0.018053257957285036 -0.31367278590466624 0.3494000641029466
Ni 1.0265638602726328 1.7270020344472838 4.174395833585307 -1.040018427828996 -1.2767429812123818 -0.4950193767383797
Ni 4.529485394745948 6.070288446960041 7.99678384159909 -0.18337699100018096 -0.16442024739202005 -0.7363243504035965
Ni 6.023590718900464 4.570929744010152 5.790503481137302 -0.7633556434897757 1.292857370275741 -0.7831940183719415
Ni 6.11754110939941 7.935173176973211 7.27101291298689 0.07752235985719552 -1.7198137327976124 -1.2189175855634813
P 1.7591697306626148 1.5004963184284648 9.740474602628012 -0.5125062206692335 -0.39453655143026894 1.276933499956633
P 2.4036242748224876 6.87928103472852 6.263043053999853 0.5124362866632465 -0.7127324220162693 2.790577926449897
P 0.6146943382622105 4.027963449008078 8.230671109759786 -2.0117005331754383 -0.7741709889377247 1.0164334414202043
P 2.6402112987408786 5.3880151248172785 11.335951639720571 -0.6541706624219766 0.6967802695623871 -1.004350027893109
P 5.0229237963515025 9.27794789575819 2.364768694440019 -0.28908352660107633 -0.5518147884608691 1.5150904149111715
P 0.6128195849491435 4.120110302772695 4.064437436010602 -0.842520938267033 -0.45113167421649397 0.7751783471563165
P 5.367575041828238 1.7711378154534825 12.380822785182575 0.16902020805787665 -0.7816832381543699 -0.47617936121374127
P 4.399945212689616 4.211054798714429 3.998365098971188 1.0565830170558965 0.893181697846694 1.5567672258246674
Ni 2.6840141191192015 4.544857077066213 13.269386488778931 1.8071499934214361 0.7453502080512906 0.03433733982928925
Ni 1.7246528122394937 7.377954317316788 10.885707480456833 -0.5808841950229996 -0.8978783319914149 -1.5495617092151635
Ni 8.005603598675265 8.00916442761227 1.1014282076692328 0.44327078341117854 -0.15552525889523539 0.33350781835272236
Ni 3.7929764858847563 0.21552448953334968 0.4552228455411129 -0.249599352463525 1.8289673464068437 -0.7205372627726688
Ni 3.8353364768756175 9.065149058920259 6.854218348355806 0.22881609716958656 -0.21518385109813262 -1.0364312246983698
Ni 4.584026195373265 9.336493472826348 11.041853066461707 0.47231165072821885 0.3423331299538363 0.9463706231648474
Ni 3.0804592400432793 7.522958670756684 8.694885742034812 -3.0987719486281797 1.1788484854567376 -0.15217176904197016
Ni 8.688589086605427 6.697456785189363 10.55277182462816 -0.501582117557562 -1.153940152250832 -1.3480386434335752
Ni 4.603791108200223 7.059495974566279 5.40978335075529 -0.5590509011979921 -0.9983691277193256 0.37161953762277933
Ni 0.9969581111106794 5.769967209522431 0.3766385880186345 -0.9247129356857559 2.1255366398620037 0.365274569241358
Ni -0.09537379718311392 1.9915300043882491 8.643730041124233 1.1303788199911242 0.3538133626792939 1.780381209968024
Ni 8.41093691858236 5.777523565993945 7.973825281416422 0.32684711850309517 0.3978162506228052 0.8150841822123187
Ni 2.6180416702681506 5.515576040919016 4.675728176743416 0.39006077504710246 0.9983169343251517 -1.9787713865475856
Ni 6.959191585418705 5.19682173316595 13.96446954618858 0.20331692445721758 0.46691567652362814 -1.3887291791744019
Ni -0.202764698360644 2.25641868167608 2.0179985245231067 -0.31381882456422727 0.9230054660763458 0.541397706892603
Ni 1.8422804029429376 8.107286074865991 4.6775557606342 -0.017217906540183254 1.3646834510791077 -0.4450399594964593
Ni 1.9801261028835044 1.5867608677672775 1.9608597061077264 1.8714003187600738 -0.08726889772099809 -0.3550099540905563
Ni 1.4035030377469886 6.62853393521908 2.7512952882159305 1.9879479108405314 -0.7215433354396799 -1.1867970508798529
Ni 4.1959328368650715 4.3955057376512725 10.322228036105715 0.4750786719503947 -0.06648332843421453 -2.0752350633939742
Ni 4.147847772856013 4.7806209483212445 1.9438583664921365 0.5647381813907565 0.6911539245145452 -2.002264841683836
Ni 2.064744346895598 4.155589107454124 2.6219252860360682 -0.8388077510815038 -0.7783125219099241 -1.6543786431222538
Ni 7.449420616527789 0.14507464512800278 2.8808280711471994 -0.42337121627377405 1.0842717412204164 -0.5147482226258747
Ni 8.770441907624887 5.56329114867488 2.1244377132392915 -1.7054404947950756 -1.8252253628659083 -0.14427925366777086
Ni 8.114241252426062 5.31084225040074 4.691972030930588 -0.2787062971318103 -2.1684876895022334 0.8024484957261793
P 7.5382101172946605 1.0364416922329471 9.486282285510692 -2.4039472601302663 0.6888450738757105 0.681504317239923
P 6.870439080277153 7.1612894376329645 5.0380929276231425 -0.14242163163374183 0.46002897670612386 0.7466558142365916
P 0.30207020562459086 7.627119853843819 8.683027719229269 0.5554228175271015 -0.898638350085891 -0.4874726747393734
P 0.5719523674399252 -0.48321003609533697 2.808677352867787 0.19621168087100402 1.5942379690766155 -0.394152942838605
P 6.638698483275621 6.6481786122637505 2.028732805209568 0.21929375950144817 -0.9400624215586327 0.667847902798753
P 3.475609514081173 2.9544613891112914 0.7985440982876121 -0.2896746232178559 -1.7410901256778855 0.6311983698965193
P 6.783730583434506 7.140590385266687 12.093655342327324 -0.0965426097134402 -0.14030329973915837 -0.12020807165118007
P 5.0223041196274005 8.141969473603051 9.056247911468379 -1.0418318268886508 1.4885926257309587 -0.12663531533376257
