# total energy = -381160.9621922796 ev
CRYSTAL
PRIMVEC
9.28788797478619 0.00000000000000 0.00000000000000
0.00000000000000 9.28788797478619 0.00000000000000
0.00000000000000 0.00000000000000 13.59376288521353
PRIMCOORD
 96 1
Ni 7.804937504442601 6.908136174402843 10.458755574275617 1.1904135645865177 -0.3938351544878701 -0.9319909574044077
Ni 7.314369827135754 5.159951287469423 3.969324828838934 1.632930757661123 -1.635575394372822 -0.6686621711699322
Ni 5.019146902828358 0.32787638419568443 1.8256291560636393 1.6111041487043352 0.7756863971409866 0.2892449918796051
Ni 6.476741632620285 6.304859974165962 8.611024030736363 -0.33987541244196307 1.0988583807853398 0.40515135083163767
Ni 4.3655210608276755 1.9823975628894717 4.120161061491267 0.21339950550420023 -1.2047171256933835 0.6470397078041501
Ni 0.38130774725393785 2.7091190847796787 7.459360262974559 0.8024523523809213 0.028806125598414906 2.095867909152978
Ni 5.494993277387442 9.191405586636819 13.1279051611091 0.21097469811279151 0.3195953220366883 -1.3059429998151058
Ni 0.7763829311406891 5.925561197122964 11.402856403604499 -0.9544821965283886 -0.5802565887413298 0.15201981684513818
Ni 3.805702889333243 0.10628873462766664 6.1092681947939775 0.13033667544474972 0.1863604991085371 -0.34181299578430807
Ni 0.5526432778839289 5.76615317247952 7.0894738318019614 -1.443512959783501 0.5582566874314708 1.32133979398615
Ni 0.6237922164132441 2.1678395380704423 13.210813494849104 -0.7920599534030036 -0.5291212035180952 0.3754329978315986
Ni 5.835320075673585 7.350871227639671 6.565311862988073 -3.4083952470538206 0.5012548161251302 -0.14775769913467457
Ni 6.264327630196726 7.138940195400896 13.536043759705459 -0.7169132928668362 -1.228501886817807 -0.9833268886742226
Ni 8.733076169164347 1.5971824010828628 4.739968773880038 -0.7514159546293963 1.9779496619772385 -1.344642987488465
Ni 6.267699133602049 2.820155787839305 11.386027679031203 1.017786613013989 -1.0641240626279482 -0.49671656193514463
Ni 4.692083208847456 2.1753441517109424 13.148132323963408 0.75519059118048 0.5052060874633943 0.8019350464248705
Ni 2.718434836613121 1.5205015963601292 12.257387625798613 -0.20609011632698054 -1.2146176726365467 2.781939276938293
Ni 6.022238825073416 4.327329264677012 9.5245927852875 0.633703138596244 -0.9774249213674907 1.402815996284771
Ni 6.717697315386985 7.106451162585959 4.0972014019376575 -0.01774575401919524 0.8362826706668048 -0.552832431092106
Ni 7.28778789119626 4.418239114074554 7.369804587672046 1.997617058499179 -1.9446497622735284 1.7732479413573525
Ni 2.503095149416346 3.3022436232479135 0.6887990744964422 -0.9006985750490295 -1.9002853772255401 -1.6410443879071932
Ni 4.305929970335783 4.58382358435034 0.38045790548648023 1.8861029150775708 1.0234121867308825 1.7112797271846723
Ni 0.2559779130911361 0.3256250001035344 6.357476789431799 1.003104585521782 -0.6185223170907477 0.7955882782712362
Ni 7.5954956262331 3.083133053454551 2.739347445614297 0.8460050401608914 -0.23631600509105755 1.0654204128418683
P 5.926564289045209 6.126811157967463 11.157502905789807 -0.4453009264673299 -0.29207217691575504 0.5736218570336316
Ni 1.9237352612144738 6.763440164618993 9.72458423728511 -2.346939218176338 0.5729495135569552 -0.9640610984660752
P 1.893066654480648 8.388504805985 5.391082242131023 0.007541816902999914 -0.24499424959134586 -0.7750945291932587
Ni 8.041509303993562 8.44287610332595 12.093365378312841 1.3246462326515638 -0.21100478001977854 2.5583504896059166
P 2.4288291956175363 3.811675001425869 7.3904664236926605 -0.33777045028381825 0.845566409961576 0.24104374958403005
P 7.4492299633487 6.17204317335018 6.304896196929819 2.307318004240291 -0.23033201959348074 -1.5033397021331463
P 5.306885678301986 4.967580547714427 2.4156664005045205 0.3078476945824569 -0.5285293355703671 0.5358484949395997
Ni 4.118676856961871 3.3792030646157154 8.64411120354938 -0.6409580203864446 -0.6742854308939806 1.4297303041771119
Ni 3.207126360509843 9.025821116361032 2.8792945581773695 -1.1525160182097958 -0.4304759456393554 0.2631130706792436
Ni 0.6247581567828134 0.4252571052805248 8.859993303415221 -0.5152177060631256 -0.07699451237818353 0.5629193830144629
Ni 1.4018674007783134 7.653024805551488 13.09358084159198 0.9649699834335899 2.073784189880061 -1.2902083626886682
Ni 4.5869536026632725 7.828630907161556 4.121560746238325 -0.7253231141970863 0.16926446285819882 2.473064169532586
Ni 2.405795232958576 5.718051199652602 13.175891035333905 2.0992666504218813 -0.8444937457226875 -0.15381624662392865
Ni 7.638795760876679 8.128090997504382 1.6391357919419454 0.10671672203296459 0.6496372933279974 1.1757441354998008
Ni 1.9474379518215976 4.291078637153655 9.559583046386331 -0.2906832669880284 0.48887983949954517 -0.13266686623982313
Ni 6.083436720218533 3.618589094281864 4.826492882484208 0.0285299891188928 -1.921826593731426 0.7707699336759758
Ni 0.4529359408127701 4.685962490544126 13.423950094972207 -0.9034064608984957 -0.8697466067522053 0.4401983151334419
Ni 1.283418962959876 7.729510564622673 2.0079615462856504 0.46128676037262495 -1.2826994559061329 0.3022097795703892
Ni 4.314920646083314 0.921381726078846 10.729204017133958 0.5621573080374577 -0.0503231737345843 -0.34356340281651154
Ni 3.3644910497561207 9.159956797296802 0.42720756179600133 -2.0288708743071378 1.5924803629555606 -1.5589284951420441
Ni 8.880335636082823 4.810318025238007 9.160470417512544 -0.3167282849015384 0.5030098511430241 0.435783731005514
Ni 2.7898865602967438 6.2874637596255445 6.560377208003918 1.1975013246712343 -0.5894295134898494 -1.1712603886968345
Ni 4.322936093573105 5.139415766727907 4.842125327061344 -0.03742214940220007 0.1835356280652323 -0.6949622425170418
Ni 3.904860383424801 5.8625243001203975 10.191407428488072 0.8593344102799458 -0.27283158351858816 -0.9600018407950368
Ni 4.4620872341201006 2.8292764940212 6.381211058858697 -0.45306668645567777 -0.9463081453580283 -0.2630590775128566
Ni 7.25523384316414 -0.016386621096453294 10.301380668352355 -0.9095282575255175 3.1863100408501643 -0.8837676036216457
Ni 7.865318065428852 5.259526736528583 12.143104805823944 -1.6803848373780288 -0.13350941674577652 -0.711712208281871
Ni 3.615003969448655 7.187766623504991 1.2454807261562244 -1.630609051506482 -1.6638966099150183 -0.8141578137433075
Ni 9.007969795300339 3.364518913420628 11.084341281894284 0.20686427548884373 1.4581181112911856 0.31032675225056877
Ni 6.636948415646258 0.08139719433491889 3.5869452592903004 0.07746708113922789 1.1201522571671096 -0.42857564329284903
Ni 8.644516155473545 6.912362163519708 0.014903345355874262 0.38049601417680273 -1.5669572789837918 0.7335043644562981
Ni 7.600743283048549 8.332851780076739 5.56339671617402 2.0701370800457766 2.3617117484998227 1.6716770251913853
P 5.662203128092791 1.9336175742262214 9.357715440978598 0.4485289464863243 0.006293032097563356 -0.4623442551028618
Ni 4.644166993783916 4.384143276606391 11.764164541264268 -0.053688233552075276 -0.2778542335441602 -0.0039962656435866654
P 2.463695927803721 3.8634921295203615 11.974746043352097 -0.4536091892227091 -0.3685545255442104 -0.4745726788482536
Ni 8.707683082910478 3.9231110836767598 5.830990062209226 0.3287181102735629 0.040387916898743347 -2.4336224185971957
P -0.007744241155258605 7.332063254097576 8.677320047697409 0.9105111902640771 -1.1374958906518795 0.1252147808371521
P 0.2001456309412128 3.8347554035256746 3.8030316926958574 -0.15628836231350504 -0.14931887297420735 -0.11709523705381124
P 4.163481629488817 6.54006645415609 8.08210387681353 0.6008290135760427 1.4640483607326915 1.3917114017311771
Ni 1.994211756640358 2.1672636890039683 10.409396950179444 -0.88314436821535 0.22125448277224477 -2.5870432295549186
Ni 0.08360399656385802 6.536416314105697 4.639836980319558 -0.6470975576252791 0.991507367602486 0.9848160716252393
Ni 2.2663561678783437 5.082360269706134 1.9492778824678638 0.04949604984759863 1.7115386372730137 0.755268495606267
Ni 0.013915114054699501 5.7051131714332755 2.490784982437239 -0.5266850832727767 -0.3759613595312428 -1.0747987687329748
Ni 3.0462322737593697 0.969859858376606 8.4055536535079 -0.3559784886514127 1.570387387711263 -0.8175087324934115
Ni 2.5102282475300886 6.612168330011538 4.011573574541788 -0.20589522670735505 1.0544513154248742 -0.3118285336070759
Ni 7.623015638877657 1.861125607067678 6.8215674839354605 -1.847997366455101 -0.8886946086096179 -1.1475769290369657
Ni 7.106042495506525 5.123459174853675 0.8611191212723404 -0.24357628619789667 0.5299519269495067 2.061098366882276
Ni 3.8420092441856135 7.449155660243349 12.143648147281827 0.07492143189923871 0.22470310344247754 0.3242605887228416
Ni 7.007405123152428 1.257282845652491 0.9272238077371067 0.9880237799292596 -0.6223244644456574 0.4710235280444146
Ni 9.180631636360854 8.882908381105619 3.687716059556802 -0.10134028821239965 -0.7624117915192676 -0.33293291968585886
Ni 1.3796229086137124 0.8257443416033149 1.8365173473640828 1.3227281896932446 3.180029350047775 0.8016252284939355
Ni 7.876119879369323 2.269941292711553 9.017980281168818 -0.3440647679329623 0.33410200029329556 1.6648188646189712
Ni 5.345365398985887 8.04293035088341 10.266227869210567 1.4235128625124902 -0.8701554121548497 0.39019138708769574
Ni 1.7899989594699683 1.0326366945104426 4.151195611018948 0.2134128752406389 -0.32072943564113154 0.4628597612866996
Ni 5.581092000713475 2.8177688005798887 2.1269347497856326 -2.064241283386632 0.042298246547578765 -1.2533068616766285
Ni 1.996264379925693 2.470810450141126 5.8572394917522725 0.6023259098365433 -0.594801062214408 0.20210902019204546
Ni 1.826305314322338 8.043561927278898 7.595908937256618 -0.43841036999508365 0.9927582092904516 -0.3624666674789177
Ni 7.479666372878302 8.338052997451342 8.350159759679551 1.4589694035478873 0.487737755475302 -1.9440509523472649
Ni 7.5574710120694775 3.255432666876478 13.402213650290447 0.5418291380030669 -1.3165156331246295 -0.521646749517921
Ni 5.500528858736128 0.026387819076763283 7.999263344657159 -1.1205595199078573 1.5442354119062438 0.3266532573247342
Ni 0.24399282219794147 3.3317326681842845 1.6985949944218381 0.8922802690783472 -0.2765617399849818 -0.06758941701419974
Ni 3.380809869268941 8.324752741593427 9.342802807734556 0.7801130654537727 0.05614775083616137 0.2384291947793184
Ni 1.5852381768976114 4.846048531023903 5.271144955839105 -0.2688255476829886 -0.3161960665471522 0.7260196260434787
Ni 5.268322366624565 4.883404417239362 7.281607730408649 -3.30717785757253 0.40508810169387005 -1.8741076903889076
P 5.993297765539012 1.0432341749111984 5.418922686917408 -0.30506113297625526 0.42681957983369073 1.0211784123043575
Ni 2.5308659350414637 3.5757905055994086 3.85142530521128 0.60198343889546 -1.0960821035917834 -1.6639287487045342
P 1.4481768111886268 8.970678924302062 11.159297325784046 1.2126217252524407 -0.33411974090510843 -0.049705080534611173
Ni 9.245758308201431 1.1727909269796826 11.150882499102991 -0.9844892844134399 -1.0610441381510436 -0.319096785133715
P 7.227305163440151 1.0872773406082914 12.325274658002998 -0.2567385346114675 1.4006213026262977 0.35806416753584785
P 3.3622619565955767 2.293458225555298 2.287096022159577 0.10713504051730582 -1.5761106633482855 -0.42039902101932763
P 0.24173586537289007 9.026619874743561 0.7051587607172055 -3.104438402885337 -1.046920554265468 -1.8304166772588604
Ni 5.436721067015539 7.037943699451889 2.2880888974048363 2.164078504690944 0.049078759804521935 -1.2676309916087845
