# total energy = -381171.90138968604 ev
CRYSTAL
PRIMVEC
9.18328306070784 0.00000000000000 0.00000000000000

0.00000000000000 9.18328306070784 0.00000000000000

0.00000000000000 0.00000000000000 13.44066301982324

PRIMCOORD
 96 1
Ni 4.617621039926051 6.966218133765046 0.041928115486557796 0.8349891486663619 0.9297026755908634 -1.2894784265011792
Ni 2.898446167312427 4.6779735762244625 10.935686728327834 0.48936963465177014 1.108336238368788 0.338421710714572
Ni 8.369515618816823 0.34480472921431227 11.087605780060125 -0.04488246233498722 0.17113571173898268 1.093944231313174
Ni 6.843024391457804 4.342269480526847 1.9194742145134336 1.0866219866201479 1.5796657276893957 -0.15715430985822612
Ni 4.474591406199977 6.845972225321436 9.206397387747216 0.7256900106182018 0.10113511418012905 2.1078955297414725
Ni 1.0382344333976752 7.7558519113297475 11.654277709779 -0.9795715353968483 -0.22134344294162522 -0.5354168067188199
Ni 6.907849186608518 2.5349350904961874 6.114815757653421 1.5062337358514897 -2.180050454639168 -1.2862138968172947
Ni 4.806750754634783 8.727305510284019 7.814791140364568 0.8264787972025056 -0.1281221842919342 0.834425305743092
Ni 0.17782050161507806 1.0491441736780331 1.7584416726681558 0.10399160979231767 0.7435031275402227 -0.3516081274978589
Ni 5.852827711769349 1.185800608957501 11.387964337571656 0.6752225979962695 0.5634554580235909 -0.665002462930158
Ni 3.2196406757684897 7.140388280362075 11.440839844799134 0.5761374243666335 0.017725956524853346 -0.06538649582560997
Ni 3.5773938341034284 2.846588167848469 9.83172386472592 1.8457000857804924 -2.298186474252668 1.70885646245516
Ni 2.190424226339932 8.27615836318541 0.11407933386594919 0.42484137306139735 -1.7804843112047917 1.6505140179605253
Ni 2.413486171971158 8.13122778986503 7.212407259465341 0.4994581292360237 0.4383712892270321 2.029272737731247
Ni 5.644578401720798 6.27383532385101 11.400290140100525 -1.3018629162084612 -0.9485288071584309 -1.1002997412175566
Ni 0.9229291312426452 6.1820759594727805 1.0193398284929305 0.11234280997049038 0.19606795620428813 0.21916443301243543
Ni 3.7086321323749742 1.4886744677003363 3.834096900584011 0.3587066862158532 -1.1712022817653893 -2.484146652598993
Ni 6.063914656284761 4.214456546838274 7.2008087729551615 -0.39998317636713693 0.6076007850822375 0.41930835905831015
Ni 5.285355918095574 3.6358729806567283 11.676200043110036 -1.3682619124589857 -0.3186825804144318 -1.0508111475691257
Ni 8.552409884324913 0.7197848082495241 4.237773820866774 0.46070697660975496 -0.16405669340501422 -0.3645865420353979
Ni 4.35931365389414 7.9311148686114255 5.827830815268394 0.24806131855244376 -0.4752167401901558 -1.0752422840282967
Ni 7.441664247851726 8.551767054510412 2.464358805162319 1.5505394997474007 2.217662351454671 0.3952901417668418
Ni 6.79789773847996 5.835058059039977 8.65576038858687 -2.508670605882286 1.1760948339710005 0.5758977975520018
Ni 5.1753861034008874 1.7257041868723237 8.293870161231474 -0.7881099676163201 0.45472967598039754 -0.9335400470590827
P 0.5984424158080401 5.514506380398414 10.52245276536008 0.1621435355427014 -0.42689002806031 0.32173088032245234
Ni 4.312423810567954 8.059791030908038 3.5728370890469354 0.6988276390097191 0.9605150329860296 -0.4243628907630821
P 2.3542815460557804 0.7905245560219365 1.9390841971688852 0.5780768074811915 0.6702783666171166 -0.009868151043331393
Ni 8.719251771036651 3.5181983914711155 0.5421571555787956 -0.8331353832870748 -0.6618387204901957 0.43533070262849544
P 0.6072363276703894 7.7010736278513505 3.7542996807253046 -2.1182943564772936 -0.8750214819978995 0.4551623926424419
P 5.618791742876315 6.0037090525153785 6.128525480940077 0.9752094017734109 0.5803218947616263 -0.7331356682629696
P 5.1268157192739405 8.354243819080933 11.619090124061621 0.32093203857024083 -0.8906527607772532 1.580490023362904
Ni 7.519850719860959 4.798384783763229 10.696657808432752 0.8875599807845423 1.4866972084804588 -1.293674723970714
Ni 4.835035266472748 3.125870172399183 5.15792133566925 0.7452396506153552 0.6604786069178754 0.7477886422894541
Ni 8.903688828099538 5.481005763779941 8.450480952281305 2.296091539396852 -1.4729857724316373 1.0898646619271617
Ni 7.0361029178841745 4.691794417236196 4.72549522942547 -0.5663235236000054 -0.35675470469580495 -0.3244351666274929
Ni 1.921225466593791 9.07243165440558 4.7980073508292875 1.484495829953766 1.0032488244091302 -0.4973711648000079
Ni 0.3073800957424747 5.1338225642519815 4.881218915331291 -0.28659444163063547 -0.5367555801349014 0.8849392553322436
Ni 1.7046836519381994 3.2782024718693674 8.856268191012237 -2.0895321967429363 1.4969276279592154 1.403363641258125
Ni 5.319058566941462 0.6846826270646413 1.8231856549279033 0.5980589070300733 -0.7143457892499762 1.514136535638334
Ni 6.660322974894064 7.896144926702668 10.095698254736796 -1.1526337747345825 0.7635052816937625 -0.6081695131015139
Ni 1.4851664535697835 1.0618997538543102 12.768213618788717 -1.5640452475433193 0.4820139656176473 2.4094993002967473
Ni 7.208234375640934 2.181543991616778 2.3760404169482725 0.6713145211911148 -1.3167691438963323 0.2058476612988713
Ni 3.81810604978419 2.2129600029796612 0.8704090170697534 -0.6960439056169948 1.6032175468674066 1.446824026434605
Ni -0.17411872021186903 5.373644001475508 12.545353705384903 1.4272463614129935 -0.4419428086283744 -0.17144295856675637
Ni 6.6964500104689195 7.672623816918228 4.72760554787364 -0.3773538690033953 -0.8985311350840655 -0.3658767216017311
Ni 6.021230756602013 2.2765358716336332 13.554236529452545 1.2873624085994408 0.18046650222160532 0.6092848576528798
Ni 3.8148368010133082 3.388475334905175 7.441100394271579 -0.488323709885759 0.9204215073992535 0.22411843458360112
Ni 7.7407178608398235 3.03749943947167 12.002942172865227 0.16476117567120657 -1.958578713649795 -1.491924261207353
Ni 1.331722976848822 2.173912683390366 3.6541265924035864 1.0347669496220697 -0.40634948490479694 -0.10308940969302245
Ni 2.7999187233158263 2.101924927449519 5.747737893695017 -0.4536824656628057 -1.99072135982061 0.885549378112417
Ni 6.064713601911353 6.967852758150487 2.2383811671581855 -1.5413640038957197 -1.4636966338202275 -0.8932218070560102
Ni 0.2916702534044204 0.1047601382123235 8.751027767095652 1.253343885562151 1.9585414326539563 -2.0412342809684976
Ni 1.6466912193873064 1.0393180607992594 10.66519312566963 0.68405742267908 0.056566069320502586 -2.234055962321346
Ni 5.102406552889098 3.3279299496624133 2.9039625654491363 -1.0322863492920609 -0.5777752170803726 0.13906737044952822
Ni 7.512908157864367 9.275024062086539 6.259666436411141 -0.1155723726513816 -0.05935725891239455 1.0895134492353302
Ni 6.7391981931331175 3.098219307092653 9.31529367665169 0.39973840734618254 0.04921862781649588 0.4690550914641341
P 8.246404526057159 1.2655574223707244 -0.2687451055627657 -0.35293224562592124 -0.23364077225173954 0.505759131753387
Ni 1.7393964619211568 3.1374411090601684 0.5919351414286953 -0.10367382144158276 0.6644033958935783 0.3224315059339028
P 4.653445027159786 1.0159098722684239 5.888825263052998 0.9827723017223333 -0.5253517091733338 0.6763417992023771
Ni 8.589987878623923 3.181217819427565 7.617025466262192 -1.3201946246381133 0.001984891640512711 0.4392470069637661
P 7.104353077617862 7.96833471487093 7.924009762504595 0.3366486779745493 -0.3171365760835506 -0.0005900681755151128
P 8.857662213381396 2.902211313368779 4.800198482168423 -1.0779915646386595 0.29339063861686243 1.2201851394219951
P 4.989847052370287 4.383989135487845 9.390453338562937 0.05144828847796301 1.3434798204182992 -0.2560052559898688
Ni 2.286205868700314 5.911720106060541 9.08313293416038 -1.901920598836118 0.7293510044095568 -0.39261285204499474
Ni 2.5670582146550194 1.2748141716995132 8.349044244209942 0.07203613993164368 -1.1607438054362267 -1.137508231947054
Ni 7.796689971116576 7.259972992425057 11.93600797759465 -0.10505039007413519 -0.36603818688025996 0.5207422354257806
Ni 1.4223619806932104 3.426227811582407 6.729766961426108 -0.3928169976360009 2.441821923688853 -1.5813017206309217
Ni 3.8625623230983424 6.399012655300135 1.966623944750338 -1.3671059444776712 -1.564692651319331 0.8250752319867596
Ni 6.501341978485345 8.846734106534909 13.336766284879156 0.08718842219204984 0.1819770253288608 0.41722653682861693
Ni 8.891162829999868 7.516746770185233 9.658863254293856 -0.3014572176750808 -2.5099780118398 0.9274858704452027
Ni 6.705679209948515 4.964721589906433 12.830564437481913 0.49362223928053695 0.39376727736441214 3.0501174208452695
Ni 2.2616038533711227 7.886089231747287 2.539021651459789 -0.29528631297767854 0.7185757681709237 -0.8411950203667578
Ni 2.4247816101402155 6.477437892669038 5.370646577883329 0.604938407758726 0.6784205361082768 -1.0011752297095533
Ni 0.5677381088826385 7.733848765107746 5.983608682544294 -2.6961554484032537 0.17793859359342903 -0.11545384479564633
Ni 8.041121416438369 6.108618878241649 2.96955324640741 2.107115457042339 0.844958601174248 0.9728432155340795
Ni 3.787810398955149 5.932804923976114 7.380939788589211 0.45974975490280817 -0.8655539088270964 -2.6911590236299268
Ni 1.7364118949252678 5.553948581159473 3.1473324232486988 0.6112270689809151 0.20676708778934716 -0.5324980904101281
Ni 4.579905296381076 5.636368546661336 4.313242959417288 0.5382141669582988 0.267366703749275 -0.8655343684430706
Ni 8.839855827519767 8.367752428468481 0.4017667974053938 0.43095622770988357 -0.6029056935994133 -0.45180170370032513
Ni 7.988464471347819 6.228231140153824 6.447821804786754 -1.6563054278313216 0.3011851949606168 -0.03194955632340304
Ni 4.895663301263088 4.365438903698011 0.827373397645644 -0.14558845939749765 0.681120194427627 -1.5327515796363604
Ni 1.061321207021261 3.387309057956012 11.571658467034643 -0.3376768621287475 -0.19259696693655218 0.023056881819463516
Ni -0.0837524598744893 3.9094980828398493 2.778655749708805 -0.14123429619385997 -0.24419360806692136 0.54358288746938
Ni 2.940432137482289 5.247401409190928 13.209013042530502 -0.6502826402214801 0.3317692383950609 0.2942879536201512
Ni 2.778889005098638 4.266984925965924 4.826138501840079 -0.42587418520128595 -1.020600171203384 -0.23029448148732595
Ni 4.096726857954276 0.34722176931682935 13.30323260844165 0.5491277285470091 -1.539015301157885 -2.137939641512047
Ni 6.163222679341825 0.8770916921556259 4.186202339834422 -0.7308980371817025 0.028701481699750567 0.31151280213886995
Ni 4.044189295543562 0.08949935841611224 10.10587333237201 -0.2874177088628792 0.9672950320223406 -0.9833885951500935
P 3.2255363434957536 2.1738208505597236 12.06584490687059 0.3498770037393652 0.8690781199302711 -0.33562640735762195
Ni 0.6342305882378241 1.2317813072603232 6.489595641117832 -0.37795884957724585 -0.6838903009735964 -0.16246055256248795
P 7.854921169027141 6.316262091607958 0.8302523568862941 -0.25148397108074755 0.6029581441039035 -0.4224121947946145
Ni 8.90386331047776 2.135930624636527 9.709131627459389 -0.11625422920975462 1.1499364304080777 0.39784581830916
P 1.1374873567563533 5.721589413497803 6.900073700837996 0.5563558708643322 -0.1761673606256192 0.28686595012446725
P 2.209075474243473 8.27254933294115 9.662775332879237 -0.9564691450514302 -0.3043196268245404 -0.8981812079438145
P 3.066766562597513 4.293735829532156 1.9214633136251555 -0.316223577350978 0.0205647115252291 0.45904372997471904
Ni 7.067381180001093 0.736282576274493 8.999464960490082 0.7891821176345764 -0.032749683627195214 -0.3256181311920005
