# total energy = -340862.6187745263 ev
CRYSTAL
PRIMVEC
9.31507176841811 0.00000000000000 0.00000000000000

0.00000000000000 9.31507176841811 0.00000000000000

0.00000000000000 0.00000000000000 13.63354911496414

PRIMCOORD
 96 1
Ni 0.9304321880471851 6.827584101886104 0.1947297061277594 0.05166580380540779 -1.2271515434374995 -0.988180360111782
Ni 8.470874490572449 7.31796672450817 2.3471241480825076 -1.533570733103546 -0.3229716947080889 -0.22834224285696156
Ni 7.151208314999391 8.188031660367745 9.843817285927907 -0.06106961361781095 0.7443068543884407 -0.37522319581363767
Ni 0.4344186047197198 3.0335554909529026 7.32039795816261 -0.7781489997488663 1.1750656213755375 0.8991258312452708
Ni 4.746690285543439 5.251352912733539 8.440611686371124 0.8005029419640343 0.49800031374357456 0.8838416513926907
Ni 0.6746701336286466 7.577689547317008 6.888745929670358 0.7272455280307798 -0.10023522807367899 -0.1502095031092768
Ni 3.7886724448362545 4.375000303629722 4.564266720338596 -0.871783434676576 -0.6664988449700263 -0.8755570427863953
Ni 5.834429811582947 9.164474712448428 6.300867111476643 -0.33720994979465796 1.0721770148394116 -0.18151371253919707
Ni 9.133231962728148 6.445284253564696 9.114735956811455 -0.6321234528139501 -0.11413538309453893 0.44685361566643045
Ni 3.1475999109962496 0.5722509227835433 1.3549330361696532 0.23256142314463174 -0.5694589839051934 0.7990518113398044
Ni 6.950580305614958 5.3945162462013325 12.15545380621991 -1.3179335965180785 0.203149802751734 1.6656565300289186
Ni 5.883809005461063 3.8991026171480963 10.411627714140295 0.4758872838946191 1.3289001228319113 0.21221988337380226
Ni 4.896774717115635 4.171969005805269 6.551874753415387 1.1570607001576847 -0.4441017639529061 -1.3851070090407822
Ni 1.313378502328816 9.09438811468594 13.480021572402034 0.41396843490263546 0.9578176886595245 -1.3741520526911755
Ni 6.054712621775307 7.653830941536914 12.065690982985107 -0.5511123630772057 0.9336544611497598 1.6630419752242067
Ni 4.120382139988062 1.7666964555600073 5.2298155359809275 2.5686351593613765 0.399603424430215 0.5338000970510032
Ni 2.4521180446827344 0.050393605161521055 9.004890770988116 -0.4909002123636836 0.8239362332863102 -1.2829784205991324
Ni 3.2057725323448327 2.412435840207961 3.0785510121958484 -0.2003971797072613 1.290961438804609 -0.2771762336405291
Ni 1.1322469375372715 0.6126857850333318 6.898535138281282 -0.8617077956081288 -0.03144382033157811 2.2179158622263735
Ni 8.862945848868982 4.203556413170047 13.326412317784474 -0.18847446012774638 -0.015536662183018402 0.241579567482842
Ni 7.47986266670807 4.145905435823949 8.71814958337198 0.967435671365263 1.2089581603579242 -1.9598462675083088
Ni 2.692158121469226 3.967447296545142 7.684468211611453 0.14204085125555538 -0.31070598996685844 -0.49985536467444236
Ni 5.984775065156387 3.9407782469180814 2.202459225093274 -1.7790216106163361 0.3572861517192428 1.0780051914854145
Ni 0.9129953057569669 5.641449475877808 2.5313678782531652 1.0530755181232703 -0.5206193366946711 0.0719590068368051
P 6.723218041103154 6.0666359132606855 3.017486061154914 0.4764395568536633 -1.5473922123676704 2.0354809234244877
P 3.0394798764097004 1.6414739497491186 13.13859625770394 -0.45000578814216696 -0.18505309315102325 -0.5392513499735616
P 3.0779324914500448 0.4752204807855426 3.8371210630742234 0.24959472447783468 -1.1521856314535706 -1.1902366726890212
P 3.165699094868195 4.654620119104784 2.456915306491305 -0.19139189088485747 -0.07846955426181325 0.17055747063800947
P 7.439165119442744 0.07381821539455255 8.048292547173409 -0.9976232506922368 -0.017846798373433784 -0.8906453045780854
P 5.954370671868672 3.812817110094145 13.22865995774732 -0.7934869156575174 -0.16326016564564785 -0.2640736348203
P 4.5446091250092255 7.671473686906685 13.59690150020175 -1.9963243078296844 0.2837351178049694 -0.8996775899836827
P 1.2591741014277102 7.2952845254715335 4.010267748599154 0.054607917152867246 -1.3678921878243926 0.8560066314582935
Ni 5.683330037220199 7.175846679045348 1.644029073854149 0.18705572540334883 1.6352828028330675 0.4056385748807014
Ni 0.0581092788625669 8.990329451261598 3.7797104145721274 -0.6005112252253076 1.1167864260186702 2.5100829128487803
Ni 5.565624794087981 2.7716063660620303 8.296491695063057 -0.9298466573678954 -0.7406126933663052 -0.967749603061256
Ni 5.453173251266509 0.9098756883206753 -0.11150978909555674 -0.5598237748082746 -1.648816318543128 -1.0252219862461118
Ni 6.091320852664007 1.5158229506504741 10.098996216872239 0.7787166993268783 -0.7573469754018506 -0.6300298035097149
Ni 4.491941710901157 9.389312592591061 10.37215882480225 0.9022821174860656 0.331287670772952 -0.6147875326386638
Ni 4.389177842411555 2.8932053090699403 0.8397369261579387 0.2900554035960424 -0.6099291761050979 -0.42642722949127854
Ni 2.928155457236455 2.2481459246395126 9.514921673868077 0.9520846428304893 0.03853183752661106 -1.221389958363374
Ni 7.358086737342172 2.024230236572701 6.519194688166832 0.2207898844310004 0.335504537067777 -0.3123031592506492
Ni 8.288979089920122 8.223717699180623 0.021025979328746433 -1.1101411527880107 1.193409413990048 0.5452433058909384
Ni 1.7774553631112666 1.4012662016761148 11.362962922572782 1.9573972917471838 -0.6857016431507224 -0.1927329782937842
Ni 5.230617563634748 8.426106257073442 8.378401913046163 -2.45579664070139 1.8044241098498408 0.909081399796086
Ni 1.5202289794571802 4.677870537501272 9.750155173774525 0.581128964043954 -0.678828827290289 -2.0378951892929353
Ni 6.36197956938209 6.848561642843191 7.490012368584998 1.5651626489772141 -1.5418139469489447 -1.17053148095061
Ni 7.080162264875188 2.348459929331729 11.896457558985963 0.7703693558034475 1.446000244981729 1.0331695232279627
Ni 9.013626445015449 0.8868944754897563 11.165835517047885 -2.21154646836492 -1.110581325649223 -0.23416861973075154
Ni 3.059143992289101 6.634380204465614 5.233905783864701 -2.8808760979155226 -1.4901936516694918 -2.2643612981731067
Ni 2.008133793067441 2.488633124856705 5.69086127250608 1.6050170619699906 1.1600557782302667 -0.5665677784003275
Ni 8.167557133270197 1.85749977227834 8.966239744925396 0.28760128562859505 0.22807356257660721 0.1465338540299025
Ni 2.895422296080503 6.361951624167671 7.6617953276462885 -0.8146951743040163 1.3497702814127013 0.3866761748455857
Ni 7.131227486689909 2.326476360655563 0.6400907253067555 0.2952968545006398 0.5414504145074094 -2.5664492074536507
Ni 0.4009421008602262 2.2202193403636037 13.069692674018516 -0.006094028712879827 -1.5503811197926654 0.7574963564955213
Ni 5.485431343777341 1.2444376583575008 2.3757689243689812 -0.8794928875056918 -0.535910972746419 0.5971821608520748
Ni 2.9282392928797116 6.719715574229325 1.503603439892256 1.111151853440712 0.38194251681534225 -0.10947525861470823
P 0.6009348223702033 5.4868006592838645 7.36000284754416 1.1187065258595186 -1.4569148350117038 0.3079322838764632
P 2.9346760072675213 7.5950062651852255 9.807361822211364 1.500148191779042 -2.620169322684926 -0.2948543676465825
P 3.6774318613062658 1.0772041802036 7.417127523352035 0.5302591737772804 1.3134722183126155 0.8769716637457348
P 6.9994844308479545 0.2451838592538546 11.954972974964752 0.3185188011430579 -0.2831028835376092 -0.30979607655807934
P 4.473209102169052 7.476341569691294 6.185731896563814 3.1960671202369277 1.6341358337128178 3.4341085926595243
P 0.1875384709506407 2.7307877228675554 1.8694864062497343 2.024016374428314 1.6363446684386784 -1.4733668099201398
P 0.7796584411859898 2.669969621220655 9.688558332152484 -1.0201828811603075 -0.5083816569778986 0.5125658702625754
P 2.4820566843968015 5.492706414597716 13.022820165873773 -0.6041639914865466 0.47369721822183575 0.720265754278837
Ni 6.904675633396253 9.409712599116824 4.184695256451615 1.000681063681954 1.3810672917537699 -1.520780009096781
Ni 2.1038834127379107 3.115733051487282 0.9084523453996084 -0.8316174039806516 0.7927870613770153 0.46475594986814794
Ni 8.580596717452346 4.302883020286131 11.076044748598664 1.2930131791273152 -1.4548317272304299 -2.609141604115855
Ni 1.0549784196691376 5.388405559315077 5.190864564616781 0.2640957463074871 0.03617979235466672 0.6168338736447312
Ni 7.735803570498889 2.2044675545028425 2.6139329457608196 -0.26787321107204837 -1.1592849615025131 4.274369531247787
Ni 2.8658376290824084 9.050597963691594 5.943340695737549 1.0299379036645422 -1.2405408202602117 -1.1993710308901215
Ni 4.31787097028611 5.428683928364119 11.868753604918258 -0.16690984658309319 -0.7206259658317331 0.146410955298793
Ni 7.560577761021196 4.182401885854974 4.299066635503663 -0.2917407617182653 1.018668244287994 0.9214856869977097
Ni 0.7180532159996242 3.559149083742726 3.8832166942581243 -0.3375886732903154 -1.4127018879399154 -0.6062535270257237
Ni 5.473116819290099 6.104967432371882 4.935589688436277 1.6699610709415433 -0.9585517386120717 -0.38448945160691206
Ni 0.12687499949019046 8.892418735009402 8.947930040438163 -0.4879200466894371 0.009168039652513242 0.16267472545582307
Ni 4.388320855836043 2.6039350795489007 11.60343149264703 -0.11146323557901448 -0.8819434059287135 0.8414302763060154
Ni 4.917612532000628 8.46356215946618 4.1570602339128095 -1.8963839852886053 -0.41950376289856783 -0.6749343773318892
Ni 8.343481573108361 7.215472993091284 11.572797017093933 -0.35124380217990475 -0.18897222569977132 0.09555839142329994
Ni 3.0810157801075913 8.608746863443606 11.719180570769925 -1.5688544960065047 -1.4205643214071275 2.6954095713761648
Ni 8.141614659218027 8.943483956824123 6.02546981790027 1.3738797728663952 0.21333008571884549 0.6788239421942825
Ni 0.915665936748262 6.0032189066728305 11.35866867462375 1.4789468751110786 0.4449962507427175 2.1170247457362503
Ni 0.05155053703846165 0.572035744632518 1.711937807906261 -0.9017486135800986 1.0067288125379306 -1.4901075197135885
Ni 8.06156093497948 4.664242587936344 1.9208851076231865 1.8076040502397193 -0.2040239778265712 0.9482835239168443
Ni 5.101529303162586 6.842981915030894 10.2188905018006 -0.688976200136936 0.20936287354098135 -1.421294771815249
Ni 2.2148631742666565 3.7233179033820254 11.940984532133818 -0.40773248129525264 -0.11647508697130908 0.07831837339592963
Ni 4.36139098420774 5.286666348687499 0.6887163299027103 1.8017794731381422 -1.258026121529169 -0.8683967775925303
Ni 8.307348410864783 6.523568114223382 5.496447347301253 -0.2636519739018492 0.8971018588367066 -1.2485837451693467
Ni 1.4090536014275024 8.121289173264046 2.0569885484216304 0.2559733743106688 1.431040024127471 0.45613015587234984
P 7.211411621929077 0.027035131935947535 1.8257092963554507 0.02238068168804533 -0.30984158508403414 0.2254906323407794
P 7.229296559157144 5.059807098035235 6.46790590463676 -1.6863425976233601 -1.6363888914130529 0.4253869611522223
P 8.237122087030201 6.040227685634868 0.36441677410763557 -0.4304777454115683 2.014630048117408 -0.7271156873211349
P 6.149223336939874 2.5831345249498 4.055435598664348 -1.4660234821811913 -0.836137146227876 1.4649464470669287
P 7.10014309318467 5.916802988618259 10.017631862077447 0.18259794674231133 -0.2576715879486982 -0.38721584939913956
P 9.420704383454908 1.700503557673213 5.485349371148378 -2.3204769102197518 0.21110273905022353 -1.3578947102920484
P 3.7481518839289145 4.15957064567477 9.936416548426225 -0.3194881070348627 0.4180978836899767 0.8044223316230984
P 0.8058226139392164 8.172084258006052 11.03395832417672 1.1585714803752563 1.5477452248317152 -0.06008719509988361
