# total energy = -340859.25031446107 ev
CRYSTAL
PRIMVEC
9.39159310280139 0.00000000000000 0.00000000000000

0.00000000000000 9.39159310280139 0.00000000000000

0.00000000000000 0.00000000000000 13.74554582272827

PRIMCOORD
 96 1
Ni 8.403616327690866 7.630519163331759 11.338467584265887 -2.763667732322615 0.15226612852798938 -0.7333146170429952
Ni 0.8366209612201637 6.815188004607839 11.99704366183723 4.03337334707224 -0.013899383689911546 -0.8634538317649583
Ni 8.145497781744103 3.812235488673781 5.712580220705567 -0.4535009457796189 0.31038460207169766 1.0583843319306934
Ni 1.4074992811799423 4.569939831871238 3.4926611746760847 -0.5475912372978247 0.5028915803976048 -0.905948253483743
Ni -0.04813848897392392 1.2534865452251696 9.240181878511486 -0.17290205961078609 0.14454793394812526 -0.6503417755941896
Ni 2.8750484089172854 9.359718076037696 3.6870089248621247 0.8909170701822334 1.4619994486234629 -1.1585614530729273
Ni 5.0663888370121155 5.143052411839776 0.9051260590843565 0.9677961400284752 0.7112537805882138 0.5568343531626475
Ni 0.17119465561019417 1.8497494022916103 5.898007835724228 0.5293536312438754 -0.10690492678437072 -0.4714999534602009
Ni 1.8816432526058007 0.07672368102377707 7.4926008005464295 0.10181414252502467 -1.0547176817123836 0.37745979845364025
Ni 4.880529208708867 2.6581965232415916 0.451980750767302 -0.11247830710709017 0.8937884781927576 -0.24009835495162524
Ni 1.2457196976957716 6.489215198201704 9.646898906965985 0.8887629999537081 -1.097349143229665 0.9978191687531267
Ni 1.2336327173205175 1.761421468780138 3.2158665066048218 -0.9808594009703366 -1.0190402829154321 1.3189543244731092
Ni 4.033632905430767 5.8369220964431365 9.992159228210241 0.2510412271163741 -0.12050554828694084 0.6681574636193719
Ni 1.6178803591799948 7.161719008404362 6.454798765969259 1.7946906846121606 -0.0466467533242616 1.9410345341184443
Ni 7.451581139175025 6.072096980341146 5.298632604690143 -3.0252972764777963 1.0690824350744879 0.7680995859326643
Ni 0.552675534129695 3.184369920680587 1.4750210792420455 2.6393991174488156 -1.5528365233116934 1.1585303427246756
Ni 5.067262255174429 1.4347161181088361 5.175088075210428 -0.7933128519734983 -1.2143263666483732 1.2673844228156173
Ni 0.5721593332645063 3.2340796231873634 10.25467210058869 0.390273919499173 1.0606754419577153 0.6838982713933963
Ni 4.92836059258701 0.39157871946703243 0.17879245446301512 -0.22501163582183184 -0.5587583096582377 -0.12606504465258933
Ni 4.098472464491182 3.0124568081949414 8.795115218616182 -0.38575623413447757 2.843499971259909 0.7025547101523191
Ni 7.451637488733884 3.2299567137975136 8.57944761283584 0.12677544045605263 0.3692260976899383 0.4616431152707791
Ni 3.3801846377155904 7.624067138842405 8.55990089002697 -0.4737771795301517 -0.07199165984695342 -0.6216490356451875
Ni 8.962472469268079 2.504277703218251 13.236823176869951 1.1815244896270038 -0.469662643141146 -0.32288761963471485
Ni 7.621296618865171 3.989163711897877 11.446754531525215 -0.6056817136826537 1.2523067025468884 0.3758672571555398
P 2.407149846931632 4.626214257985087 10.93756489112632 -1.2932939435925275 0.9604070466532556 0.27828206511019815
P 3.755876538221644 6.584624392943123 6.698946377956249 0.5233958709985438 -0.47591042382307075 -1.038396833065173
P 7.460089922562733 1.337165640130775 1.2488649422394178 0.46963101857226214 -0.46395016613740103 -0.8692048753161223
P 6.532839148351708 7.462569303152529 -0.013528589922730047 -0.8146866896635842 1.0578785959388683 -0.7652824281988433
P 4.830716198677517 1.3073661150875107 8.140538081405197 0.36141200096215825 -2.31393936621155 -1.3190787658661154
P 9.005006994613476 3.111378458771904 3.7680668261214727 0.5803715170526392 -0.7829405076002387 0.48988488372529176
P 4.6693216705122165 1.8669548009298897 12.070967708945032 0.34640961401605497 -3.447033271140992 0.8010007075360592
P 8.827731282443082 5.253084317105104 10.169188880640283 0.42759965253282484 0.8545675850189217 0.20153335019423357
Ni 0.11920373512894371 5.522266159774516 7.926038789811866 -1.1901317716800406 1.9150252545388762 -0.6320463197191115
Ni 6.953488605234095 3.396582359343557 1.5992389859501255 -0.7188452197822266 -0.3537382864669843 0.27669672290094927
Ni 5.468255107608171 8.686697728212163 8.547103905210092 -0.009045398031719904 0.4481913606412475 -0.062385761326073194
Ni 2.6694852181996764 1.5713731899350387 1.3611921528689355 2.3469993819903125 -0.44227422382586407 -0.06053816659437316
Ni 9.21972698864567 6.442820728074465 2.943608917181023 1.9594878557276254 1.0504727903931006 -1.1597459602993316
Ni 4.848597792022105 8.097544307155099 4.24165575439257 -0.43843685235764485 0.2587087709639609 -0.8983120770947239
Ni 5.890632617628901 6.323622627901408 11.946844657327697 0.6448596694336959 -0.7677185484441617 -0.5694769816273225
Ni 6.884385262886683 1.8503316810664867 12.89725322191114 -1.7588047693488291 0.5032021696594882 0.42738959340454774
Ni 5.422142385275228 5.15621003383335 5.836812214803362 0.13042949226887215 0.3498248103451911 0.6873967714649581
Ni 6.213459240332075 9.278415054197312 11.863422892074214 -0.35861489783299527 -1.9435601287537754 -0.3784051930860451
Ni 8.607705038284998 6.62472649566444 13.449095721729037 -1.3780580726138008 1.1307557437145688 1.4609931188461354
Ni 0.11837163997645923 6.148037402496783 5.323237639565923 1.8759126048081305 -0.6976649861601856 -1.1330368264392616
Ni 3.9820918422610734 3.284315254910156 6.2178253919843325 -0.2817042034178697 0.37249242714603586 1.1281908112008698
Ni 5.216400754287899 5.846088291350866 3.39417435486165 1.1882371257604891 -0.5751637475994545 -0.29520480900746576
Ni 2.1799953835778854 2.3312939491142832 7.480243342288652 -1.183248414296646 2.246591632894512 2.386202791662652
Ni 3.380917181980757 0.954749358934215 9.933287087432992 -0.4878226018796244 0.2174068268913804 0.1249468718877461
Ni 6.788309265032098 2.3727108748756436 4.198068431455824 1.8499575755052655 0.7274923539342631 -0.8740897142122495
Ni 8.20319033842257 8.684612794534381 1.696008083378675 0.20132303395564038 0.13530996028962503 -1.4328804197703193
Ni 6.22964095531775 6.2656671066149325 8.092016415431031 0.14199302873675543 1.4641306360338526 -0.3671527601006774
Ni 3.445972747683465 8.23719729719397 10.931846350061445 -0.30080749990622385 -0.6861261322826506 0.18107816766367524
Ni 7.366239732283081 7.683591056183788 3.512082989296151 -1.2489375289643394 0.8309777135141236 2.34206774901665
Ni 5.395611134645785 7.919864756479549 1.8466999519980245 -0.6511298187131238 0.6177337597511812 -0.22142263291899283
Ni 2.4465945381329273 9.304833605709037 13.173799951923423 -0.20765720370378432 0.6275535740550805 -0.8449837979852287
Ni 7.79642165620578 4.792933819462562 3.4789015515620325 -1.118669759084312 -0.5593056975212755 -0.8220184474383069
P 2.413301340440406 1.4105233741720415 5.707645877668147 0.6130780061467248 -0.9366407974715935 -2.609579205873906
P 1.5771584113112287 8.488150057572499 9.399313971888596 0.6888057359973427 1.478273503193138 -0.8527588139449572
P 0.15132298367857006 3.556136135252798 7.579734123410091 0.10309429478902891 -3.5668263667419406 0.47119527773558845
P 8.06802652990613 7.160244528280886 7.115862676564228 0.3612657051922811 0.9939853968293333 -0.0537792506039848
P 3.3741928012902505 8.577905513241733 1.3748296852721265 -0.22494350158805776 0.7943754889100577 0.034043976958586526
P 2.044859749840876 1.8356995789494346 12.014074376843048 -0.6334015481954252 -0.448856247918756 -0.40653794676651916
P 7.86062258693246 2.0055089745710117 10.927832383152056 2.211168259089895 -1.6543048524615254 -0.983553402862732
P 9.261932808231057 8.951972668134019 12.997045473172475 0.714209520782428 -0.8445940187459777 1.3948558608974302
Ni 4.30014753564752 3.6526629295782542 11.237712694707376 0.8020363478894251 1.8215872518926886 -0.758081796685346
Ni 0.7832504157061823 9.306129645562793 11.086800123649164 0.5205589157703808 1.3545458484244737 0.9991162902979955
Ni 0.3984749663120589 4.635962731667692 12.584363843912751 1.0650648292746625 -0.22538367444926988 -0.46132635536130867
Ni 7.854358394305969 8.721164875047581 9.376812653876886 0.39622576620723376 0.8368953645501392 -1.3706170429547233
Ni 8.698512352386265 4.740124891218541 0.9716917929644857 -1.0804348839728295 2.3877642226125007 -0.09939422022962237
Ni 8.980335279426379 9.330932843053894 7.2015797471819 -0.016762821280635644 -2.347822135001924 -0.006239810262124738
Ni 4.765454017925659 1.592926896198604 2.9172993081497585 0.047788066017556405 -1.8057613406040254 -1.8804228339736582
Ni 3.284136814640436 3.847247347911502 1.735430234756427 -1.4960197714329655 0.23766891957452618 0.6708386099959608
Ni 5.941412961753998 7.9266360951357715 6.1579220542799655 2.1875015116005745 -1.1813198298153653 1.2291929993475605
Ni 3.3716007215827366 5.2616776248311 4.739313457570972 -0.6388000935031772 -0.0005134493013087932 0.6711810809370441
Ni 1.792272852255437 7.220961177951451 0.3689205618498311 -0.7934012979222466 0.2587936173682833 0.04135310902549007
Ni 7.330194797799611 1.4001456637488434 6.921899981697057 -1.3419788103927404 -0.19830044507923267 -0.3394516946409832
Ni 6.049754380253556 1.394332267593224 10.014056666782846 -0.8151150354502542 0.40514518018405066 -0.27910121857738385
Ni 4.155517001242769 7.378768117536063 13.06225506100273 0.4663999132294742 1.4750467687257243 1.3947846413398626
Ni 2.59482205271151 5.156557522779648 8.095177625683021 0.2736983023942577 -0.5262469672940937 -0.8698193689716697
Ni 3.0758031039455935 2.8574485633669933 4.095966787440585 0.36799479638599847 0.07072359176780722 0.08305177431585696
Ni 1.2820369883803928 4.116457365360344 5.851492214045443 1.249996566356473 0.2209222962438066 0.032419811091602226
Ni 3.347633375881378 5.30422154176964 12.979011736018968 -1.470569449680661 -1.0723330808013016 -0.5062281009700056
Ni 1.0968065968177378 8.937077601408959 5.096175213824979 -1.1102205998756944 1.3982404610989467 0.749214061882071
Ni 2.298611204976067 7.203427073553161 4.056695840712438 -0.8139994337885723 -0.9131028622506532 -0.2921516240034388
Ni 3.297022080432859 6.42930622554145 2.018272149652574 0.17865953091985362 -0.23070380111060268 0.4484484709573761
Ni 0.6424751302867014 0.8222189531351193 1.092395365518393 -2.182192697793152 -1.5419329890253122 -0.8220953234228294
Ni 4.111188681607028 9.132075249840506 6.488983225851068 -1.903162441663019 0.3847779293816083 0.4775674998105195
Ni 7.063435986161135 6.3903780719630285 1.7453956542406401 0.9312149984703317 -2.085184975517835 -0.8671649620679582
P 6.2866197509173345 7.534987877879479 10.117670357294132 -0.454380777281411 -0.5111638477087261 1.1672769785690542
P 6.147708696736773 4.267765322489884 13.098364797478888 0.06966481148598969 -0.48414900968277913 -0.39171039483538345
P 6.1445155550680965 3.1755981726848708 6.626672433763704 -0.21964008709727334 0.5026799786074311 -0.7790925946090582
P 5.669178851313055 4.631990087768133 9.206588149838382 -0.3303993546307277 -1.9935248907076761 1.0906830440633988
P 1.5136148921045705 5.279258687195107 1.2312040513336948 -0.29546629019896853 -0.8066172823918882 -0.02683820323876668
P 6.8218560357394855 9.372640908202692 4.713842517807393 -0.7949406173849083 1.086457950238458 0.4483587394570472
P 5.088750220285992 3.595580826454093 3.033092016649104 0.4112024421217241 1.877157532958825 0.07786251680543363
P 0.6060207223421898 8.663772849349696 3.017532025129508 0.09219076050264768 0.08555962833937523 -0.11030341094295841
