# total energy = -340866.17422428244 ev
CRYSTAL
PRIMVEC
9.31058297444093 0.00000000000000 0.00000000000000

0.00000000000000 9.31058297444093 0.00000000000000

0.00000000000000 0.00000000000000 13.62697931124677

PRIMCOORD
 96 1
Ni 5.075962256673879 0.889855245214815 0.523735190225496 -1.5841597589050072 -1.8683661599194403 0.7669698432035952
Ni 8.704845773002287 5.574581218220505 0.5432315510104725 0.5938150441520547 -0.6368128878698194 -0.5897737842031455
Ni 6.033583649136723 3.8424776007449064 5.110253133832938 0.020309400981313407 0.8753773226754216 -0.4715991980422265
Ni 4.209286638875624 0.5667724290471176 8.52129042249246 0.3896882221990321 -0.791904658772062 -0.6052096591422416
Ni 4.842033859003135 7.668121667440511 12.630275081854963 1.1833224620676912 2.264293935270281 -0.4124157457035349
Ni 2.900814547530128 2.837809832424141 11.731684647677175 1.856202785084029 -0.5479730461172756 -1.8020190999527739
Ni 0.7995230379693894 3.5773680606343894 12.201324419661605 -1.9809475682632982 0.25879644558176074 1.737816597132936
Ni 6.493563691267087 1.8231518085530987 11.322834603104967 -0.3370677677898388 1.5625843467270766 2.401141415250355
Ni 7.949208167965079 6.641955762991517 7.316162078123528 -0.46381235500795603 0.22425264616862026 -0.05740656294392693
Ni 2.1310341669282686 9.141837985725722 9.654237541158617 -0.3018963620950284 -1.9572404544543456 -0.22371117184285344
Ni 1.6201066146663894 5.345196385049794 2.07061965601062 -0.9691979054720083 0.4805430374990756 -0.6466453005792089
Ni 2.717991939901761 6.057055628859228 5.009795667583852 1.080073643978669 0.543294923915316 -0.043642419280299036
Ni 7.010468637809747 2.1204759658154875 1.0034499440654288 -0.6490472251524823 0.1638324932093501 1.2719039079525258
Ni 7.662516696479405 7.800294703593103 1.8292036874978146 0.7208640499844682 0.5914090058137235 -1.1704841726524422
Ni 8.251494865962133 5.082414490687245 5.3325917177954 -2.6612645500633394 -0.3301970088119346 2.6067677045670394
Ni 0.06240045826981448 1.6284488970271054 8.993806233563078 0.4839582338282117 0.6620346385510857 -0.07948231179704376
Ni 0.6724829262202155 5.306026762402995 4.1900100078492555 4.118887209775345 -0.4845313327228623 0.3316702509233514
Ni 7.280401059910053 8.763521067017054 3.9220356013521394 -3.568318377906435 0.8463976476136197 0.39947204105867334
Ni 0.5028664495075177 3.4997457302311656 6.758272876308954 -0.06548676884890013 1.1403210188055006 1.8842455501538582
Ni 3.094558469007959 7.605256611079403 3.0118348701834896 -0.8299891243486093 -0.2569506506222736 -0.40117308291018006
Ni 2.886634529633509 2.847921125553312 7.5042684415997805 -0.031169226513952774 -0.437615127787298 0.026145290936800132
Ni 2.209373412221866 0.49225052278018705 7.410610494109659 -3.114949843939623 1.737398535758911 -0.4284635431950169
Ni 8.267685969784996 4.878782730072047 2.9889010421579147 -1.3406261530195878 -0.8072569728584162 -2.1709675185012935
Ni 0.1469386897193992 8.564460802650865 8.290272513064975 -0.9290326461070322 -0.21237286401189878 1.4680520825754457
P 0.5407055898447781 7.963471981108624 10.494777421440393 -0.8492901386700663 -0.14938880698019436 0.7881246229043395
P 8.604338029605046 2.5451502772406798 10.938594291496868 0.39332633317225163 -0.2221803370206238 -0.31353497477522135
P 3.9732447388657257 6.865167679638618 0.846089918803229 -0.5085559777722339 -0.46042261260011674 1.1840639682194058
P 5.38529706599578 1.9428207317476087 7.471700022294218 -1.1659382051529725 1.7116129421543747 0.9730694726122725
P 5.5154031527241765 0.7095129768954824 3.1691855848626975 -1.214100366680496 0.9680625063159843 0.6863752721789792
P 8.303801721210462 0.6542323214395512 2.095747988447379 -0.14993208107817405 -0.3618462602860994 0.16299482779940314
P 7.426670318712337 6.458621073298597 12.595035456289033 -0.3895738081083549 0.09678197941775589 -0.13096531016768415
P 2.503206100862303 3.029021275328183 1.787860043722414 1.4964190637539132 -0.6158982492043393 -1.4372330403120603
Ni 5.0455725137884135 5.493327760450452 13.00045175785384 -0.7573168934948635 -1.5741031459999535 -0.4943889422432324
Ni 2.1560330822614406 6.732287039178644 9.600275264254334 0.01607325141277877 0.27542531238769347 0.8875077873903682
Ni 1.6528519350487976 2.0095683012163277 5.255271981339413 0.5883889880404769 -2.4902303968992276 1.192751725801391
Ni 4.642452201989402 2.7196119813423465 9.587506730739284 0.09149553420783597 0.5378115322032415 -0.20242989386657395
Ni 4.898679445925674 2.794413205099033 13.164792858243343 0.13465381476286487 1.8017313935090262 -1.1146837778533705
Ni 3.0429964603989808 7.8173889339661775 7.009254537787607 0.12708037329098115 -2.1372629271599966 -0.1356640011949341
Ni 2.9464829571052524 4.310706819406068 13.638425939272986 0.09942044548186749 -1.5563350233832551 0.5981702357969569
Ni 9.025623288821196 0.9627980766063243 6.44735992316993 2.0093906540953395 2.09088613966767 -0.43146504902550203
Ni 9.255324681813631 0.11463003567930975 4.283164252799517 2.643312850680925 2.56253624555249 -0.927086578124255
Ni 0.19107364627576234 8.32205977445752 12.852421867807793 -0.015245099084528585 -0.3107694962149422 0.14135616648370494
Ni 6.930127617172897 4.076527035994544 12.99902072124799 1.185378059045139 -0.1614781340445606 0.7414382745913941
Ni 3.932361968948423 0.4665700727720102 5.899501012412498 -0.1704659393654677 -0.0014668143535136028 -0.15768035756502521
Ni 6.5372023937499835 0.9727231580756581 9.338282907329495 0.22952803563494664 -1.5263898990843907 -2.0613451927857596
Ni 0.47705751345405295 8.159254920261674 6.114111812491709 0.9505928887763112 -0.816422184297452 -0.9955815376718595
Ni 1.9936937572151885 8.549964224932522 0.9670753584327896 0.49088709973756106 0.278119828500721 -0.5585387374482639
Ni 3.7886624310518955 5.041382751442072 9.851624693761165 0.06838517344261771 -2.2874431196932346 0.6310968113216486
Ni 4.4344351567850335 7.213765217437237 9.942584434300246 0.0378144997446123 2.581436424891103 2.5684670092146282
Ni 5.031699745130527 2.7520500524860227 2.0974778947672683 -0.7171354361799714 -1.6136248582436596 0.008919671087133025
Ni 4.1830866583365 0.685920890652382 10.851136261221033 0.8790691697047118 -1.0740395219694472 0.08911469268048522
Ni 1.42985416181051 1.0768527182567365 11.60961452512906 -1.0048274817501597 -0.4703776669302996 0.567440667923584
Ni 0.7452935473332403 1.9588535556596096 2.594345535653124 -1.44860554381506 -0.5673601923946359 1.5875968096110142
Ni 2.353212608863272 5.252639879527611 7.801104724313396 0.06535898502178421 -0.14891238156440806 -1.4799807156922318
Ni 8.48911956508065 1.7019373285819381 13.099274285729551 0.3616565128727965 -0.9157086753046164 -2.477597024405933
Ni 4.754411962466643 7.630907267222005 4.6278038617682915 -0.13113114632158707 0.7549838744863127 1.287202228872493
P 5.348585437258834 4.101255944420952 11.240759020856732 0.6862922255468696 -0.540080016522444 -0.42498149818368747
P 6.465464351797622 7.054824255183017 5.893681898042579 0.11789485013697115 -0.6216986579362003 -2.40149571326598
P 6.09544316253471 4.389949191249877 2.8457489665413087 0.16610200596981717 0.23302293616208258 1.1663698933737527
P 3.370151725567322 0.9377898506901604 12.74649908934248 -0.6786367658841409 -0.8660349622285731 1.9695552672659566
P 2.510496287344938 1.780611754863243 9.458827025325242 -0.3084231074699527 2.786659051011465 0.15695222114974905
P 8.978427943635406 2.8840927404767287 4.944985630435742 -0.9754328306381266 -0.2355035364920912 -1.3129726529683774
P 5.981192998641468 8.366312975417879 10.66397026662696 0.9540625924924667 2.613886317889692 0.916489519334699
P 8.151005743730877 4.378562348250819 8.242019485651308 -0.9666052050441676 0.12917145149205497 0.4539719718787666
Ni 0.17669345084481855 6.050361319688073 11.639865540327948 0.3000976183233929 0.020387048296784244 -0.2883060250051035
Ni 3.8531102865216225 4.712113983934575 2.1819928497593732 0.9532501238935002 2.185379065940933 0.48093307384864276
Ni 2.1520667739069035 3.430139811783943 3.7309172642780166 0.48320798592574843 2.7909260538179357 0.5603495654047574
Ni 3.1850666462719306 0.8402093545855637 2.629162460751223 0.3049073810072104 0.4232604017275227 0.1852140442089197
Ni 7.5633310558670095 4.467515658155149 10.747149152959732 0.8939422301618023 0.2911288391658793 -0.6416966983246819
Ni 1.0627844273560203 4.0314638143138914 9.93112496875385 0.4037930370315304 -0.9306208165297586 -0.892095920981683
Ni 4.77500697204466 4.3612074215539725 7.076095213086244 0.6484826108982639 -0.0002095449076448004 1.521642357097076
Ni 8.92070232908581 7.223057179263123 3.7794430917733455 0.5513607316425859 -0.8544292596688445 -0.44133140029662055
Ni 6.110489064649571 1.1591955142368382 5.708218809077717 0.9658924952478591 -0.6675887356000955 -2.1043859739263175
Ni 7.031464002456414 2.2221754638356876 3.70756073578461 1.3425313404621007 0.17571124692480708 -0.7762558964912115
Ni 8.463627188848909 0.35907101260617397 11.022318777992965 -0.753376935010509 -1.3256690174891232 -0.6240972400753638
Ni 6.923973321815271 9.074606265941426 13.471918266221275 0.8312350809405684 -0.6175028746872978 -0.6983183034734682
Ni 1.2294159311615245 1.9203356738222417 0.41089744177212123 1.8950719513454006 -0.31830617091161956 -1.3505410981404546
Ni 5.56754241747865 8.116388996167103 7.501420334262568 0.25394811635052394 0.2542083119904461 0.2962818441217285
Ni 7.368274342187325 2.665908538645238 7.121677034239545 0.7978359366548324 0.9559076161210053 0.2822197096017075
Ni 4.2032440705139 2.3845334100479234 4.466228935585672 0.5303849007218673 -0.8939962233281893 -0.6081242616858752
Ni 6.381240818053162 5.852697642770665 1.2554399416821014 -0.6872733585132164 -0.012361349778830324 -0.1827640400065304
Ni 2.7365013788895993 8.007641386822057 11.796616653462479 -0.8943718615000533 1.050667937123042 -0.3748161901832061
Ni 5.271577605333075 8.318689343414462 1.941054514154051 -0.3585030548454794 -1.1946116618282652 0.1397415136984174
Ni 7.599372322628541 7.13766982264468 10.071223173149122 0.9868996936271455 -0.30432528325149527 -0.11373583366327508
Ni 6.099949484702775 5.300226269199061 9.054623892724274 0.49640854377642246 -0.009713627743338109 -0.4504876128745919
Ni 0.17588156800792745 5.911037755797725 8.830950171160778 -0.17699551295386937 0.4392626906930499 0.12307870833075576
Ni 2.180268529789279 6.352564222438202 13.321285137170703 -1.2741762489264703 1.0987064285885078 -0.1344077601903298
Ni 6.43081036190188 6.54938063630335 3.5422653006384395 0.4010892649471221 -1.2496800635573186 0.9338385521361078
P 2.2074647427085323 9.023984626214627 4.825218015061518 0.024288183123403334 -0.3562494829246123 -0.5580769673204969
P 0.9599024852958525 6.158513051721639 6.323245196596802 -0.5122336837341372 -1.4635827339501826 0.442350071369122
P 4.349410912903273 6.340860819617421 8.177073513991516 -0.35445459580771865 -0.9131884799859241 -3.4576071900020966
P 7.393878445414969 9.58869010583755 7.2572111908522015 -1.737336572172724 -1.6974340795508314 2.3585161243806607
P 2.4747808909881233 4.9229148934535125 11.541683580562076 -1.537103943067785 1.8191999826074348 0.32268218849212815
P 0.39005383962822104 7.190889115026211 1.5448771040920768 1.420245504615128 0.210687762999992 0.47394558678721604
P 8.820017684611724 3.364220884201501 0.8788724815176048 0.3622594365641181 0.7062103046270354 0.08543390139478835
P 3.443360839632399 4.101935616979358 5.495692648530387 -0.5228297140824286 -0.32864046295809207 -0.001774318291603396
