# total energy = -381164.73079370364 ev
CRYSTAL
PRIMVEC
9.28306938859319 0.00000000000000 0.00000000000000
0.00000000000000 9.28306938859319 0.00000000000000
0.00000000000000 0.00000000000000 13.58671039724849
PRIMCOORD
 96 1
Ni 8.754491505012576 3.6495552189385077 12.54239509335139 -2.007921782859297 1.2227999513370231 -0.4353754398235018
Ni 2.9969368682658097 3.6938540265031587 8.834676802577945 0.21854094049582362 0.3577618058040807 0.030081135656096582
Ni 5.940700314542869 2.1179323021532235 3.0309908803509242 0.5866609496057767 -0.27791953956445686 1.2582608632477943
Ni 5.643168654598476 1.727867005619468 13.251594680819414 0.2971215664142044 -1.9443594847266192 -0.10071165348946526
Ni 0.2568978082109484 4.098373062219261 4.792331706212927 0.5801326615689557 -0.33739481211195443 0.7135340919819582
Ni 7.029010248249795 5.0477061627219975 0.311605721584955 -0.577242227395038 0.559968527916255 -1.5343335794114994
Ni 4.845390946447059 5.760367406799592 10.348480867493919 0.5615991215411424 -1.1447111774533962 -0.20609114476824508
Ni 2.3227910794660325 9.200301633781395 12.655259580411697 -1.6690010210211192 -1.424869890761017 -0.7131450840736556
Ni 2.466251635229679 2.458435290726444 4.422786634767534 0.7849403116390868 -0.972494573945409 2.50472679074319
Ni 2.9941148151435018 6.228661129852063 9.022445448975724 -1.7869925446369546 -2.145643695024524 -1.7818889048618023
Ni 1.158165031553532 4.565998404269082 10.632674613207612 1.8064588808916822 -1.0686312064696821 0.015385481317134794
Ni 5.128988719100055 7.320767838976832 8.321194025597567 0.1344758944241039 1.1501827420909287 0.2808994481283872
Ni 6.298395547795413 1.3953196075917016 10.088173387862497 1.4870597340262002 -2.198872215331362 0.17695848906834685
Ni 0.3399859216031133 0.19571681048764777 7.101243668497503 -0.8849384840012953 0.2259889121334366 0.13246323486944928
Ni 4.685174450269709 3.6653364370566774 0.3148520109825573 -0.5374824309985969 1.3512062425282794 1.659031054292601
Ni 0.814574494070839 3.4074713330057795 0.6073875229321261 1.8978425721120025 0.42117035196771335 1.7202017122646502
Ni 7.40780589843328 5.659878179664774 2.575850338446473 -0.28928098732386304 1.4290823861804678 -0.5378138461960866
Ni 8.130279346952584 5.404575202790709 6.617583680532674 1.5863115151406872 2.8014832605084914 0.03051128121497971
Ni 5.18452004073705 6.368603402282306 4.000280723624509 -2.202124660830388 0.7610717325516054 -0.23899792279859486
Ni 3.0139341684860272 7.383521388670262 4.623218316244722 -0.8441422759205398 1.9922323971484976 -0.5859857779156231
Ni 1.9349165873298582 3.7575730154226403 2.8452747206154556 -0.762738321620751 3.2261433707970184 -1.8921460359478575
Ni 2.460969568694832 1.619273658827496 10.240181794004503 0.46695321462978284 0.45653304773772346 0.2462512619268985
Ni 3.50564907583976 7.962014429534967 10.173375256175548 0.7247214760573454 1.887944596272 -1.0149098056868264
Ni 3.2594156578489013 4.03872934080206 11.810017538002514 -0.14329040739194032 0.3099709115730468 0.5102835019863018
P 1.3612878748733421 1.3020433254438357 3.0286543317624868 -1.0159140785816247 0.9177935828581032 1.3430188216214807
Ni 4.969199244118843 8.07113691128737 6.108449093297326 -0.177132809862682 0.9865155708148494 -0.9988699786151443
P 8.478719359932295 7.677302688544218 6.744877770794677 -0.8570489566798789 0.17672451868066985 -0.8652412626826841
Ni 4.256315206373699 0.4106467898806935 11.287635082310436 1.3626939314529047 1.5085731826179438 0.9737942665934392
P 4.052551831259681 8.510226097751747 13.542934533419796 1.417635577796107 0.8153757453108087 2.1791875924182404
P 1.0849494625547047 2.6887668106958755 8.686541293023527 0.6685408151007196 -0.43019183874003336 1.330311144246825
P 2.7494873681729044 4.736844015002494 14.195939059782914 -1.3958200245829122 -0.7144609746716017 -0.8633612720511518
Ni 4.6786391693548905 2.8016303694492346 10.207818228871927 -2.423771493945045 0.5590663278169599 0.2313067248019242
Ni 9.019894461482268 2.8139582857203695 2.8003158868106857 0.6533805624205135 0.3437282105291499 0.3509874631947245
Ni 6.156949418109203 8.061983804778833 10.572770965844935 -0.636514382792794 -0.5212294594748443 0.32337201547030114
Ni 7.581065107231825 0.30678688021722433 0.024100704987289934 0.24853620130633328 -0.3899813279594187 -0.2523149516224751
Ni 2.654447302823596 0.27948165964499777 7.862031129686878 0.1299389257856988 0.4891824583416285 0.4900311794951689
Ni 7.488624301337273 2.9226537462766355 1.124892653918741 1.2080685586641196 -2.3157573932568956 -1.7976950186561234
Ni 1.7214338384689434 8.505324637065634 2.965354009276611 -1.766862349545983 -1.4323194050605268 1.1644695910272462
Ni 4.164988368816901 5.520362928430671 2.022001062133713 -0.5883799891794125 -1.7101556408825582 -0.02438331394037091
Ni 5.478616964973369 0.28550080189665744 1.6740456253809235 0.6158941354392812 -0.5920882912689353 -2.060224191807439
Ni 8.818832459587302 4.353852417413471 8.98773141065049 0.5181850162215657 -0.3658990901992344 -3.0015307701858176
Ni 7.912470687713394 0.7694170025791697 2.526353940279255 -1.3820977899008133 -0.7833032902562962 0.8559747497790936
Ni 3.2258759278130498 1.9128785803813078 -0.3253558041006216 0.6294968138243804 0.9080879255345652 -0.3158024306531594
Ni 4.725360858054154 4.093666545992254 3.9837865657701776 -1.0010317621531533 -1.8127431712384976 -0.46196218917309473
Ni 2.0717954468312794 0.4126630725720267 5.596569502416364 0.002551562777260122 -1.1386176629611486 -1.3542329451697452
Ni 6.604746123747017 0.032960466500220185 4.538328359066241 -0.6008601239242942 0.38028184128346765 0.8187274353918609
Ni 0.3892251787456999 6.678899282763453 8.306656738789888 0.605794328001118 0.2552390672478056 -0.17826538080522847
Ni 0.4241926448677721 6.403814084824788 5.408964238041457 1.779754889237935 1.2425750770814212 -0.5204280466194715
Ni 0.3227778957056711 0.939437348435696 1.13417943662781 0.6523894021518377 -0.040613659756304245 -1.2517433738442505
Ni 8.872061579992941 2.7458669710752064 10.48231023867074 -0.10101812898629055 -1.6594779120220324 0.0770418206763512
Ni 8.904737984567035 8.725639725064768 4.457704900621355 0.8303110264644021 -0.5168665545204583 0.691405635514035
Ni 7.647476186300876 8.18124339840479 8.85993510632955 1.5188614519178292 0.8921455432726957 0.2141006453362829
Ni 1.0779036128184156 1.8973851374170574 12.457926587527359 -0.7242555921645204 -0.12035179631789594 -1.1864579223728793
Ni 6.872200638572073 0.052228405515557595 7.104789801039351 -0.6873834017285194 0.006427500792898608 -1.6051672143946096
Ni -0.11548231265402725 5.673217950509368 1.0689918661163902 -0.21447885461130803 -0.3377794491448828 0.06129432803410734
Ni 5.3554863313737195 2.352292674277529 7.78548386705122 -0.3535130578300557 -1.294002539623778 0.44031632876854493
P 6.373114974050207 7.818572439910282 3.0731647933113115 0.6046802690013328 0.7279613231508817 -2.052690345324239
Ni 3.7522166843319438 7.770653235247933 2.1210077830723706 0.8343705412457565 0.07539837153565725 -0.2610405044209311
P 1.2979402087331116 7.842569174519382 10.118947691499876 -0.6764297309304931 -0.3516065848359622 -0.26100425186635695
Ni 8.854479446395404 6.084207285653921 10.354758079077158 0.26007736917671337 2.5948920361753762 3.4184495459660287
P 9.804406663344942 8.21745665245125 13.7065449197995 -1.838056967412938 0.04778600913502738 -0.4782760958417699
P 6.231798807336736 2.285473140151301 5.404875045934954 -0.9442921433692641 0.4912709654395411 0.40036909895164596
P 6.8414551124500855 5.460821320777763 11.178574797123556 0.3169565988622606 0.7562072053704525 0.85109299620676
Ni 5.772110489693407 4.911467835014785 5.812095454870109 0.17509598193831133 0.5893138138475915 0.10748162522344715
Ni 0.38497260461632715 9.965839241624339 9.631605109871824 1.0813172865777827 -1.1543325025932443 -1.2122674272368155
Ni 7.186033368525586 5.9563237204798565 8.946726236137795 -2.3875865593840557 0.09650070073191122 -1.1996754495044177
Ni 2.2705830967033336 7.373003670947975 7.017223534929418 -0.3285116506897116 0.7501242324011662 -0.3607432570299078
Ni 5.720023186833965 6.96970071733392 0.9932986458730102 0.771422222547994 1.0989979916869976 -0.3376812330041217
Ni 5.104815606170811 4.962162677452035 8.002776387627252 -0.6837380916664483 -0.8660280202500376 0.7628949018032732
Ni 8.224716012785608 1.7536646557079354 4.859110394833437 0.8724691478896911 0.6526241438704631 0.6584176106237886
Ni 4.6717975471471895 7.087864908761088 12.22400437628257 1.671604520082237 -0.2597585523847139 0.4799411422490186
Ni 1.2518404856890928 4.54344054542958 7.257205733931584 0.6462591208843839 0.35956594889235494 -0.5351344995917106
Ni 8.356034313667745 -0.28826622829512966 11.20434831123137 -0.1624070736167332 1.0695601460418547 0.05923127485749154
Ni 3.742200252361646 3.448242574167546 6.421133507556005 -0.4716735029235877 1.2264555458117392 -0.31230033103717186
Ni 5.896949208077613 3.6172687032826274 12.038966808926183 1.5384997949740473 1.1606165358297431 -1.7554638779010543
Ni 3.9193212180644013 6.048448902012044 6.187047914288346 -0.9542960486595113 -1.5036873152805523 1.4870466214000777
Ni 7.790147681158614 7.240135097462465 12.455385811410334 -0.15109961902371397 -1.4809258532143204 1.0004103265190707
Ni 6.699219921857967 3.6874951239084846 9.560804995552026 -0.3539881976942613 0.27842707532849464 0.24393984018490245
Ni 3.697808614102182 2.4218971292481397 2.3563707267006535 1.2553380331740445 0.19179375430896647 -0.4737530111604357
Ni 0.861642441261755 5.640457998309944 12.701074313222641 -0.07026850650825962 -0.4510853943595909 -0.42857435774126834
Ni 2.563139031405761 6.576107854397279 11.605129983174313 -0.9475790416506519 -0.6925101814321235 0.0074297168051678485
Ni 4.381497398328712 0.06494342578406197 3.5757640996318405 -1.2229593597330228 0.5074133795273584 2.0213054032550546
Ni 8.519648413275243 7.693594475483858 2.2117126549739226 0.19617311432358472 0.9004185819147653 -0.5268408921243507
Ni 4.261105270226038 1.2903837901753523 5.62904167946187 1.168688257094284 -0.20719389091412055 0.5797318265861112
Ni 7.915729045101322 1.6809225232526532 8.351696335299145 0.3561468959084769 0.960579824785694 -0.15369309078250304
Ni 2.658067699921294 0.6415993471984223 1.5456514913853887 1.6657426619848215 -0.6607447160950685 -2.0128133066236433
Ni 2.068583504790758 6.918922327271337 0.8306954725320237 0.09988890047785377 -0.4477658430680547 -0.1214141761441393
Ni 0.8864105989447487 6.0670150409745975 3.051955764467439 0.8691328844276065 -0.05832187566934472 1.15020125403369
P 2.9286877414394654 5.338823221654828 4.293984974021771 -0.7764980944090046 -1.1675261184653827 -0.6346354206025263
Ni 7.205453549880416 4.219433571324587 4.174122909186478 0.32969461525421934 -2.102746638550682 1.21384839857069
P 6.099394387325289 4.005542367406497 2.073331794830431 -2.188108291946638 1.60062458932925 0.7627969427728282
Ni 7.18723088448867 6.6974839878649695 4.809804299590586 2.091814307908894 0.9465470008417116 1.249620413963977
P 7.572292606572018 1.867855693397117 11.97562564093459 -0.7145296231260082 -1.03139314805383 0.6672596343954508
P -0.06253354094672259 2.807525118569845 6.775081165658959 -0.8244900489072511 -0.23389094058933266 -1.5599631070541455
P 4.527288004532159 9.602871224906432 8.834011206496138 1.2483775426958112 0.2776009798827735 0.9254274452542772
Ni 7.128441205463748 3.7395174452815576 7.0478075356424315 -0.7008516114182833 -4.635683830289816 1.5862204980887777
