# total energy = -381166.5916765708 ev
CRYSTAL
PRIMVEC
9.19480809809872 0.00000000000000 0.00000000000000
0.00000000000000 9.19480809809872 0.00000000000000
0.00000000000000 0.00000000000000 13.45753107701066
PRIMCOORD
 96 1
Ni 3.9606819419459733 5.445146916686449 3.2721177099959076 -1.6535618036479132 -0.15258057444461462 0.3040851422162312
Ni 1.7090481604994057 9.290985706528879 8.655157376466295 0.2812527177027479 -0.44616558846047033 0.4214745134716935
Ni 5.655606877334807 0.11085536386756936 4.624949813198008 -1.0948114644094757 1.0403107622584342 1.0438809961081956
Ni 5.386410483088577 2.5999331090432203 0.795141251648397 -0.8637505370697705 0.6277677469484155 0.8505648916174319
Ni 7.865201996538188 7.53453831071372 0.6913723263177531 0.08878456303457613 0.5572688695969048 -0.14021382534914562
Ni 5.952258968312917 1.4466283397600055 9.232983018610579 -0.8630866782335265 0.814944314200345 2.0842089847578107
Ni 2.3841769389783987 0.6456060889054095 12.46906167859289 1.1044757269721173 0.6584890872916723 0.3219946755068003
Ni 0.33834962584395134 0.27230240039359443 0.10295978222535061 -0.9154927026390685 -0.2229341844675128 -0.10454028320693609
Ni 9.077123666915085 8.559713430312158 10.176194700085222 -0.8980133149073825 -1.1357845643877278 -0.7167834521571914
Ni -0.033998722115136853 1.314563312244939 6.933938968078641 -0.06607735124504747 1.8927461314257017 -0.6686580574048743
Ni 8.93838320878135 2.4131038049926294 1.7647126087395688 -0.7641074340541357 -0.430095165261169 -0.7873121543053732
Ni 6.798824942225901 0.07683273525159429 10.946692027292633 -1.1592065428560938 -1.0521283237186523 1.1523589238066412
Ni 1.260350724190296 6.7590298131383 3.243224864771331 0.6420905913289909 1.1679891741447304 -1.0527142781291094
Ni 8.355542718345852 5.929676519828825 2.4342785283696706 0.5467890531115035 -1.7011413531990895 -0.741742178985058
Ni 4.923038133188013 5.691871200144765 12.445269193374065 3.175855935396376 -1.0506653660198808 1.0470910184050612
Ni 0.2541481714493803 3.890010647545026 8.937254086357145 0.06699343530141365 -0.44169109762888453 1.099744640045035
Ni 3.161312917572419 7.23998263596296 7.982764972852477 -0.7829443642549806 -0.11194814563523299 -1.0869814268420956
Ni 1.7618539429278 4.631948901058794 3.893277562832647 -1.29900924880975 0.8780967784891136 1.118651247141551
Ni 5.432035120457494 3.7978510868137363 10.615394819195954 -2.377722264995466 0.5794068391465247 0.9086815932545059
Ni 2.810144809875181 8.432337754884585 10.625905404237551 -0.723079055357916 -1.2734278007962199 -0.5668205178410819
Ni 8.946998743891118 4.174672708871974 6.4046545564055375 1.624230144563332 0.4911164421395477 -0.4028738676513707
Ni 5.9068090322962785 1.4462145733993443 7.072618740479479 0.8847657058688568 -0.6259481772411736 -1.7228396641081298
Ni 6.616335587558246 0.5773916472059889 0.6509068957258812 1.2049855488634216 -0.3390842839992354 -1.0088507439769399
Ni 8.649988055400435 1.0514538809044365 4.276143851679745 -0.010137345544318025 -0.730621129371232 -0.5637722179330613
P 4.021064246178476 8.394859717416688 6.246864295026955 0.09402601393917355 -0.22448430256345211 -1.037779511196148
Ni 2.262226200279496 4.400129401392299 10.367412686001227 -0.8156775928219436 -0.2546669967944195 1.8749538404392871
P 9.079799356047362 8.689084379078919 7.876167724576513 -1.7580264964219077 -1.9329921234299419 -0.22048777980954928
Ni 5.477503446090162 1.930367189413118 12.068673763592987 0.562359910966567 -1.105539392349941 -0.6535278866316552
P 3.526769756924493 6.010774726518437 11.185065586112003 -2.79800532926222 1.0894707689228527 -3.128731985325379
P 4.382135162107541 0.5376121492920133 10.837995604346915 1.2111150587999273 0.31729572736923417 -0.30975802423129234
P 0.7717478210974095 8.045098415345699 11.868963452994612 1.7725660847989795 -0.8851408298200885 2.8039080678999
Ni 1.996459469422747 4.083506187406271 1.5041749652007765 -0.3888595556501496 -0.4482679795154538 0.5755332151237313
Ni 1.8620589606719478 1.5791071336357334 2.534268387606275 -4.059874221576247 0.19484153999635476 -1.753811944119928
Ni 1.0463507624562807 2.5795390248666266 5.029240924200146 -1.1000976525090795 -2.7907478763688585 -1.5740625225700051
Ni 6.7886095105215745 4.840340029903845 6.824260539636952 -2.23867469204028 -1.4553667737982934 0.023889919243720147
Ni 6.832312433015421 8.359239031167759 8.788359801732781 2.8206876013510844 0.33070145925217886 -2.0686417264471726
Ni 1.0913961269202723 8.365730565626134 5.113767874798438 -0.3609743992041074 -0.16481748283043876 0.12063590321721804
Ni 8.390804807082208 5.808461365771099 8.287955362553033 -0.3336739116169415 1.0138839355254732 0.3372364321572192
Ni 4.300181838272563 5.513657431203943 9.213159932011699 0.27000208448959306 0.05624493853565798 -0.07395881087565327
Ni 3.5703439521061333 3.2162978695002966 12.250470749217138 -0.44790442552844795 0.22978540306139134 1.3828179558962894
Ni 3.0278870584711775 7.4553985981312385 12.827005440316157 -1.717196092669107 -0.9954612100439114 -1.1750597078382665
Ni 8.751232086450244 3.553765713255638 3.726578451968628 -0.323489771995088 1.5582345543988132 0.4932234611802215
Ni 3.0869177259255207 2.9278659368873234 3.8101638542262144 2.9249705171315754 2.783287306325755 -0.4835275740486963
Ni 2.002730328488769 8.549589946687979 1.5930758859716583 0.6028882100979166 -0.08841175307618966 0.25223884696890103
Ni 7.522631034334689 3.320042888330102 10.332921122176504 1.87540326927188 -0.02367986011544309 0.5867853909987829
Ni 5.967025829984517 6.959439848626596 4.853068402638588 -2.2615153440838793 1.0515025172091954 -0.39589512234069235
Ni 7.537664545438717 9.138342698676926 6.134454089124102 -0.20114768472004066 -0.9512071253215425 0.08241208384932902
Ni 4.455040794856059 3.293313581431383 8.155290833555409 0.33236264900468565 -0.20600552703297423 0.4776757432536095
Ni 1.860367115997244 2.3524364617116706 8.086778480076312 0.8110020417231453 1.1135625197647339 0.29121445690115005
Ni 4.038037861773604 0.5126887026873805 7.969778226012522 -0.6211546125072722 0.08525623816634348 0.6399295791219302
Ni 8.919294787342842 6.073069550817997 10.585679958134865 -0.7054245755009464 -1.3495519947543082 1.7844546087064495
Ni 5.439538083797485 6.850637685388708 0.9752445536362385 0.3879113328042674 -0.06464936054926931 -1.309816109617267
Ni 1.2682582590829339 1.8521193732080623 10.43810512846061 -0.8252726927095465 0.32509748280184014 0.036294206445343945
Ni 7.382437796534633 2.985076032354757 13.052297545773019 0.006171676028350661 -0.7707560497189049 -0.24715449046745822
Ni 0.9734727141318068 6.589872930091953 0.4037081601740075 -2.0733982672955515 1.5062177950118898 1.31914355766578
Ni 5.452916529458866 6.799845565915533 7.2338129197851 -0.2108566844776885 0.8059724497190378 0.11438992230750623
P 6.541066889149952 4.808084643388294 0.7719666575281593 -0.5195798396865633 -0.20577232797624562 0.09942378791597715
Ni 4.921364678129338 7.732530111694151 9.414835173082816 -1.569607315012129 0.9066871885322966 1.6951738227617452
P 8.885963608289572 9.530234611071249 2.1523841042551464 -0.5120457360930473 -1.556954659245125 0.822720615711654
Ni 2.1435580080418406 0.8685057053168482 6.356288027286637 1.3801103271571393 -1.0602805205121417 0.4442807127329316
P 0.17957368104619514 3.9313964784191686 11.691916505190854 -0.27507307125459723 0.585771605022288 -1.5915665928920395
P 3.0138741710567825 2.084380223659262 0.9108284871276886 0.5873410063919368 1.233854666489288 -3.074692539081472
P 2.084260691155071 3.6240416309119534 6.240755264581993 3.019328203378555 2.765306039256986 2.776903000065966
Ni 6.057438377193015 5.879665959036899 2.893504019855606 1.163131588942113 1.5959402964797031 -1.0032017732212786
Ni 8.33027538592147 1.1970168865850757 9.316218098682807 0.044496025529845946 1.3068696253944332 -1.8612583452300657
Ni 1.4706175938703452 6.07403500565954 6.3068714510924595 -0.7591783721836344 -0.4694433280414883 0.3006799731894241
Ni 7.608694437352237 2.867713502855188 7.8719831674490255 -1.0564544618978322 0.3079934761317018 0.8188883864497574
Ni 1.0877365933304237 2.597174666638812 12.99304436396472 0.8006227553713502 -0.18672148199238167 0.6102600770819555
Ni 6.672800903576489 1.4532761859546302 2.8475731953797996 1.4517314910385513 -0.536010988659393 -0.8525916922394736
Ni 4.04040092743338 8.04852807873518 3.1781578058553404 -0.9066398802341288 -0.47658688106480496 -0.7201994198172758
Ni 4.196841390995404 4.806769785842192 1.0465383365397805 0.9863155389889013 -2.2011782377567184 -0.7225108415592718
Ni 8.98947875691901 4.362219207947711 0.5198036451291517 2.3413907775542837 0.28191606231835964 2.589067459073799
Ni 1.4065205871999051 6.797556058719873 9.599781380451997 2.3887679812866667 -0.07965740392232733 -1.8183237506500685
Ni 5.8084521709630845 4.642311449691355 4.712141419158957 -0.3952127515616871 -2.0983204844585286 0.6244476814362472
Ni 2.29256906672799 4.786541208209863 8.247031111041228 0.06293906272638193 0.7488173406642845 -2.9387729702323067
Ni 4.110382611233225 5.020898474888415 6.333504212507024 -0.9948590576835382 0.001096575498288434 0.13554855866299237
Ni 3.095542455843305 6.76369158080175 4.87112792506025 0.42907520863708687 1.3623710008958472 1.2495797905340287
Ni 6.784710911923344 3.8458663742664743 2.6545925647673774 -0.3062332989074855 -1.8581205709320323 -0.5040537190265061
Ni 8.088525493599104 7.6976542048944125 3.8746654324493015 0.5565211927976028 1.233518880416424 0.6052556818888286
Ni 6.219257803443635 8.239945591985103 2.5438502970383885 0.9263977795873466 1.2289086353379224 0.44847109666519536
Ni 7.2500601455470655 2.7834246977844774 5.570530077217237 -0.5307988483308342 -1.0374601801835166 -1.3370998850338844
Ni 3.355718743427119 2.3325664815919143 10.088909307082524 2.1382124355574597 -0.7922712980828613 -0.781103711501816
Ni 8.576273279546623 1.3970315453287396 11.582520357355216 -0.5514954574482372 0.09312921315651702 1.624834353806234
Ni 2.1623430008158624 5.254253507493362 12.693142827834217 0.4841639220811146 -2.8624148058865413 -0.6493938098586235
Ni 4.16648013493088 1.227957415554525 2.435624648263022 2.2284789824542006 -1.2058525248494072 -0.6253802205528456
Ni 2.827918373767587 0.9055074517295846 4.235865075690572 1.0122168322356957 -4.567835760297592 3.1765601605522518
Ni 7.631929717205372 6.706830888038876 6.208120132495434 3.21126748212645 1.562295097621432 -0.19485773794627087
Ni 4.230944933921908 2.5247379690990437 5.961807776436178 -0.6788784495813018 0.08917485649445932 -0.8918403533274512
P 6.263319323450054 4.577855845508342 8.824897210340776 0.7634546309614851 0.022336715823987337 0.2401132673499607
Ni 6.640812166493364 6.511055035789986 10.73808665942084 -0.6812770317204654 -0.3460321760719783 -1.2790762573312486
P 9.081160187633536 5.805289157006029 4.649644309083074 -0.13896041255801875 -0.24883984858968114 0.19739618809740844
Ni 7.817361410437728 5.294692273141992 12.550883516673256 -2.344890820287742 2.356074604818704 -1.9975422393971856
P 5.2995655213897805 2.401343645541834 4.000749237350808 -0.5872600166423564 1.2990105343613305 1.3006508981782308
P 3.0968481185813914 6.488371444417733 1.3512836975324254 -1.4639984813313627 1.5985569081669437 1.2446545853182693
P 6.397848559513059 7.668056117895109 12.469209715001925 -0.0644956085802244 0.5870047060984407 1.398924374539849
Ni 4.410868937153463 8.760224608688615 0.22724508267918372 1.7815094100351965 2.87959183188646 0.8864747181401637
