# total energy = -340892.3270640908 ev
CRYSTAL
PRIMVEC
9.06358956155411 0.00000000000000 0.00000000000000

0.00000000000000 9.06358956155411 0.00000000000000

0.00000000000000 0.00000000000000 13.26547948501185

PRIMCOORD
 96 1
Ni 6.316614942337013 2.335007252633111 11.414188875572714 -0.34577583708679804 -1.7642297970191423 1.0734432831463447
Ni 4.228962111563622 0.22471176249619482 6.31626508778116 1.0081244073338769 -0.11854945300183452 -1.3698559964189827
Ni 2.9807517522783264 1.7219188660640221 4.809678075408868 0.5148222703969199 -0.8295769765118552 0.055306228771472496
Ni 3.2148733334244337 4.282917660034945 4.663863953411251 1.5219832853762627 1.5248359243337093 -0.252260701345772
Ni 5.07392430907541 4.894528681510665 2.5364391854218313 0.03866039268467536 -1.480456626887386 0.4964635653840741
Ni 7.38495836740201 5.963008060418612 2.5239568099212923 0.5297974036495134 1.3473526731101442 0.34753601431101433
Ni 5.579355379208686 4.694522451354994 11.713365276928426 -1.8729632923718194 0.7391829028983141 -0.9408643486346377
Ni 5.785642676908558 7.433267299596224 12.379199222766601 -1.111663502969808 1.185781722241461 -0.328410349225157
Ni 1.6126572942814226 6.787540927130069 0.444538250235789 1.3551623989625499 -0.42691239665781316 -0.049505820039611514
Ni 2.7361526616356877 1.5799558632576467 0.5265718927117018 -0.4689206227687988 0.8822781635603126 -0.259424823194379
Ni 0.33556852603605153 -0.007855413045539513 5.052914002186215 0.23804738595986746 -0.11903436305805305 -1.4983260509686387
Ni 8.70336622759616 2.344279304722169 1.4957623673967657 0.36128164603188107 0.039684463073815526 -0.22956325974825625
Ni 6.8935305430923846 0.7055388124916828 4.944455464435962 -0.6869733107742944 -0.36863705795568774 -1.2048317968943767
Ni 0.5957624288237867 7.471388757158864 2.6098769195876135 0.5866920599540283 -0.03753424950003213 0.09570751540665452
Ni 7.4733011745496665 3.9862754383117855 3.917190039838247 1.2244230887627428 -0.9727732815280923 -0.6901097995207469
Ni 7.641312933664892 3.987154606496183 12.51295514525368 1.766619123186925 -0.19840277498505185 1.3204813026405968
Ni 7.978786626220122 9.17470913750759 7.068139689026403 0.243325089419039 -0.7816359298562022 0.45147131694409987
Ni 6.752374199754168 0.487023826157061 0.07724444176832873 0.10411399430279489 0.876048123490201 0.20245534778787067
Ni 1.8533862321948062 6.28650569791878 9.298557650279564 0.14452685090220269 0.40049585433749735 -0.7025832493974093
Ni 0.2908469625777602 4.812657277287338 1.3908857602287181 -1.251291631018813 -0.21860418963359127 -0.5554793817966498
Ni 6.1581199522281524 1.769829000318922 6.894374363277616 -0.029039838875775794 1.2154303983458292 0.9183317147497604
Ni 3.283738486672396 4.258373459588054 0.40830836380803415 -0.9259349810183151 1.3192119490098702 0.5826693119478803
Ni 5.91874148915472 5.609002380560895 4.7683562643832325 -0.5242633612051615 -0.3296593911409097 0.2559949715772236
Ni 5.525245749715354 3.1101888743544195 9.331681444575432 -0.6940942380897918 0.6409703616816187 -0.8392695212092707
P 0.2621987687917428 5.461501524551768 12.494343970513041 0.2330825857554244 1.2250221557993226 0.7591158943768153
P 3.943885030080577 6.134400538428479 12.54641066692634 0.13330115738971235 -0.8569530545319628 0.3928514504183621
P 2.48652327880397 8.69687669749277 1.487988526656995 -0.5178800833866372 -0.9173541813278394 0.678131029892316
P 6.289424173747399 7.710966619201954 5.800449863123509 -0.36642488079571733 -0.050330887044068164 1.3887931996431178
P 4.62081734129808 1.2589779036467823 12.739503190988627 0.7483437434619756 -0.4082076211594582 -1.5052770283651753
P 4.098953983347146 6.053082013166473 8.172742910364605 -0.2760937992096278 -0.1288444071699394 -0.44774270313960307
P 4.902486513117893 1.0520833454484084 3.6918492642286793 -0.4783288034565762 -0.43846796270589644 0.559736871521423
P 0.24883450602994747 5.496296644756945 3.700127040546311 -0.7151906537487747 0.5065834274268952 -0.446060944561806
Ni 1.7003475229829281 1.1900674324511702 2.96531192751419 -1.4164628976442444 0.14123223931133097 -1.270328850155922
Ni 1.8669362985419637 6.569706616369141 4.704535905067596 -0.2014654730707756 -0.42649767771789776 -0.1010968047430259
Ni 6.0174258519559585 5.88979238419631 9.224602385151625 0.09281245324704661 -1.514806050901533 -0.4332913036009634
Ni 8.583581828369379 2.3978088644855897 10.422979316483783 0.9770775653304011 -0.04434664443617523 -0.3062996333690467
Ni 2.4076247319464406 5.164868366418139 7.031659647527625 0.03537760816834552 0.7051147575700114 -0.48390398355150854
Ni 0.8938330722568544 8.612984112804282 8.911749027195338 -0.8562305745436416 1.0221369195628847 0.04722576575618318
Ni 1.5804090427341404 0.8062516066297075 11.423978458623928 -0.1733298911768241 1.8948024997340984 -0.7763615688311403
Ni 4.049793073737124 6.8368105998144495 1.418875937414867 -0.40261444334239693 1.323535001865256 0.15300686334875582
Ni 5.78900526862414 8.293093783937001 8.001923251213025 -0.3008833474494818 -1.4120159176164842 -0.5988929728955944
Ni 5.216258919052509 2.9316089698473635 4.806547511585251 0.5106267442583335 -0.15749292414456748 -0.216394326466466
Ni 0.4251131651553686 7.184326749568777 6.7204114512770765 0.6387682118239772 0.2724271489913179 0.31865918337566407
Ni 4.748088265476533 4.32843500665396 6.789869363280293 1.218222873489302 0.9216486949381353 0.520804970342916
Ni 8.017189055058187 7.2132486637585975 8.747708026653148 0.19068560884645225 0.5199691047051819 0.6257224343836126
Ni 4.513087516146029 0.4878286729073136 10.576712296653648 0.45167803363826725 -0.4290458980610482 0.6517394272726647
Ni 8.029452091692104 6.91075136319914 4.79395818572826 0.49344200494893087 0.709744543032539 -0.4413874503455366
Ni 7.114410219935349 5.747584664472629 6.9248053651241595 -0.11704921430722423 1.115668510364143 -0.08345286640901757
Ni 2.216609582604401 5.366741696016963 2.5296342424028038 1.292794892468922 0.4496118951378579 0.6257705140127288
Ni 2.2490662967108705 5.142073438750512 11.552414960415925 0.7359232583104358 0.7471911179147712 0.295157243598982
Ni 1.0971837669490483 3.4725149294005573 3.955315122836698 -1.5646448288005312 -0.636124346443227 -0.8349865775632006
Ni 3.7890879844999037 2.9169078276299123 2.654554977816162 0.49788307143941996 -1.0540851903347073 0.07889969982069639
Ni 1.1586258403720464 3.5587821745458728 8.118114843550163 -0.29671790321788255 -1.9151664081024307 0.8435676343639924
Ni 3.5893083440824793 2.356805185452451 7.152494516780916 -0.12194768005010609 0.8662630190789792 -0.09677966542491075
Ni 3.9822330773814625 6.717443125706044 5.913273425591347 0.8062434439922372 0.8287064009814437 0.5051595504961751
Ni 0.8087187156997385 7.369550265201229 11.346760301265238 -0.46164800036678555 -0.10554944119774079 0.18420797154190857
P 0.19607535137656626 5.511224376712643 8.07537367440415 -0.4912275137961153 0.2882008668858069 -0.08571286608778787
P 8.88589785713824 1.63750965677233 8.332737018181707 -0.23669292881450202 -0.6349429245406162 -0.27206616610747336
P 1.7674634034516257 3.202302134746502 10.506896372864002 0.43936784881234653 -1.1939488314332856 -0.479228175342394
P 4.012523593590293 6.299647902737093 3.703456096980632 -1.0895185914416525 -0.2624656669032318 0.3304788017184115
P 7.203586877319754 4.137981799862772 10.376231134406611 -1.352956906670799 0.8840987617088194 -1.2379872006004227
P 6.3351590465151295 7.782840884173834 10.259084239733022 -0.29472658381946665 2.0970387895326272 -0.9298086050411084
P 2.2991063745052904 8.28896078711138 5.886437043352352 -0.1130910009904246 0.4275194341141928 0.2847782143575031
P 7.106543024223422 4.076412836186356 1.4448358705463245 -0.48970490650400184 -1.2352109234068662 0.8982349439998853
Ni 5.1622943069916545 3.067073378960821 0.4688259510989853 1.621389075570111 -0.07903468273666389 0.2976720396010358
Ni 1.5271241998880265 0.9711364273571274 6.9171910435601145 0.23129695460991134 0.6971553935136187 0.629350003833871
Ni 6.789471471699931 0.8802530960642482 9.304499739575348 0.9968999993729669 0.27687721434287155 0.31185630152121774
Ni 2.6894842391463802 1.472978316036575 9.185309911821728 -0.8439908379443399 0.3674566644943414 0.7659997659808421
Ni 6.37249197178867 2.056881944319478 2.4782038099745014 0.7271946201881863 0.5853987950639015 0.0311172902300948
Ni 4.041998386741435 6.77974624013438 10.283638410128399 0.6649592683970483 0.19942196027818557 0.9517025769007221
Ni 8.287093687668227 7.236813996536262 0.2889100734952267 -0.8270318414924982 -0.07602854892048842 0.19842385803097437
Ni 7.684210902909773 3.769193405481836 8.149938919107448 0.4567428497556844 -0.9451807166218045 0.5710751793523778
Ni 3.296717546879172 8.23975455955371 12.275768258128569 0.12171602365527426 0.2064025053610768 2.031323963833321
Ni 0.23042726205373168 4.846156304189742 10.386737647389639 -0.8588014205946112 -0.5308119609569567 -1.0545107079079001
Ni 8.626153508391186 2.224721495233636 6.001952491910563 -0.1132774059696178 0.9824077192940628 -0.36647630285894306
Ni 3.696621244116156 2.9738271698775045 11.612574535920444 -0.07803040984186561 -0.5231462168815829 -0.4914044056936117
Ni 1.0576393258302197 3.242245373804645 12.63377732548163 -0.20515757721038214 -0.3955053431014415 0.5089496136662267
Ni 3.2078853058969026 8.193276472444529 8.089580850992224 -0.09126593469553314 -0.8256547586393135 0.673150545958589
Ni 5.691952351938277 7.793001168036819 3.6650663571679094 0.0031370029670849202 0.7468458187602106 -0.7412163883885751
Ni 3.2467771685695808 8.492447435646522 3.7114692164839913 0.258179123712736 -0.2667691793745922 -0.2404040591175021
Ni 3.3207088683647417 4.273772498199305 9.39790274875753 0.8362752144676372 -0.21399934387172823 -0.5711248016433906
Ni 7.532876148529511 6.415607467182268 11.258041355152093 1.3823654417399032 -1.6877883289309512 0.2424501430132534
Ni 0.8031790497790811 0.011124649788964115 0.1442669672648685 -1.1764655870468579 0.2029086332752054 0.9450981842103272
Ni 4.6714646795910015 0.3725470649589737 1.4503945700049947 -0.0472717885027702 -0.8102098848391531 0.9228411725843396
Ni 5.993552357134278 5.67910924557445 0.5997295619610113 0.286029570266101 0.1762162115856836 -1.20561392647604
Ni 8.122924890513668 9.093861918901137 11.147420244940012 0.06983090475020877 -0.6694635840253051 0.3567593326814953
Ni 0.15428857820804728 4.671954113425614 5.962673613964959 -0.22866620185528358 0.21636964387611768 -0.41371389568966815
Ni 7.835645356774864 8.971294997688686 2.6153159796644894 0.10920786388593451 -0.11823963507089959 -0.15864863501556548
P 8.521750020596597 1.7466624654805707 3.6670159352757845 -0.041468808667747936 -0.6043938481091655 0.5488305090215645
P 1.8594044556426408 3.2876267665807113 1.9200054279572667 -0.26375507513861673 -0.9150327322835144 -2.066383783650932
P 4.778777579624678 1.1957231123178098 8.546762808622184 -0.21063634093676628 -0.2941290594447838 -1.0281057355518102
P 8.435147422638677 1.6876675612306382 12.583474403590845 0.22339441193338302 -0.3920279260758023 -0.1059747016606175
P 6.3524161209800045 7.859627614670903 1.3570586313853323 0.1344938921462329 -1.1430206771248508 0.46511281898693446
P 1.9187256491156488 3.1876553740662295 5.894449256496759 -1.0703895839216857 -0.0765373702361069 2.6843844239102546
P 6.918935784544614 3.7815652051901107 5.969691551337939 -0.9010024794426934 -0.13413933702029157 0.9346579627136097
P 2.4837588839973597 8.294362686471183 10.32411186917404 -0.05335938945774681 0.393728967927309 -1.6015352740689774
