# total energy = -340887.57770493533 ev
CRYSTAL
PRIMVEC
9.06928148627268 0.00000000000000 0.00000000000000

0.00000000000000 9.06928148627268 0.00000000000000

0.00000000000000 0.00000000000000 13.27381019218550

PRIMCOORD
 96 1
Ni 6.464647238323644 2.149338058769848 11.174105571923484 0.19979657000878495 0.12317281070645884 0.47298733663900483
Ni 5.172301852378494 0.5592400034251553 5.773855494916513 -2.111503044587073 -0.9332453986367991 0.6488986153897599
Ni 2.9199004802344657 1.862721559952156 4.313709358321906 1.2144384667462054 -1.2202075080194985 1.5808957434417548
Ni 3.981568694789938 4.208545599384767 4.620228395083951 -1.8486622537326096 -0.11829388534760273 -0.3914131753099388
Ni 3.823373220028776 2.881600905051505 2.2995280788746038 0.7213705573072415 -0.9178450049213289 1.3418785373694502
Ni 5.431510982926494 4.746725824564042 2.8496217120482754 0.5687768702365043 0.20015215357599078 -1.9576304908039126
Ni 5.7806148303140645 3.1263173239863455 0.3520422945481861 -0.28183507256877915 -0.45587355977685357 -0.8984303478401431
Ni 5.665507511293905 8.094270128763023 12.270761260109273 0.4135526875214555 -0.33160417357210636 -0.34805383448769733
Ni 2.106576397157804 6.827636155473259 13.32902940108291 0.8862250640232028 0.10946651686395986 -0.11961903191692946
Ni 0.6330829991857959 0.4599522318811108 0.2925006485640103 -0.5233444489353181 0.3422158876496816 -0.4691203974844308
Ni 8.144459531808845 9.142379767685409 6.81295570973595 0.5549672180469216 -0.8578346858059677 -0.2247354993423097
Ni 8.687056497010403 2.596136204966524 1.0578282808276802 0.738216939440619 0.05006966296288151 0.389378147157781
Ni 7.108130889373001 0.911453707391044 4.720419467051444 2.172387795887588 -0.11715668641936597 -1.118713467838054
Ni 0.8704097676685701 7.811517143804659 2.512374136182534 0.05048438190279692 -0.0906450132820826 -0.2096032716865616
Ni 8.208044263423275 4.3365585057801 3.6881683735150235 -0.9817783132401802 -1.3873107015603205 0.6488744470200438
Ni 7.707628525826725 3.9895768702307515 12.337462196798972 0.11126860306970514 -0.08987573921622585 -0.001622880315403657
Ni 8.271864796353062 7.645930204735159 8.764789307546316 -0.6463529661497708 -1.2260845356255659 0.5860510839359198
Ni 6.888935428184988 0.8204026571780828 0.26936672567111514 0.832100257154341 0.1427543323828122 -0.3539282909906033
Ni 2.1634407912845304 6.48076335130023 9.487097710607319 -1.1186594746716672 0.27703765118013574 -1.0566935744918315
Ni 0.5533712714571483 5.450257187497458 1.0438380074018607 -1.203107358004102 -1.3672319285325742 0.5920412400810836
Ni 6.74595820754578 2.2050053077570637 6.929193968141693 -1.1877298471067674 -0.3595016713133228 0.3326225875342917
Ni 3.8932338943442746 4.281662145708477 0.5628441358375893 -0.20502876494200173 1.9142616368999743 -2.551421109475935
Ni 6.070995080896125 5.853613475980097 4.834441193092823 1.662666079942027 0.10340616960249288 -0.8511680724190697
Ni 5.495902880581958 3.1937474308973837 9.08828603901414 0.9057711044759303 -0.4648407962724704 0.0415647108156639
P 0.388049155403358 6.092661594064984 12.119745028472627 1.3102182301516918 -1.484593788984211 0.8862862562784415
P 4.283911327485738 6.2242840744415675 12.402583264675773 0.4365272940397579 1.2150938409420171 1.1093363974985282
P 2.412183971143177 8.695681383583691 1.0735408107837492 0.9424368353280802 0.4324322980347779 0.9671063130503021
P 6.4987840133624 7.899734043592645 5.786372010121345 0.8984709712700912 0.037717312045115685 -0.8696334782131087
P 4.89926206775661 1.439421921759044 12.518808826087614 -0.11623546015667724 -1.3766138839681066 -0.40880231732066374
P 4.171171090900518 6.439516259675294 7.979059419935359 -0.44991142865614775 -2.3867998018167023 0.4359444249530944
P 5.194303928957671 1.3894320429031406 3.519086133409408 -1.55308977697308 -1.511374399512165 -0.14023979349107463
P 0.7753120041128106 5.710999026595285 3.380693434497642 -0.6527215886802759 0.8058549503045669 0.3457496118345529
Ni 0.8682231639326924 0.37519798371634516 4.641041488876842 -2.1403436229678494 -0.03550976287083562 -1.141983751219904
Ni 2.029387743503487 7.036111726093842 4.578508793900163 0.5344282175533054 -0.6539932563038479 0.39528602800178375
Ni 5.793719941879155 5.591937500902198 9.24781016349453 0.8981310714321694 0.5945730053640018 -0.35583707797754205
Ni 8.9490498969359 2.4698101849041367 10.043402894584403 -0.3959041212017569 0.22779922586929802 0.04642692400397166
Ni 2.7911257542048986 5.492365860851587 6.582854437712626 -1.552751934017687 -0.7881565045835394 0.270893743065927
Ni 0.5613876092511855 0.2179892467671433 9.164848912254621 1.7637687982223238 1.1388878859034 -0.035253423885655416
Ni 1.541424129214114 1.1790882003224137 11.381933595854969 0.6978755595090949 1.0630912504880596 -0.3936541488253156
Ni 4.337138939787135 7.1769485963321085 1.4621631447690544 -0.29187857284771024 -2.1435006805395926 -0.06663836595484007
Ni 5.908709360241637 7.808887052210281 7.983745517614032 -0.38210732452798063 1.164829031249194 -0.30471351982884937
Ni 6.022946028251246 3.029693200377711 4.597583306456356 0.15289424903029153 1.3032777942781169 1.3354340672956873
Ni 1.2379478363483232 7.608564765532271 6.946051948333521 -0.05754488829400412 0.47656682646014703 0.01779254809673065
Ni 5.101289379330286 4.783565245448054 6.6623775243889884 0.2869842208698864 0.06037155910952182 1.9880263294869507
Ni 0.6737904685698167 7.977675447599835 11.24903597451918 1.08941780419773 -0.9240704170057504 0.05929169578178175
Ni 4.529035864081775 0.5077473446479125 10.180945801832744 0.8224079695672417 0.8533820493512528 1.001648569801546
Ni 8.594114501633896 7.3779601483934725 5.035220571551373 -0.21735874726226437 0.025375759760627267 -1.1319191678950504
Ni 7.4945911066821 6.31639169593296 6.898133493340223 -0.09260136567750504 -0.6164649203410866 0.3664086828458012
Ni 2.8210543826926497 5.269270608678807 2.2922672122178485 -1.4706270423914736 1.0023846766366222 1.0510970542406608
Ni 2.7053575603840936 5.179983533690351 11.530467565183402 -1.2572655892140605 -0.6238159613895191 -0.5068744763047529
Ni 1.470048884911509 3.490648494777229 3.5878176821955954 -0.534321259661796 1.258602305747613 -0.41543036416014256
Ni 1.6992296248767988 1.459220162967759 2.2291241546056466 -0.758561564535242 -0.11382736493581687 0.6781397716430644
Ni 1.5033875631905909 3.6656946943051305 7.961790601297927 -1.2241806337346335 0.5592254791026434 0.01430870331318826
Ni 4.289244064925374 2.60976733485049 6.331554627438618 -1.522723763086713 0.03848170101496598 1.3522241422698325
Ni 4.352756242288924 7.120945783934575 5.824162798620014 -0.6238144187276224 1.8364310017737404 0.031056097974856194
Ni 8.590786075374805 7.564832690814715 0.4037072696712676 -1.6828194149614502 -0.5439101889018116 -0.4672596901266082
P 0.40085498068357134 5.996182578958108 8.115687236694484 0.22870888216776095 -1.514205955423689 -0.4860189730119823
P 8.526031406464945 1.7531011561547498 8.055490788596122 1.3379930862721152 1.000307225282303 -0.9446212445739087
P 1.9777563247214374 3.3332964631825406 10.129403262008022 -1.199481845436373 -0.3601801854375862 0.9359329727712913
P 4.028075969603631 6.214616220511888 3.80306619213577 0.8322696928526698 1.4033073340988929 -0.22695050471575753
P 7.198061883338013 4.182308168410505 10.266296808710994 -1.2439192498141416 -0.22840934864947113 -0.48772592840076
P 6.542534226642675 7.639772162691771 10.073083024762893 -1.025450814427466 0.8488206552328156 0.5681448930794603
P 2.577825325900837 8.935672706930012 5.563186065134965 2.736535651992513 -0.297108710898398 1.1192626554733047
P 7.400696836762804 4.3358783096781055 1.1627780047247256 -0.22182501056373413 1.4877505894456375 2.4406808681058743
Ni 2.9554792710094495 1.901012065853757 0.26974400777568797 -0.5026429547219086 0.16016892831483384 -1.15484749455645
Ni 1.7181027993868014 1.4041877636757376 6.880320517821197 0.09430960661786338 -0.4328681000206158 0.2337870680216167
Ni 7.028974201663582 0.7615611597148932 9.282840262747238 -1.1999472151085655 0.19184723325472122 -1.6487528122950441
Ni 3.239211738354685 2.039509061501163 8.721981392599336 -1.6521155581196902 -0.23017929606570037 0.38168309250636845
Ni 6.6116693584493795 2.6029925816746267 2.42017400802127 1.3991220923729515 -1.0423632739120887 -0.005535327995932402
Ni 4.269572793655698 7.166391952829156 10.249359018843199 0.6613982905186674 -0.5282742821367676 1.4113687709507885
Ni 7.52951690919917 6.1991893729186565 11.324856073616283 -0.6254565823167357 0.30957521879652494 -0.4252923445558869
Ni 7.712879639734122 4.13375123600947 8.11530179223669 1.6093390863841124 -0.06732433627827115 1.052792953885845
Ni 3.344070769438131 8.720494937384444 12.334103841911393 -0.3939660236387796 0.12661088985373034 -0.7300827403692588
Ni 0.2740519164216521 4.8242319030659555 10.131421177110605 0.5456950487163763 1.2128374408076725 0.029933811444954897
Ni 8.873121873390613 2.461802009463324 5.81297311927814 -0.05523989430991131 0.7596401423114014 -0.5347598898611113
Ni 3.6757253194892066 2.7699943286362747 11.275543670077967 -0.08276355365147682 -0.6002152912514437 -0.09749443210374824
Ni 0.9428243516150225 3.5547773832732545 12.380694554113598 1.294230596474184 -0.033553667585729315 -0.5250668309430634
Ni 3.5520293910211977 8.385874732328674 8.294139858301174 -1.5278978510884849 2.0041394329987288 -1.637199046019174
Ni 5.728829233748896 8.156222389732667 3.621599848333178 -0.3286090954995244 -0.1888290152536877 -0.5490223133173964
Ni 3.2473196758904574 8.65622094038666 3.1125628518758846 0.11360393607110113 0.28169931832186323 0.9278010876927764
Ni 3.566903012451474 4.383464828973628 9.241677515438948 0.2542931583947685 1.9864132193635593 -0.8272038482939882
Ni 5.156376194310467 4.4667389704204545 11.484991467660334 1.5506749968840003 0.6289993053626716 -0.20969197474562595
Ni 7.833002271346321 0.11595076218663368 2.5260188699885404 0.6091264776981445 0.11448916688953185 -0.18882927236400382
Ni 4.632090108174597 0.3341903211193109 1.1673199008297757 0.5864364922997966 1.5732546819567292 0.6712057635273924
Ni 6.338275871854457 6.008235653885448 0.22719819506001057 -0.523318480793389 -0.383657699734236 0.2403063571973732
Ni 7.804443104343918 9.045755644076774 11.259429370957653 -0.34012892321366583 -0.07349781207883471 1.1580803996714506
Ni 0.25868673994166813 5.071206573059417 5.940772897561515 0.5671444768394039 -0.36690850530035524 -0.06440844818305681
Ni 7.704544970164351 6.384665246010471 2.6617170854082737 -0.4673964728147886 0.5722370608709628 -1.1103802653820103
P 8.913725046038994 1.939538373070716 3.4770745013658306 -1.2352250644742533 0.19266278717748112 -0.4162086370870639
P 1.848954390847791 3.658312299278152 1.1169019518936838 0.4776258638522806 -1.4026753569418489 0.3818034201343166
P 5.05764799742633 1.3328487964985722 8.136221903549625 1.1542296584667928 -1.6605503191506048 -1.346772375126642
P 8.586133534037163 1.8007602297011527 12.155013649825102 -0.7275376053499018 0.010440478607033631 1.0159032799483472
P 6.423545255200467 7.933254107498925 1.3282171145080588 0.7652109515309595 0.05454672489762864 0.2483613662913658
P 1.8882787948244233 3.413269386214354 5.767151482135256 1.4988883512300122 0.03426560605108937 0.29982585271924495
P 7.121335763033051 4.231799236791613 6.099435440312712 0.7742676624165892 0.4358104704783914 -1.7040207316294138
P 2.4589089087095077 8.657753648936488 10.180561264303085 0.4809983798689394 -0.19575608139082415 0.006755059335646431
