# total energy = -340875.84255591105 ev
CRYSTAL
PRIMVEC
9.16073536748586 0.00000000000000 0.00000000000000

0.00000000000000 9.16073536748586 0.00000000000000

0.00000000000000 0.00000000000000 13.40766219163422

PRIMCOORD
 96 1
Ni 4.283770547790601 3.0292170019868765 4.273679081726172 -0.4406528861723573 -0.36405998010796653 0.25176087889121807
Ni 1.5960199560720272 2.6016854830808613 3.955716370152045 -0.12116323647559776 0.31654933612151287 -0.8465020344019679
Ni 4.258193774686132 6.866181843689585 9.919672046140255 0.6229276452472949 -0.5648001449769434 0.3697542022792665
Ni 9.235120523666843 7.172242011820074 5.01465340538334 -0.8033355263168229 0.8805303276312707 1.2745747699164693
Ni 0.21963504259342057 7.424611110048954 11.798635054680476 1.141899419036214 -0.49384283993177536 -0.055753086500903985
Ni 1.8452744042810214 4.454141903878325 -0.39212436069466616 -0.6086989032424227 -0.5164616057725556 1.6508523751365505
Ni 3.1629637381348905 6.259017465254363 12.12424056775928 -0.06903283432894564 0.9803647207221051 -0.13619364844615897
Ni 3.225549882063879 1.2096659425759662 2.6279282416454652 -0.908295670669997 -0.5488099401962742 -0.12476895154898512
Ni 1.572082954595674 7.036479913894487 9.565777266219074 -0.029289492992736657 0.8281325307558447 0.8320418931125799
Ni 1.313896789417891 2.8845781515046167 9.093599071425075 -0.13599850171621738 -1.6779163212328778 1.068530933446392
Ni 2.2499315670115845 6.208193705518118 5.220594980771688 0.3988557476309131 3.204586213451533 1.9413235261137727
Ni 3.681369751738734 0.6774812669282715 7.304387451428453 -0.09481277150652703 -1.0996945035333898 1.2606633020416997
Ni 3.971270382707231 8.637135202054932 0.9102812022969189 -0.14098952717290558 -0.578477899574352 0.5725988150857558
Ni 5.467557412995462 6.592477392824491 0.43284932577820123 -2.1551498347427467 0.05597214449024553 1.7705642238776023
Ni 8.455047265451228 3.711187945311459 2.930338772811478 -0.9656955487457046 0.07546856265196034 0.19471838415492917
Ni 5.080855291556001 0.3891517020727463 4.099057144434841 -0.606250184591614 -0.16180209304288265 -1.126705484904595
Ni 5.744349031674383 3.55448440636982 6.264435124141893 0.5016898467800199 -0.6896732262039607 0.3808356569044086
Ni -0.14991176975121853 3.1888519762413488 11.125945768415152 -0.47044605827438984 1.3352342925800553 -0.5230017208839186
Ni 6.457338224902881 4.354509746183407 -0.04228045794640713 -0.41631148121351524 -0.45639497949796237 0.13681302719771277
Ni 4.980554400180344 4.164076379673481 9.760295404622726 -0.6611761472055323 0.3592293914885426 -1.7950007596534119
Ni 0.6612063045008357 4.7823435693560565 4.545586196315085 -0.9683270728312807 -0.07626766151448801 -0.7849071444083063
Ni 1.3130723232361567 3.9760522865612895 7.160857965997393 -0.5100536453636828 0.671762664472127 -2.297589206988301
Ni 1.1260650717481049 0.36357950933595307 8.552412141146377 -0.41439883757183477 0.20756207288681672 0.8608199936865368
Ni 4.549047122131299 0.42258014144793243 12.121626093889649 0.6125316467249516 -0.09387149063918027 -2.1230750656953887
P 5.394454744881684 2.138821007919854 8.012808185936608 1.2621419434697554 -1.1845385938629793 0.9833448863963516
P 7.63876162038677 5.085032586876788 1.4326217517347057 1.408761929455561 1.2340575265287133 1.5259939491975525
P 4.231536034810055 4.819710208859328 13.31352662239631 -0.34033589701814937 -1.226996505916874 1.2283183100520911
P 1.8362968836354698 8.394760466095743 0.2718512341032617 -0.052415023266606506 0.03892007410396523 -0.9241238959515052
P 1.211360678616198 5.518839209499337 11.24812982440111 -0.4831002567032906 -0.5271491673933889 0.1885629060764946
P 0.9186935055712149 6.466169173782791 7.5395572690328185 0.4904158165280973 -0.0762882303397783 -0.8916068971604064
P 8.545591973676363 8.36086574529111 10.033637090367858 -0.6340978029315015 -0.7391852168911592 -2.2909310782418353
P 2.3705601301346704 1.7554991978255052 11.126576027007411 -0.7028848397982282 0.2973658212145266 1.2265285651415199
Ni 4.239286016918357 7.8364228070899 5.670462204614422 0.7393664796640299 0.4016129986610761 1.195302774358019
Ni 1.3207948231384017 9.299154063781543 4.106793385440114 -0.8538116806895037 -0.2031904261816823 0.3248791961434469
Ni 6.6356885814827224 2.2331582605809674 3.9385674735719705 0.7792090655822644 0.32887546178703364 0.7242692190112753
Ni 2.4996990164003243 6.700519105573099 1.416962390722965 2.3874924570083524 -0.3936865447251478 -0.06417524912632817
Ni 3.554841675048572 3.160875090474497 7.448895303395171 0.20758264171210702 0.13414653610914315 -2.139631170281857
Ni 6.769581889396378 7.067095091442889 9.840419776384275 0.25246561826772645 0.49389914709100746 0.6524804192037472
Ni 5.798663031579969 0.8786638403009424 6.191993861120573 0.9238624147600024 0.677343243883698 0.6137385225488591
Ni 0.5383718363048433 2.153670559926425 12.984396058353823 0.5534011591113824 0.5645972849375179 1.1663884053165139
Ni 7.912456910516511 7.459330297035321 7.587610822398437 1.6020965458890861 -0.5372844560551778 0.8452272814546024
Ni 5.948184554005167 6.803760592996942 4.113751880013952 -0.36039975764755994 1.178005677840468 1.9014380027727449
Ni 6.243728197950868 9.029736837061469 0.12967570535731696 -0.48563947818537656 -0.8473816087934438 1.7253408332634286
Ni 3.0906305717907316 1.5069959299154247 13.360346224709932 -2.3348560617595595 0.4687709845648121 0.0013768257428685966
Ni 8.644912666369292 0.10698822818305863 13.251637610427656 -0.0807192695279384 -0.8922010791009796 -0.8561899511136932
Ni 3.325182039758797 7.012945984773649 7.71942097909291 -0.10069159888480723 -0.3693124867561575 -0.5038457167807581
Ni 7.318996992168786 7.005159359723935 12.69161254396986 1.5461819941096533 -0.3470665308737636 -0.13675543448689997
Ni 0.26065589942884465 5.157723021899699 9.269910248315426 -0.22055437138142658 -1.1713107823187956 -0.014674314182723115
Ni 2.765296216478364 4.846569484913161 8.685457164966381 0.1461942113022966 1.2786556248540624 1.7219572615031764
Ni 7.1024555299039385 0.15887738144081176 11.447287875260855 -0.02602367775727131 0.3030021935646975 -1.8502591659060845
Ni 5.580811584159702 5.5066554314803735 11.600979364418558 -0.2999703487169092 0.2913057310633757 -0.8954535246000063
Ni 7.8693190077411 6.605073403934321 3.149553337652214 1.7044665609175806 -2.3186406283419614 -1.5020258684177294
Ni 8.57601477578236 5.237164918877479 6.562500718530165 0.43135474869988283 0.03793019938687016 0.24405836804063774
Ni 8.614581471616821 4.822888984026681 12.992896304687504 1.9229763910651527 0.6821211248883156 -1.0874552811547207
Ni 8.515370707748124 2.929135968259681 5.545865210936588 0.16376127365178247 -0.15198099318740277 -1.7668546362364992
Ni 0.4629744039852385 0.13620547751665288 1.8058374385880624 0.9672582652471342 1.1647058754077684 1.865132997694123
P 7.124331365925957 4.412836148173434 4.798226452310401 -0.42954469207433765 1.1803906331328768 -0.6207609766132793
P 4.642156836255163 6.571371058572092 2.5430714340007623 0.16094257325606476 1.1084460244737748 -2.2092486734696792
P 2.6150967996370733 4.2101823607031355 5.240465531825022 0.4841963179809468 -2.748005086084693 0.9409821051594246
P 1.2919018638362898 6.86891174282466 3.3062358069025417 -0.550193193697046 -0.36163928648161586 -0.7421944360311282
P 4.8190048322371775 5.217762481400663 7.772059480502507 -0.3925984538672916 0.5424935110599431 0.1404825056295
P 8.751360411166548 1.6221097303562426 3.4319595710287456 0.7048530192681925 -0.44823224118151195 0.5265673267479899
P 3.0968323896244443 8.575932329164187 9.356819060679113 0.7861659565160719 1.6244540876486797 -1.154066393416051
P 3.157797083396022 0.6106152274425466 5.231226930221921 0.9372671182016827 -0.7920591820720553 -1.7877391929949922
Ni 8.584864046132974 0.45112865710078665 6.185745323536564 -0.05806605090479677 -0.9212661147877358 -1.3964756558890403
Ni 3.5958268050161206 1.9475173715514313 9.390431630834888 0.3522704436722062 -0.34333508885578934 1.1295632660683645
Ni 7.652805027682311 8.905205800678175 3.777152568438488 0.035333128083655276 0.5072100052673008 0.49720532864610506
Ni 7.169255612095125 4.980902508123742 8.659325251299544 -1.1923395779646369 1.1221422910139447 -0.8417717188058341
Ni 3.321682638854102 5.153747262756669 3.2288330896142523 -1.1374136153507186 -0.6316411138608928 0.7375299406759233
Ni 1.2232971167806403 4.872182900959041 2.032776335478114 -0.6530810289022236 -1.5140794571481537 -0.16434388562812988
Ni 1.6317101810057713 8.41279795400502 6.603353933908637 0.1134769235749336 -1.1433202106431406 -0.7935766471578461
Ni 0.4134349793454282 0.654867075636834 11.033835490518257 0.29002917834379727 1.947294656095543 0.16680391713284823
Ni 7.276949216900334 1.3490007272890685 1.5376715683171531 0.34610776650492003 0.891060537738633 1.9289572912389357
Ni 7.302525990004804 0.5433122208805025 8.269041282337216 0.3942125924319469 0.6848341529441044 0.8602708060512863
Ni 5.766911922847846 4.524074957560101 2.73667807923683 1.203378866497934 0.4437410381793777 0.5889844555326308
Ni 4.45595572947814 5.4713041537546765 5.385012774953755 -0.571603541052022 -1.1727763111207286 0.4355309915647596
Ni 1.6538150354116041 1.6536409814399047 6.2691950422311065 -0.4009668804366449 1.2118894750721065 0.2926560744436831
Ni 6.437019713890806 5.88144859696145 6.475350978826706 -0.6408798588503414 1.3443799636350653 -0.34397375088105275
Ni 5.610180901700148 8.08928658502782 7.823196537387811 -0.48751124128679263 -0.9261707511782049 -1.123308286297588
Ni 7.804149536442678 2.8203888788889224 9.11050612459184 0.14449316945078985 -1.2696277103238394 -0.5954929460751099
Ni 5.871893949988684 2.2772855227744593 10.792122159651527 0.12557293550751922 -0.6058637477864728 0.8114231884209638
Ni 3.832338670349643 3.435275757226388 1.7524221068205657 -0.7562840813549749 0.24826263592997244 -1.3666542016522334
Ni 0.24366731571744113 6.937699704587361 1.1133600478875787 -1.4286722952262427 -0.14811302559156425 -0.6291222040937811
Ni 3.46459011035472 3.8196052482095237 11.566280331049967 0.43253411371996475 -1.5632320076134045 -1.497608198966008
Ni 5.30021826030945 0.0983020189217198 9.765148762212537 -0.7093491073663332 0.2742701157373276 0.03276948112153712
Ni 5.085756284969644 2.6515107226636734 13.178900455654446 -0.38025201648679674 -1.4818401374984735 0.14071647601717702
Ni 2.4303797319871725 8.557409322281222 11.455252218576408 0.13840942515055515 0.29204158078813575 0.5910058568380337
Ni 3.2252384170618904 7.860561344744011 3.646924470739409 0.05588935496845213 0.2621954439609807 -1.391019003649843
P 5.254414583546431 1.891911707961127 2.354184399618356 -0.18718350923046473 -0.13885371177682537 -0.4631042731973379
P -0.19033809486225867 2.1278556077027875 7.3498393559539315 0.30610242975657603 0.2868541230499253 3.641536711071638
P 6.933733106179685 8.211078561540686 5.79389303668187 -0.8587060326673276 -1.0363157821664282 -0.19074782954295538
P 7.617032356130394 8.152706355873896 1.6947415366728962 -0.6894842501216061 0.49589997957112014 -1.2676543886475522
P 6.95483027969673 4.167923888521575 10.656034855620922 1.611079723224303 0.14958935302677462 0.37540780102061794
P 1.7624613566934841 2.519550329909417 1.3764307171553698 -0.3830815155157919 1.0408175266915236 0.977334932756846
P 5.453367433934278 7.632294141227832 11.825879997692654 -0.6209805488232532 1.096323787288944 -1.0160194938112372
P 7.217047168429659 1.9342526267608613 12.870980658247378 0.63455880172832 0.30935796057939624 -1.1835584893378972
