# total energy = -381170.0790166414 ev
CRYSTAL
PRIMVEC
9.25987195300187 0.00000000000000 0.00000000000000

0.00000000000000 9.25987195300187 0.00000000000000

0.00000000000000 0.00000000000000 13.55275860541628

PRIMCOORD
 96 1
Ni 7.6946665261047595 7.157325417298856 7.659301223191536 -0.17026256510541002 0.5850830635956956 -0.5091360186454199
Ni 9.070729795747548 8.745263816800644 2.131929948334995 1.077388383837022 1.1759007156823231 -1.0305140878829864
Ni 4.678226202163999 4.876007806930328 5.797951214853519 -2.3467700395883258 -1.3252545556595239 -2.3362737680426924
Ni 1.9400913293797541 7.123267608303559 8.813426660138132 0.9465454581798152 -0.980116352156725 -0.026787552506489353
Ni 2.3794722529324632 0.36220359488163595 9.880706536121108 1.4060550720473592 1.2893012774933665 -0.540201886812289
Ni 1.3673867696350137 4.566894761829453 12.637134285922812 -0.04257875390247506 0.2110124933292624 -0.8544925088066123
Ni 8.711307866396686 7.412231172063007 9.781527751720612 -0.016619353724235897 -0.2998415364485288 -0.411434098516556
Ni 8.744004474216805 2.0824896400729798 12.283597005189817 -1.2073512208821207 -0.05543632659143356 0.8363454055839403
Ni 2.6994841673067107 2.2594920922059627 5.129298640028144 -1.635274318192635 1.2973639998968431 -1.80239859477938
Ni 1.113258844113822 0.07076949728859709 12.742656082602206 -0.5175041881044572 0.12189085867024169 -0.7096915783074165
Ni 1.142371881493163 5.992674283918069 6.825250667748378 0.2666305969141989 -0.6210427695197562 -0.6331868610814579
Ni 4.0430638061840005 1.013844858966048 0.17607090901581932 -0.8558629067915777 -0.7542531669678751 0.08479215404573139
Ni 5.996646768980326 3.3345817441831302 3.2751731837777114 0.47531649899281364 -1.2639311741596941 0.20682493761047605
Ni 5.549691270180702 4.901768770667392 11.719706917544755 1.5319956753069421 -0.20183545481568466 1.3092296409861777
Ni 7.108211056529129 1.7751822700004034 10.077411217780817 -0.3375632193690186 -1.0699193291534865 -0.49823736945504515
Ni 6.289925433063811 8.75004191072168 1.2721665804888629 0.05811773007833862 -3.40619566829934 -0.7856774469154276
Ni 2.1217422372266137 5.936855775863785 4.518842508371243 -0.5282138612124774 1.4943765794025876 0.8069268432125072
Ni 4.73795237617696 1.6816760831503454 4.449451806014511 1.376602571114197 1.4320903197688561 -0.39785635983212125
Ni 1.619153427811507 7.873770969168122 10.946048320907044 -0.426038221582976 -0.20556663972334274 0.7084520494733605
Ni 2.9968464349157338 6.286332602751093 2.4040970303824887 0.6316454847362671 -0.23649958185677336 -1.3548451248324473
Ni 3.900535857283615 8.910802547471913 2.6835275559797136 0.34689735228575097 0.09172153417571301 -0.35218791126072896
Ni 3.6247676110386573 4.2872836687293985 3.750671311845172 -0.24470397204443664 -1.2952094154476854 0.039903778173473216
Ni 2.320616506881862 3.8482361005665293 1.5313392842429632 -0.6663227244034783 3.7056173436016313 -0.6294615897110708
Ni 4.43496936630036 4.942993720544243 9.813999344652588 -0.9725454817880025 1.08777744038083 -0.35906895465127836
P 9.177477599471798 7.361348175752742 11.867148154496503 -2.354928149919086 -0.4130312678003467 2.4479180092842614
Ni 7.61943006659231 1.1966810304212268 1.0203313992600136 1.1687296518551806 1.0650648292746625 -1.9989411766272414
P 3.221481668308045 4.252920283960081 11.57851424217812 0.6532725760877394 0.018425553695039235 -0.9084316820272291
Ni 5.950004794018576 1.8447702076294574 12.669660512099234 0.9518540148769221 -1.1544572010965666 -0.47151897962359435
P 4.444201458624534 7.229107944577689 8.737585530988001 0.286785474595519 -0.13971117468111421 0.3599081627231221
P 8.186745380867974 3.4707666808046196 4.208972005745677 -0.3537750532421907 -0.3427380787017387 0.06083075813412749
P 2.4242622535062135 4.2965898400290925 5.772336557093108 1.3497633394341657 0.5732251358158451 0.7685377019113474
Ni 1.4989232505426264 2.4107335806018826 11.317637721987058 0.3606167587543725 0.44611519483850914 -0.7946164012762703
Ni 5.366568042695383 9.212396576557515 11.131855985267768 -0.4492794514991037 -0.1952683431211282 0.6120804181201459
Ni 4.638232815255166 1.296178354416461 9.238902033998553 0.11079911963245433 -1.9224832534788179 0.11782825856509384
Ni 4.308386916880645 7.094080491948698 4.284040861576012 -3.305441591607714 0.9054432888228665 2.0784101186878465
Ni 5.833858220275233 7.290204579637769 12.794020592253352 -0.403714361274795 0.1995075780134564 -1.104031440345847
Ni 5.652142493324794 5.515985336319123 3.6790721300307516 2.01503036887962 -0.45842383700253314 -0.2267497015588611
Ni 6.477178563434367 8.748458472619943 8.956137028515736 -0.1942519860414719 0.6628563631214326 -0.3364692149738915
Ni 5.713720641725753 9.632581785578616 6.607159385856061 0.0752890996513026 -0.28426065129113626 0.06104364547588196
Ni 9.211063154998154 3.1602461351688653 9.312533757703802 0.9739251357443486 -0.8230067794935053 -0.517371776291651
Ni 9.375064746927386 0.6749826232835546 10.340280462413363 -0.9061174320717555 -0.4102048540951451 -0.4110036958473567
Ni 6.23199567420721 6.704276922762717 10.167482918128332 -0.3182398364500584 0.15931480784465465 -0.1779686755004161
Ni 3.067749274360267 2.0663404234096303 2.379091672195729 1.8701739025521402 -0.4329033241339254 0.0032321337840524977
Ni 5.079224956525434 3.300459116084253 8.528208714578412 0.7029737999676087 0.03432499853411508 -1.976868513097918
Ni 7.808201815961025 4.695245846789708 13.081488686694493 0.20689204340298561 0.14558665962528475 0.13245372178775253
Ni 1.6906025997004996 2.190524565996888 13.666737594956343 0.304532771276611 -0.42599374149828567 -0.7264615986769036
Ni 8.199996257614105 5.030323572810326 6.98983563160983 -2.602628228477369 -2.358908474723073 -0.3248971938655759
Ni 7.6974907870464575 8.959629852211501 12.79379094742924 0.5202223583665686 -0.6030681873192065 -1.049198294556051
Ni 8.771950767731706 5.03864819768438 10.90177131723877 -0.5247665260938252 0.7647152428414636 0.2619663586693101
Ni 7.5248126951094525 1.270213673496718 3.2038314264032226 -0.3375537062873219 0.17479721975096993 1.4992189950965535
Ni 0.3361620570247912 1.647247879277448 4.099438832541877 0.7647568947126765 -0.7524917041920782 0.10049053861759467
Ni 8.029633133662099 1.7848217966899371 6.072896258483011 0.00922306126016476 0.507170924499249 0.6885288281868722
Ni 6.131600142633796 7.023455448662365 5.704532070799697 1.047148611115874 0.5515041991989856 -0.032108450498770515
Ni 5.490761445154581 1.3272359649032002 1.9587934927369597 -1.104665217275104 2.2685408834720926 1.1629431270803907
Ni 7.1363888468425305 4.216538247107845 9.328024597472218 -1.0793899876480828 0.6407646734287158 0.2661814251919222
Ni 3.580357265214447 6.988110517467408 10.909170880906018 2.318647056099865 -0.5070030314628171 0.006453211824511466
P 3.406447610309422 8.790451991867814 12.335314315961877 -0.14707121459061123 -0.17354483540110757 -2.1702319258868497
Ni 3.156764423319428 8.863336443907505 7.634377351877848 0.2916165774355752 0.8309512311515624 1.19936383180127
P 4.539781856789151 4.247753275417565 1.8243771916560088 0.4372397467257502 0.4039293054990786 -0.777346558452229
Ni 0.4698227525554386 8.647424009882668 7.836855563692142 -0.838514388210801 -0.8866215281306731 0.14272887846151547
P 0.3472646434808438 4.679624442826938 0.8430233713530112 -1.3160088686915399 1.1637183146835184 2.093224300882543
P 9.297374421350838 5.348955766265514 8.590077622958287 1.042635553736869 0.8868804382190146 3.0602982180330134
P 1.0340498995391147 1.3445056260712889 8.304357792339419 -0.8551010889248886 0.34124966708167037 1.1343288057778078
Ni 5.981858753492155 5.818949826451843 0.943017024484229 -1.0952709205443976 -0.3227832328463667 1.1473591565992045
Ni 7.705028322805614 4.992330318240531 2.5186036808052585 0.7992772970870493 -1.1763378032197418 0.0013030350821396914
Ni 5.644364200895199 5.619881099485855 7.423875461027549 1.779209044036794 0.5891497774659015 4.294335175736437
Ni 3.81734516777471 2.2367313269774574 11.36943651963219 0.6212929378573494 -1.5378999566065192 -0.9860003217413277
Ni 3.547132844693749 7.889716468648791 0.6345373546240495 2.0938107695136323 -0.8787524097952414 -0.10376766670696969
Ni 1.8794484280447343 0.19649911250263977 1.3452390079289362 0.19412034555961408 -0.09571394316455774 0.9605548850850296
Ni 3.1501065753945725 4.6666976615987075 7.904253541607388 -0.5778050418770436 0.620806485139234 -1.3251843645432209
Ni 6.42736971226914 3.297875611812994 0.8794563375009171 -0.0424828517545591 0.570273766497005 0.42087724620732675
Ni 2.475395266358859 2.6378504596741115 8.951813594306953 1.2308919843165382 0.9458733718134549 0.6976336187016179
Ni 3.4506727586948327 0.005859646963628116 5.320555739025554 1.7848220193481972 -0.08613401278560649 -0.5353527862501039
Ni 3.7858245636909706 5.524726655430478 13.159742012484992 -0.3698341635875824 2.274925446842198 1.3417183576425022
Ni 5.806365660485391 9.00782748565917 4.2149761067115685 1.108544240614536 -0.6211656682508657 -0.03093165658184996
Ni 1.8020173788825056 8.025280993850302 5.812723488559391 -2.5111355224830105 -1.1002637457732984 -0.3528931648578697
Ni 0.5502262206104054 6.215151967148361 2.770319409686082 0.1641219994253109 0.34542616705686313 -0.5216842876240757
Ni 1.1186851290706585 0.9808704549877298 6.237602526666875 -0.040395115987594946 -0.2580809075719749 -0.030668118507818146
Ni 0.04141662922601055 2.678612415953965 1.6695780604607435 -0.3252296375043302 0.3194523687009208 0.6632278875282384
Ni 6.511421569868465 3.422013455040552 5.710413941455981 -0.37862759350949626 0.7148396981672592 0.10330641079983499
Ni 1.504405094731103 7.06061531475756 0.5161850793845999 -1.6894934845475165 -0.7569597672657609 -0.12404390045750252
Ni 3.7708420908920606 1.8314174722919863 6.993006211762083 0.7885164590261194 0.3995206349084216 0.94011307229091
Ni 3.719662778679715 6.906012492847423 6.577275927131312 0.10781612574473044 -0.5348984723215047 0.7729875101525848
Ni 1.7004365837007729 4.85907150115208 10.183190438900143 0.7580265179673784 0.0734211932046284 -0.9838889318252797
Ni 8.058801730273078 8.891356816397927 5.541343495626798 -0.933028911750619 -0.7596877077198853 0.5362719556302635
Ni 7.712723276387748 7.6206894091761495 3.3325964276391953 -3.6245540604707127 -1.1561970666058088 -0.46617159926875196
Ni 1.0794047523012047 3.8478008865853495 3.6747218421933425 -0.18301703655760093 0.6659308882816983 0.002664691316356701
Ni 8.201450057508683 6.677423294136735 0.9744200281943302 0.5249591017206057 0.9189246111387528 -1.2450826739946235
P 2.3091527854201495 0.6184131396149382 3.5748244917303005 -2.3473104854728284 -0.554218255696039 1.2705422517183085
Ni 8.213858285908277 5.778715682872569 4.951568361960678 0.10126006979376755 -0.11721247935796587 -1.4321286292059592
P 9.318672126812825 7.649904305146829 4.5214713860150075 3.3030594645287823 -1.1937688542119957 0.44015846303444195
Ni 0.6415563375545648 3.355286817840956 6.190398477478369 -1.019881547869805 -0.12093852205930142 0.4376863473448656
P 7.048290425205428 3.2569099383504616 11.558971282448761 0.4019909508257851 1.888921872583605 -0.2697521732623161
P 6.6820717498506115 1.8877452733029687 7.874925675199039 -0.18435015354672765 -0.09616491465904728 0.12164480409770664
P 5.486659321885164 7.373015614397133 2.6699748074083383 0.9655171141863114 -0.02676235569550875 -1.852975536395983
Ni 4.116513110412032 3.284689554170443 13.413802340941022 0.07491423281038712 -0.17052584606912569 1.093364447550304
