# total energy = -340870.235324001 ev
CRYSTAL
PRIMVEC
9.25513646649537 0.00000000000000 0.00000000000000

0.00000000000000 9.25513646649537 0.00000000000000

0.00000000000000 0.00000000000000 13.54582774225030

PRIMCOORD
 96 1
Ni 9.015594894581556 6.358500784150378 7.038885653086931 -0.11535717131678197 -0.25224090385143016 -0.5174586795785023
Ni 1.980090142797126 3.056610580524535 6.759287058948646 -1.233828698347359 1.2386505452160346 -0.7248618582899518
Ni 6.48544423409595 4.938670319280869 6.50530205461237 0.23079584660377672 -0.39942987496682825 -0.31488686081742545
Ni 1.4760924386387662 7.24129270815216 0.5001503439846667 1.536460138836199 -0.7637701053193748 -0.22956505952046916
Ni 4.153205408958559 6.467637351790957 8.454058933353595 -2.0827645390018 -0.10800921559214302 0.1454483342752076
Ni 5.0286394995754815 1.7169943822544915 3.6944616194148012 -0.1421776339437358 0.17705670520910796 -0.6282683407339179
Ni 3.325851751592385 6.882313735198025 2.349009132173069 -4.659327180740369 -0.8467426896578643 -0.4287810744354357
Ni 8.512865144100838 4.266025520859736 11.68602565646881 -1.8032300895417395 0.6131343133059569 0.5482939197918041
Ni 6.7948526968496985 6.244782924024887 11.180590629637912 0.7616479167700495 -0.13962915649026922 0.6077002867745791
Ni 4.166754928550301 3.940402059250297 0.30911692595925405 1.2253515141142832 0.26746697677256515 -1.0736587415912606
Ni 7.364089857020478 2.343243182237513 13.024516430160741 -2.853448597832189 1.7822979673747628 0.5322777468692059
Ni 0.23671121788407232 1.8891028975058661 12.835565417810288 1.2379450345085778 0.11281872116564441 -0.31695248509720253
Ni 0.4212179137673432 2.5575921397134134 8.498178168253752 0.3720581678220947 0.3011954793732619 1.8502972182328714
Ni 1.4683366343915811 4.814697768098241 2.095891334111211 -0.6148494962248507 0.5308911509343244 -1.1626276527225008
Ni 7.242893846737795 4.28055608490279 9.27740141463298 0.7223398631990463 -0.3277637167800936 -0.027588451141229906
Ni 5.811781370678168 9.050190594194893 1.7366698765851487 -0.2781221424935662 0.01948716219033418 0.9941049531263331
Ni 2.3440761445074974 2.7721817307339753 4.519132212757994 -0.986436637947798 0.6962349385818783 -1.9101553280410841
Ni 8.322357417819148 4.4076198516206935 2.906122063747413 -0.026192599234967796 -1.1584046157800887 -0.07524050580155428
Ni 7.98066703953535 6.268429797356101 4.650932758251207 0.5965540403497726 -0.9417462370189587 1.7525356485106656
Ni 0.6328523397567285 0.26428041799327834 7.978912265686584 1.7561179665452853 -0.4304967715749618 -1.9827218865549014
Ni 2.6293101911590413 8.317415175017242 9.336854559409911 0.2597025023357979 0.44386162291764203 -0.12026643569294128
Ni 7.192749518084755 3.091224790410539 4.905959890938595 -0.0763260255562492 -0.4872988681656705 -0.9088826535217186
Ni 7.445063044799261 7.487192425387788 2.9055797127582905 0.3492640527457146 2.23606270833873 -0.714755365983569
Ni 9.120400058418218 8.600242886222166 4.426546605421998 1.307424983677271 -0.5828767999729961 -1.0529060824249414
P 4.030926547724898 9.054827417497805 11.78354240044311 0.9826674007133528 -0.044469028946652445 -0.311069029733232
P 2.2793364658570687 1.7001685444008134 9.74156316098617 -0.10842470586300682 0.6195630996504363 0.05557568038277525
P 0.4189818728292526 6.9585575483105675 3.1016692117625064 0.5483743953207524 -0.7351092470495727 0.07881253942352878
P 8.37168729447487 7.830706065529219 10.887959878028909 -1.063122617946627 -0.3852690100854139 -0.28853562451740633
P 3.2351791809364525 5.892578710866623 0.23533683013859863 -0.6686806831126936 0.6952162675093768 0.6243831467468989
P 2.1826850771299173 6.104558353441235 10.022923933082287 -0.02740050350013991 0.43621979010166806 -2.4030512306785585
P 5.743589526175473 3.653603894558449 12.029575391641938 -0.273105148894949 1.3401479278315889 1.5543825276425747
P 2.259697066558111 4.857928509910414 4.010919719513515 -0.3243865727777446 1.2671486526557274 2.3493262303512767
Ni 8.747418064192019 7.163170102363987 12.83704253756906 -1.8751163341590802 0.8193684114099695 -0.493774191477369
Ni 0.1620861281161997 4.124190556554114 5.2152795043835445 0.6689928150364737 0.287627253770524 0.7654912017755398
Ni 8.079187965801799 -0.06540234641188236 9.205378869201992 -3.16051699104646 0.3505660593865898 -1.3230765741715989
Ni 8.01036677202845 1.979747702752799 6.984865273337564 -0.5208746472385868 0.05355273641547551 -0.10486989863221294
Ni 0.32984843134552416 7.330762111084781 9.258464480181708 0.8203917104681613 -0.8048704749041107 -0.6095018587596922
Ni 1.1497655866680079 8.83659130276198 2.0739066832654314 -1.7089950449155533 0.6314045723700545 0.23271106134861858
Ni 1.1975220901470944 3.250940678111818 11.231279160307341 1.909024813981067 -0.9260200845329536 -1.2492470897849581
Ni 5.0835317131674325 5.936975599856774 12.818808993479108 0.45409024262418574 0.4834501838435416 0.2607630823898283
Ni 4.057803463636384 6.47773470553043 5.811389878411276 0.4305147692970908 0.1616740521054506 0.21239420416813745
Ni 2.536573725100815 3.8116908782650922 8.931170466464136 1.017102699573087 0.9240503624010925 0.8688557195068197
Ni 8.636837695283466 6.138024926421928 1.3389044782860235 0.6295909162000835 -0.8531789322015113 0.8641230899178408
Ni 6.931310426945755 4.898993549820628 0.07565148438721965 0.9832767521625777 -0.650154599284048 0.11780846107075195
Ni 3.6817580192839108 2.9047985792517723 11.395643902988764 0.40378635216331105 -0.6199019710470937 -0.2970374913408304
Ni 5.462511035737516 3.1965112213365257 8.003417090155882 1.0091312513318362 -2.786784777956052 0.4836080495776446
Ni 6.069722020283235 2.1494036068758873 10.618804779728956 0.8842843953570642 -0.34324381469356374 -0.7148828927003689
Ni 4.120692115020182 6.992634960289249 11.098435560949383 -0.5637331371650097 0.5020588000836643 -1.3649683293093782
Ni 2.085265512087114 0.45539250467752285 4.012071058473359 0.17701762444105643 -0.8371550459694294 2.254960573684497
Ni 6.038513700567832 3.6148433835951908 2.031697708504439 0.9975026659539724 -0.32702246773869487 0.19144151317587033
Ni 5.781267186187752 8.52374918442863 10.238587119917495 0.2995908538903034 1.1757474779339105 -0.7536417586361215
Ni 0.709591302663094 0.30845518371143343 10.416592082526723 1.6815760294726525 1.087809579170346 0.8940430174057249
Ni 3.098406776205069 1.3725552284797464 7.581003412774296 0.4380239331899424 -1.6498547871099716 1.1434256258727533
Ni 4.492785616158398 4.045410836086289 5.102645420722666 0.5241471473422715 0.08495027689015047 0.5373821579753068
Ni 0.20365649847020456 4.8920336872980945 9.595322751785966 1.565358309927788 0.30479759490222347 -1.0956419307305711
Ni 1.4867728659672286 7.4244240907763235 11.562935119778732 0.3009381119468172 0.48724744610244475 0.24284043647313663
P 7.392651207744597 0.5435476782508366 4.24067014936142 -1.9709184661620702 0.6563195904441794 0.2430006162000847
P 0.4741646977020638 9.224585128120557 -0.10241086006727448 1.898565566320956 -1.975819245897797 0.49945684368444304
P 8.7937215112668 3.1041542158679585 1.0200594785269887 -0.08568869771807178 0.038249787509817994 1.3369106518412135
P 4.116925274532587 2.359559987592868 1.7120299271253865 -0.6474243448370784 -1.5198520979658727 0.8022196675448249
P 4.17519561288614 8.069312735334321 3.8250432634529368 0.40430777188441985 0.7235076582549023 0.940627292923167
P 6.318361257873479 0.9860329697981397 8.246848462531458 0.22794526452885902 1.1637905626823504 0.662901357426755
P 0.45008653501772433 0.9639317042345624 5.808586497615964 0.6602721473340241 0.3919289386040927 1.2541897785022142
P 2.3500734728513826 7.708732623794552 7.241409322869957 0.48530214945061584 0.9540088564363955 0.01105317249036806
Ni 6.281812724493845 6.697960674577885 8.993806452626037 1.015566979654851 -1.1199483686864193 0.15287290887405286
Ni 3.6107063376542694 9.028080073494982 5.775777964828557 0.3821026965422903 -0.9680532503446039 -0.005051703491294525
Ni 3.9294809983771724 4.205043427560568 2.814349057381469 -0.5811001676885476 0.9620096152536851 -0.4585428790789006
Ni 4.894856503879708 1.452223442035556 13.498309071382213 0.6173902603688335 -0.36942664373651857 -0.7399280085944547
Ni 5.40082555207703 6.613785209627829 2.5475095941920727 2.431205067404955 -1.3455511011250312 0.19196036179381779
Ni 2.5988515374866243 1.1270627372427755 12.572342861899891 -1.231695711164756 -0.584104244622194 0.3384970440371977
Ni 7.891077319830398 8.791602085046506 6.317963287011154 0.06987409928331838 0.2932188889256886 1.8675058688016744
Ni 1.6848235283604405 7.025601755907951 5.240881062508322 -0.5062926356593539 -0.019366834562386 -1.9902637034579012
Ni 7.560817034918047 1.4805071386696818 2.3125438950204336 -0.16830672693061982 1.2019377631760333 -0.01685820920791935
Ni 6.07873652307173 8.47751052330818 12.486097022952105 -0.4285607308945135 -0.6758306638939136 1.1130120465779025
Ni 1.9991834890524274 5.6105932170680175 7.004655531358752 0.7954139574769011 -1.813356379342464 1.2024638108828323
Ni 1.6828706945941443 2.0394896077833233 2.215433451531158 0.7516442685901183 0.5073938391433326 -1.3105756134911108
Ni 5.8135398465814685 1.2134594349127896 5.923007748102775 0.6687778708121902 -0.2695110037857874 0.6464354985612479
Ni 0.21392969980000806 1.7907485636934142 3.850401411492152 -2.4793870264268203 1.1794642646638656 0.760537200204374
Ni 6.073368543998499 7.977918264044402 5.134613587131022 -0.6535098889095261 -0.11782568746193257 -0.9395078346067431
Ni 2.754087939202655 5.065400901090778 11.658378713214406 0.11031523801750032 -0.7282734550746618 1.9705641681464448
Ni 5.145004328692256 4.541865604133126 10.03660487560996 -1.2695354077203491 0.5811585317303088 0.8132512427686382
Ni 7.686622103094641 0.1646312906078177 0.4179443720463058 0.602369104369653 -0.3822289377075095 -0.31827043257767773
Ni 7.8421546691733335 0.6609638908550575 11.455150727556425 -1.1198270126172067 -1.8483303243144877 1.3122512014213206
Ni 4.2952254759908435 1.0343540365935489 9.584634920348437 0.4167477974199855 -0.33569402737076376 0.4598304875420726
Ni 2.0322150706254622 3.2506907894308226 0.22480911255963332 -1.2452120004836362 0.46571471423699157 -0.8942245372889115
Ni 5.379344380647773 8.55152384856443 7.516322041482765 -0.837732515739454 -1.196500908431178 0.3330115954425942
Ni 4.044170647817645 8.130526207041818 0.5039699387493604 -0.15980408877624738 -0.4751779165324204 -2.3319553431729965
Ni 3.354311295816841 0.26313833416976684 2.2008177402338376 1.760671904464555 0.5920163003804192 -0.35557456834477474
P 8.588340780897727 4.194548102958769 7.510240491398249 0.2430065297373557 0.2541779729731429 -0.936994067045954
P 0.541422698948744 5.2726141484538145 13.212965814121935 0.861659973089329 -0.6267254217268303 -0.44223899971255454
P 6.9181033473983415 7.285560025233646 0.7093432650093654 -1.4327924880422034 -0.24815516381783068 0.014155208454459493
P 3.802343190568604 1.9798217438434644 5.662643178292055 1.0744655537632721 -0.6768022837785634 0.5584636612359543
P 6.3495603224525485 4.922742229651507 3.9370137538387286 -0.5108802550300362 -0.21009229550783814 -0.3721414715645204
P 8.504026488902673 2.3365794840776406 10.515097275061407 0.21756957772148983 1.491244461531509 -0.9947978654282997
P 6.955188678685299 6.90839470938486 7.080200581678141 -0.2714712128359518 1.6970293879132452 -1.3536480192005524
P 4.247117277331097 4.624162276407552 7.343924765977796 -2.009662676809804 1.6231402539332627 -0.9887107786939553
