# total energy = -381172.104827298 ev
CRYSTAL
PRIMVEC
9.22926811997333 0.00000000000000 0.00000000000000
0.00000000000000 9.22926811997333 0.00000000000000
0.00000000000000 0.00000000000000 13.50796680229621
PRIMCOORD
 96 1
Ni 5.811060949636357 9.036025620396725 9.628735674060142 0.5654007546754198 -1.3243610973109772 0.5716354227312219
Ni 7.4945901903461465 5.499859260780945 1.4101232503092747 0.16236979262089454 -0.04191386662496652 -0.02368860186619146
Ni 0.2298475369848734 6.832279457654131 6.2237688971156455 1.0651126517934624 -2.6006191684671407 -1.2879290797361884
Ni 0.8771782447300865 7.356077335684323 3.9696946128541026 1.0171068133381451 0.8539163245881681 -0.3935248223363029
Ni 1.0711673066205047 2.2294127571465467 10.724326392680352 0.14857968081533765 -0.152883193286698 -0.7962716774915061
Ni 2.908622279609737 0.8909040121509996 7.173270454944509 1.7810841495723198 0.9060994343496266 1.0543659547999198
Ni 9.005070655409002 8.124220084927986 -0.12009769615257916 -1.1067984615680229 2.064409176423064 1.894954194820614
Ni 1.977638325165301 8.171990776274574 12.719911952465546 0.750859567905294 -0.2182969428058176 -0.7577987182272884
Ni 3.6627365414409554 5.0713074288668265 11.013990661650446 -0.981616333741019 -0.791966365247933 -1.0237544005616497
Ni 1.1834782693323738 4.596821529944985 9.847401952821214 0.08593758050408425 1.0649990090337336 0.8837979426389488
Ni 1.9051424247542785 8.81636904117555 10.039633762077862 -0.43020752246931715 0.2871431150452539 0.6191969745602691
Ni 0.6414184386423104 6.085650132198896 13.24969408788931 -1.4846845489258043 -1.5064160270656248 -0.28645483072897765
Ni 2.19043755823684 2.8652539491156066 8.777004367154786 2.5805085137601944 1.075354641236445 0.9706760326794316
Ni 2.153963490964484 3.3108522390894537 6.6089616278036685 0.9533730226246098 -0.11773595596160369 -2.0691770301253523
Ni 4.0912883733550744 2.051740118214327 5.268336611647809 1.2106995685290631 0.026180257939793623 0.9609210101751966
Ni 8.145207440438446 3.3581522377662822 2.546900500460259 -1.204684215572919 -0.18746684479883843 -0.8272452430548849
Ni 4.380284443319471 7.989463542356206 0.7320803073256452 -0.10069416998796851 -0.5530332342490023 0.47332440826344935
Ni 5.281485549816567 4.669852727902008 2.7560301765612794 -0.20052393509311273 -0.5314529369750653 -0.037507252916838624
Ni 3.9129604563924048 8.931864101359322 5.249371388763709 0.24991379838015024 -0.3429635644489835 0.7598278328421753
Ni 8.429616564189695 3.625754864426701 9.119755385859344 -0.7877970643615916 -2.1545481966030056 -0.3528931648578697
Ni 6.9061412897342604 3.532114710948632 12.420007810611171 -0.23052356677899652 0.7264387158587683 0.7120703629522381
Ni 9.086011336071593 2.469059930930456 6.37773246939403 -0.6107359882771094 -0.8166296723225678 1.164143832256711
Ni 4.500966352138635 3.7629110166874526 12.764826185355458 1.2101935754269222 0.8997413533420826 -0.6770761062652404
Ni 3.41225420698454 5.1063509595938354 8.590499318713547 -0.6653953274932024 -0.7251973872524995 -0.6913362157286804
P 1.696736323267163 4.46400313366045 0.8687066996012162 -0.1609042638189616 -0.16255774026198455 0.2781756214393209
Ni 6.386708855484388 1.6826247724424077 2.560718560561517 0.19884577605974144 -0.8276985285422197 0.5244595363763677
P 8.700043346868672 4.849601952141992 11.593887722501563 0.29387632000402936 -0.44440361146404106 0.20664238928602477
Ni 5.014639723134977 6.747988552695014 6.861979242189162 -0.5278500501151554 -0.09996217691795042 0.8135587467067279
P 4.96869642685922 5.960362818630515 0.7562120744554606 1.3405914431269106 -1.4279683271806827 0.6121017582763846
P 4.714531614457037 8.78544176399193 7.84911498628232 -0.44695106047624317 0.316717486268261 -0.8955746235589027
P 6.735999733518193 7.200564169302945 10.587314217000939 0.6993120348453052 0.025384758621691764 -0.5461506481965562
Ni 2.45736644833074 5.821323895690726 6.565493621214766 -0.2381818546552027 1.2123286194920542 1.9070088119923028
Ni 2.957472795316362 7.626070342765678 8.167470280791274 1.1044968100180397 0.6832272134683007 -0.7208491375861328
Ni 0.5153475602178008 4.639119265347113 7.531961342471456 0.22472881447409038 0.945377663123959 -0.2182475776251209
Ni 8.203287224179574 9.184579918680088 9.536273175183274 1.5831539433483122 -0.3090003201296614 -1.713186457289082
Ni 4.848023747308091 6.631727463264378 9.514647154324827 0.23442907248098982 1.2734892501617745 -0.1887685943293975
Ni 4.34660684426157 4.462637201991344 6.019096034548487 0.8223316078033516 0.6412025322970828 -1.0610176557884825
Ni 1.8426602801606922 0.7681639765601421 4.131155119556914 -0.24706578740839383 -0.5835193186530016 0.3193250990944372
Ni 0.5116373944679304 4.863085912740401 2.8956219326563364 0.7255198035889248 1.453426619352787 -1.6977557245563084
Ni 7.032028505724883 6.722755733888682 12.832689916139962 2.012763427222314 -0.6116039927043596 0.5898861414112938
Ni 6.3981531478471725 0.4176234556344642 6.614594250085126 0.26547025805751057 0.9343854257785135 1.0752456264624062
Ni 6.720974485158023 1.8548613725023053 9.391657005570234 -0.35375782685101015 -0.06631286429462128 -0.24583988542109272
Ni 7.323202682945422 9.013017055186708 11.641557814826575 -0.24910595776687422 0.1460574286141162 1.703855666806459
Ni 8.703015171175782 0.014397658133824917 5.123450024481358 0.338175913252353 -1.256214779352043 1.8331232775567463
Ni 8.99051609971859 3.5742001731859667 0.1552196756578809 0.32676175787814044 0.44967514427562555 0.1374545174364536
Ni 0.06028650172817804 0.5139650158662322 2.319926034614526 0.9482575557749153 -0.24070744929053386 -1.3151004979446577
Ni 7.558290598320287 6.758085371924761 7.238609057994774 -1.7290725323917189 -0.08720436303164981 1.827194570777137
Ni 5.062927253491497 6.706650661168474 11.9346535256519 -1.6612144350971647 -0.4013291488720701 0.9187312641810242
Ni 5.887525435302216 4.8800677659238865 8.301780126790185 1.0478929454810664 -0.45550872023826716 -0.2542275952641557
Ni 1.2980688612487647 2.636884940869861 2.173012700187698 0.021176634077615143 0.30513466652666804 0.7969085397445567
Ni 5.492051300023755 1.275143359451059 11.66094112355264 1.0479821627607628 1.7562442077105047 1.0839585808553718
Ni 1.5024786896769404 8.671368011085471 6.335668234473175 0.7103011868669573 0.12751643238713523 -0.5902772062021253
Ni 3.057268870573445 1.9790411739065454 11.722024111112194 0.6126722860678738 1.2693878263988911 -2.3914943790788943
Ni 7.636859357098013 4.463467836114449 6.395562492309887 -1.0858845942334912 0.5058681465274255 0.4873587748693284
Ni 1.6326759738396766 7.5386414866748295 1.6164176952700957 -0.2133758513551164 1.5445850819361786 -1.1874010030124391
Ni 6.145603457351028 3.264318269659489 1.046754046815637 -0.46407897840578144 0.5845071364875676 -0.7102824178138799
P 8.768219949839548 7.259225396930247 2.0615720574514826 -0.7929968633949761 -0.1972462927831055 0.05285056814212834
Ni 3.5776150023587325 0.61456496036912 13.259136552015411 1.049408610794644 0.5745618523493976 2.0864237330209425
P 2.3608929095660787 2.835268057271506 4.382362874480842 -1.6871949183213266 1.5653660232372717 0.32910634685091705
Ni 8.0796334910533 6.19840409977642 4.101153537957154 0.3280362537151899 -0.34640961401605497 0.01893823166539964
P 2.86017785169663 7.054954007522588 11.038102124390585 -0.438461020727361 -0.18302449275676866 -0.519811238971079
P 6.221938733264404 5.334544611746925 4.752656797780767 -1.1154977891142337 0.2284502291897356 0.3724536034883005
P 5.5973941653695745 0.9120011959510704 0.585808407027215 -0.12658697859433038 0.7005641620848515 -0.13047885744956883
Ni 3.88147019385868 1.02500250791192 9.589616498569095 -0.8051399265154134 0.6481645654372128 -0.9752410263422946
Ni 4.988954670194954 3.0584686754179304 10.272592485317167 -1.372421957373946 0.8474325166360372 -0.22564978362646299
Ni 4.785735417343229 9.00641812854204 3.006643566623785 1.2543327318379818 0.6576496221095126 -0.7854064526422281
Ni 7.990571054520345 1.3873897172866863 0.2364529241171673 -1.006729069648247 -0.09115614859054624 -0.28582259646161745
Ni 0.9221192424972962 1.2622223842027545 8.442290195054674 -2.1555262442455585 -2.2823250817403786 -0.7066407072962346
Ni 8.08979491515929 5.7814257699775675 9.518631429335322 0.10307166908120957 1.460598197400562 0.4738951931652548
Ni 6.507492286251931 3.1590123213858075 4.711876354043512 -0.38111616425930495 -0.9145735332589087 -0.48380345341790226
Ni 6.091824512513977 6.816165155665889 2.958514779677458 -0.2017632068168525 0.8087788088195812 -1.3020372370027964
Ni 4.16465182496134 8.76252549146226 11.515406641770165 -0.8839537514905228 -1.1325249197998495 -1.9372416427349153
Ni 4.315338084160674 6.7041310709950555 4.534678099488265 -0.19984876340295907 -1.17659362798429 0.18089947599396586
Ni 2.920066571972521 2.719385367830285 0.3584084719250919 -0.6089799248179513 0.8429734524234193 1.9658006853195307
Ni 1.2081942491287732 1.0974245741786663 0.11716924940523132 -1.034476157854528 0.12150107943099074 -0.5791998653420412
Ni 4.516222332199669 3.006535584187781 7.776752910257797 0.07852303320756798 -1.4470623676976564 0.34924554080295334
Ni 3.8589507798544926 2.673497447162735 2.954260087113552 0.6526663099623082 -0.19605278669563656 -1.4278318016028184
Ni 6.5827292792692 7.6686080391367035 5.332837197160543 -0.38672682557786303 0.13594785098394005 -0.826791700457234
Ni 2.316417066907808 5.303118954089443 4.514092217137305 0.1122628486621744 -1.2201491439777374 -1.5499041801562468
Ni 1.7446731414383725 4.131204957604301 12.10044994247732 -0.3755592389968177 -0.6403383845245746 0.5480100700027981
Ni 0.04283118709452222 7.54858140834799 11.111801521353309 0.1562410540153374 -0.7125120784753471 -0.7758936280557863
Ni 8.807112085336943 1.9254468144301855 4.137585150596553 0.0719122127592697 1.4685830153782515 -0.3393084841948995
Ni 2.785356175740913 5.725653303245066 2.287088298947764 1.8069247647845075 -0.7835439455121925 -0.011241634352090316
Ni 1.0656205165317683 6.687896788522363 8.705168359408232 -1.3586488148492535 0.10834345900311018 0.12534230755395187
Ni 2.6930173490557094 0.6414608932752691 1.8299109692978295 0.27151466447937755 -0.702238721573797 1.2823824388863465
Ni 6.194564724274066 4.92133182330615 10.812735397036464 0.5085130403494403 0.6793049955957592 -0.3079528527017535
Ni 0.2722144918972601 4.382600989596132 5.046320108590212 0.45623042889564003 -0.63477066062881 0.691459628680422
Ni 6.811338248483843 8.472218865436963 0.9904093654649953 0.4293130356795058 -0.5954062998985746 0.20245946155292874
P 7.03876587139007 2.6677106961051016 7.532055481005409 -0.09050180283599897 0.7699392102445644 -1.254639464445123
Ni 7.541013408559698 8.750065979615679 3.3006308247412415 -1.0298319742142974 -0.803109526348946 -0.47908573622725875
P 8.824749216550877 8.585434296416212 7.21819853173647 -1.0943988023520894 1.3218658416929492 1.9770081239995758
Ni 2.9908181407250223 5.955526682180436 13.22071972382179 0.8002594584946605 0.24021971102083792 0.42614415103322095
P 6.12984909681613 0.7420349958276603 4.481227716593243 -0.4529697558664973 0.1871642259567551 0.7803480642827141
P 0.22634872147299326 0.5330649860636365 11.711501822626058 -0.2878337133543753 -0.9611488099152866 0.29942681750861333
P 3.030467076201248 7.949168558117564 3.2959442024333208 -1.4435137311144495 -0.06688981984401383 0.15268933210833704
Ni 8.095609354021027 2.3023608916912597 11.132806412473034 0.0926908400675178 -1.3196546929742434 0.37002596788341435
