# total energy = -340862.92089449393 ev
CRYSTAL
PRIMVEC
9.38366467013724 0.00000000000000 0.00000000000000

0.00000000000000 9.38366467013724 0.00000000000000

0.00000000000000 0.00000000000000 13.73394176010817

PRIMCOORD
 96 1
Ni 5.22776147003279 9.091447785448372 7.820669714934032 0.45902161848753203 0.37839747977656124 -0.024990865617382767
Ni 7.082198779436376 2.7829133751458404 5.02025017533234 -0.5714839847550222 -0.40219998151279757 0.6303391072200176
Ni 4.131693156658932 6.567204505387234 11.56624478389305 0.3543507232400026 0.3117146337370309 0.8367431552429911
Ni 7.792504645994152 0.4933855714821734 5.566736965746343 0.2117858811601772 0.9826661151617722 0.07418815327763997
Ni 8.62226456139573 2.636575127563821 7.02528216252655 1.2461630515429958 -0.07696545891246101 -1.5376821841687582
Ni 1.8060832863327207 5.434952781774436 3.407514480532368 0.9798461292144736 -0.4665801475610803 -0.030665804514972993
Ni 7.61530352593395 7.815109893729008 6.681878515544389 -1.3771080499957058 -0.7809772132262809 -0.3368769919352715
Ni 6.399302596827755 3.301557894678112 2.2076074743776273 0.2995569153285744 -0.7994978977382876 -0.783426960318354
Ni 1.0167575811799994 1.7761963149605675 13.62998942137876 -0.37791822614729753 -0.5604295267130736 1.8107037722109653
Ni 0.03236238206225503 0.44257396668372034 9.648753002642582 -0.04753609790775039 -0.7476058368546867 0.46937082293234
Ni 7.984907302513659 0.15525366720546732 12.546806756070284 0.45930701093843473 0.97719917850993 -0.24789496817790857
Ni 7.261192179412459 8.020049125995202 9.131656787749684 0.27034841208541827 0.34253624710357783 0.7284590887229068
Ni 8.418151091603868 6.062663633569985 12.681207105699507 0.7361523436021064 -0.29074008836789283 -0.36139426035034533
Ni 6.209264623757473 5.534560380240812 7.583786612041438 0.04596926764126276 0.8203498014866324 0.060431208702863656
Ni 3.082834059289251 0.9656822954096287 12.762471516838321 -1.2916666924017495 -0.004546738830417976 -0.05311179222331498
Ni 9.39820916099847 3.998097925442183 4.294109374962787 -0.017831114644149937 -2.1375308361094025 -1.132004014299373
Ni 9.195756599819756 6.421663869286104 9.759544990803922 -0.3674417520960059 -0.9223102397815341 -0.3588846065546142
Ni 8.729426009769353 6.333232215216662 3.9120853800759563 -1.2081688316874095 1.034100005462032 -0.15458140692472733
Ni 4.5879363073922015 7.289718519434859 9.308714337743325 0.42500232411929384 0.30644695758018836 0.9297407279176504
Ni 2.6998210261661173 4.647522576846887 12.219719424887778 1.7437635587449904 -0.5448455562318875 1.2434916753584198
Ni 4.2725607278484965 8.592734169273855 5.145833633815165 -0.05121200409744083 1.0847818480876157 0.8605657115838857
Ni 2.138752959515006 0.6391889501887724 1.9361971780269993 -0.5448908076475262 -1.1742734644915456 0.05696227631765674
Ni 3.2946609012845376 2.5824970691595137 1.4802721335196372 -1.6911346196953647 1.3554195092786785 0.9548565491486717
Ni 0.8313729673258712 4.748744165604005 7.420407629761826 -1.5063193535867605 0.53029439789059 1.6785267011233673
P 5.950078427126313 5.378144077006142 12.251609808626634 -1.04564528709747 1.285045073320174 -0.6750287368179084
P 7.985160661454648 4.500912202994918 8.529546449391342 0.31618912456861675 2.4900884720047243 -2.6012166928418234
P 2.97818743299655 5.82223538223645 8.857911835676168 -0.42190414480994437 0.6660190771201303 -0.8557466929286875
P 2.694885218649084 8.486698760637958 3.4125825977185844 -0.13174075488112794 -0.5034613368581459 -0.11582485498181988
P 2.244750833492979 0.933653971802899 8.721231255578049 2.8078169160360034 -0.3467903943942415 1.9961867538105558
P 0.6754117718185325 2.5569078161196823 1.885257955391604 -1.054894830720196 -0.9065568336020193 -0.29657032189642474
P 6.884325446524415 2.662239449919501 8.16985463760297 -1.0720065506998182 -0.43499080279057345 0.20392858989928753
P 2.538131103493096 4.7421286821448625 1.0314326940619178 -0.02735962295987546 -1.9706762682442773 0.017842684608375726
Ni -0.22328335796020418 4.022448534770515 0.5216745047932034 0.08945562095967174 0.9406797434276574 0.240799751894024
Ni 6.299563627058644 3.6632512421002934 11.07158960260659 0.4579229861067145 3.3907983599076634 -1.723300148684316
Ni 1.745389744469271 4.580476294129765 10.142213643440602 -1.1600097554836797 0.46735199273009836 -1.367357141256529
Ni 8.434788328728775 6.193612671403077 1.6578786278854205 -0.27566571053327366 -0.046183697644914014 -1.1957732862365342
Ni 1.6792255262133675 2.4769589947411124 11.563237319426872 0.18034977413808295 1.075406834630619 -1.7010765613994252
Ni 1.4217753075112018 6.212201710740043 13.62025199274677 -1.5267169434065062 -0.8042379835264343 0.20638939273495424
Ni 8.755034030138146 2.7275591383721096 12.347569038342776 -1.0784669616131812 -0.8155865757700341 -0.6528766262009015
Ni 4.261666293385995 6.556281919931288 4.011945399116872 -0.19486545125575472 -1.0323429135616091 -0.78215143604004
Ni 5.794731861642483 4.7733105992154 5.081393194724431 -1.5132335642080905 1.621044804856815 0.0012819520362171472
Ni 5.258830783129556 3.31482639625432 6.801514607479124 -0.5229227880168671 -0.4033798607535118 -0.3689489327691517
Ni 0.7562980212787599 8.514765301100788 0.36469518168967047 1.0205883441288424 0.13820013735322648 -1.7726475887691922
Ni 3.5262591243414025 9.054485531057505 10.80071511349783 -0.21282152151354317 0.1365523173371584 -1.9716720564986432
Ni 2.6798056698280317 5.329555462323252 6.2758210791886855 1.7507901265744685 0.5207985425850128 -1.1016014907481158
Ni 0.9901079740538091 2.6106105279447482 8.591116425517322 -1.4314588568324444 -0.13018035237254355 1.5099322677489997
Ni 3.4755404178213123 7.397414836683902 7.418044823045498 -0.008319832719605028 0.08183641385151713 -1.8903287802334603
Ni 7.741166617618311 1.9744262271228086 10.186725055906477 -0.6231140502264881 -1.9326116001620717 -0.8301467329723962
Ni 8.24009605807589 1.83842877779891 3.264146162758602 0.9640824386223137 -0.16966915449578523 -0.9927931762934449
Ni 6.357216861630233 6.33329790086803 10.375388322130284 0.8099100942105472 -1.875222006499009 -0.34613013510242324
Ni 1.6316503472944297 7.849829452308903 9.054430167437067 0.4380653279508391 0.8128717479420323 -1.3871888312704754
Ni 4.341089629553625 4.490402498776139 2.4472099632368303 -0.4695063200689397 0.7327497456784606 0.9653903588004599
Ni 0.024817915819488546 8.959813740108162 3.8831067474255687 -0.04026681793984678 0.24829786004328203 -0.38716956954223647
Ni 6.644788643316578 5.102836744796533 0.42075600839882443 0.7112288408875493 -0.8101450930394886 1.0169497189349905
Ni 1.801138095151206 7.472108805953083 11.287954384744912 -1.3388361509987006 -1.2907950884300738 0.3888330732875884
Ni 5.0200165220867605 9.20605047975547 12.500207478257375 0.7444287246782857 -0.9768685346433886 0.9024037306655942
P 2.7769828991938144 7.789154677774416 13.099391990030522 1.386698007676986 1.3090437502276164 0.5370797962435396
P 4.370620021675499 1.0553995115129748 0.6813103433113223 2.0596973727696914 -2.1465620930737357 1.1672312129327833
P 9.596861338062359 7.692268342007545 7.2727678679162855 1.0220785555211236 0.03167521961609383 0.6358587514866663
P 8.721656335579041 7.877895992771732 11.22686579060681 -0.022534176546774098 0.9195100513285778 0.08040790893510669
P 7.627999623976814 8.135937382336204 2.334646339221465 1.2903448882665325 0.4712994074136206 1.3791873011222375
P 5.354487858849408 6.92270463425192 5.930549144608346 0.7781500281901308 -0.43395799065068486 0.8659375174187602
P 0.2181016984337668 1.757494671649829 5.039162012727454 0.5105025599756434 -0.48155116704861584 0.11272127635583168
P 7.075048427101813 2.982091037420668 -0.00324111771175565 -0.18823509042343065 -0.6344425878654298 0.15318066992245877
Ni 4.119963576057616 1.159849080851574 3.634426501547395 -1.9412093691334114 0.7962264260758675 -0.5467867391186584
Ni 3.6849462743804873 1.3430088278572443 6.791722753593144 0.10785674917467877 0.11034043482848094 0.6111041702498057
Ni 6.730799311949909 7.632306725973617 12.347898404966061 -0.3596896189544128 -1.467350942743363 -1.8213887627286371
Ni 2.2225866179887324 0.5746781336144303 5.078371654761533 -1.5574192575863695 1.6733965789856535 -0.23536006893569145
Ni 2.844404528490179 3.653642369671695 8.144557216528499 2.3367712765044013 0.35038042573834494 -0.8341725663023375
Ni 2.0878184287118513 7.764269199570664 5.466589806572307 -1.8561040547226357 -2.1429512357940257 0.28828545617981316
Ni 8.68208542246244 3.919528502742327 10.302159142886596 1.7034324632261115 1.313881795046208 1.7730851905272433
Ni 4.631157465991931 8.252548180842247 2.182103612684574 0.27717494808894844 1.5142650907963986 1.0266216948071158
Ni 7.548839030414652 0.6409493256454178 7.964696765954367 0.22533379504794096 -0.33879092112853265 -0.01207570021761146
Ni 5.9889080307489095 1.7819109666295287 11.790973226183334 -0.2615809503054334 -3.05250623279242 1.4414190533689497
Ni 6.020859408306895 0.787662919806679 2.625132687095625 1.9332278935898315 0.12330393696768442 -1.5210751717396964
Ni 2.0246475994254034 2.60145207141124 3.4516280256242453 0.5134233331668642 0.7720608845732574 1.8425983069267171
Ni 3.3773122180336514 6.623131145694309 1.2818395342046052 -1.7037579648863301 0.6569232854664493 -0.4969204504158346
Ni 0.8200131031051087 0.46982788180249024 7.439305391660219 -1.699676595728105 -0.965140447573183 -3.4596365617273
Ni 8.512109724052651 0.3985514431373091 1.1706562472344024 -0.5863405901518804 1.2248241808559033 0.9572209356157901
Ni 4.540717707723544 3.1946873399034006 -0.2345672144986702 2.0993394126413456 0.9289146324719292 -0.6790170320416951
Ni 8.27699262681539 4.924218691399693 6.090673872045928 -2.486843996925498 0.5198444062018596 0.9416670470415912
Ni 4.9797606014630444 2.4281920904330807 8.941098021300702 -1.1106324906021325 -1.3249717343117828 1.4607763748496392
Ni 6.5083689290910325 8.417391014780902 4.261463606233204 0.24843284295924953 -0.9926746484377097 0.021384122102730913
Ni 1.004117785124021 7.334365995035709 2.2693557401287476 0.5379706834889251 0.5202627246862007 0.8859414713445128
Ni 0.9401399606922027 0.29772772175418877 11.785424665375688 -0.300575843511392 -0.9605507713199716 0.10835837140144564
Ni 1.8952562498961658 3.0965248257671067 5.943885208568818 -0.32236234325886415 -1.1166930949739156 -0.4011448007754059
Ni 6.454347172673612 8.467753142050714 0.5970159469115766 -0.21081580393742402 0.7692612103409333 1.2654147006837562
Ni 4.154795738611284 4.436239987391502 10.055236457365723 0.8020692580098896 0.17438198659042226 0.9152798152973141
P 0.6092813347547608 4.695885983582234 12.001611157888872 -0.9744375566043928 -0.5585346236832058 0.4395305996424559
P 3.7873595885266984 3.7249394523987345 4.862130736994358 -0.41862264584519515 0.08677678857592797 -0.09366503105532901
P 5.822254149565411 0.09514097417339473 10.054275570122863 -0.4995972259170492 -0.06750534194082568 -0.13423112540314946
P 5.553083733926411 1.0217027723615142 5.155391834455566 1.0534956363798242 0.4546335167221654 0.8643658020562662
P 0.6962435069664699 5.730359923302461 5.36292564995077 2.413431802581934 0.8136960436155406 1.0487498941647229
P 7.297910458526818 4.5382310366360645 3.684198396321347 1.654621098150363 0.4768697024125465 -0.4808752240275137
P 3.968642602636158 2.616587922219179 11.47127459241321 -0.5833097737453568 0.5952324933248716 -0.8718379420635952
P 5.408509615266829 6.2832923528485 1.613586793168403 -0.18993484672335678 0.7037325325105042 1.0175253889328026
