# total energy = -340856.71733585506 ev
CRYSTAL
PRIMVEC
9.34282122585756 0.00000000000000 0.00000000000000

0.00000000000000 9.34282122585756 0.00000000000000

0.00000000000000 0.00000000000000 13.67416325087918

PRIMCOORD
 96 1
Ni 5.36832888770917 0.7930803088083294 1.0949281695658517 -0.5895369856019912 -1.2725968202544922 3.615395533899896
Ni 8.728054032184497 9.040832993508017 9.323181452563578 -0.4301815543273882 0.30961224268204746 0.4775294474837324
Ni 2.7185366823010044 3.7427434340511403 1.584220113695669 -1.683721100840113 -0.7461588199955149 0.28504560908627685
Ni 2.233709672325453 8.9569998607057 9.688992134427888 -0.010018303467950488 0.7361646848972806 0.3558774442971742
Ni 0.9720457821262272 2.1934981707561705 5.106520620614593 0.5383964581724341 4.3287169956504155 1.2269916208208675
Ni 6.558482826000568 3.5579050634547924 3.558222719368676 1.7130926120236947 1.089133440188092 -0.1535426812475678
Ni 8.56135007714251 8.47403207210847 12.129570549259627 -0.04609859413027544 0.7173735203327065 -0.40505159202897983
Ni 8.177958074726833 2.8851845804170106 7.8870927000507915 -0.26519437868830453 -0.19961247902243687 -0.290432584429803
Ni 5.925665531439182 4.4298331757816625 1.1904388943317943 0.21611921842820844 -1.161127928248523 -0.08872619899281493
Ni 2.0316431398114103 4.36003296011621 4.118835890422189 2.3102356921077183 -1.0814370999850988 0.23018315272044226
Ni 4.812253524813695 2.6827443350631044 2.423553926411769 -2.072843680343662 0.2519994772645853 -0.5268722595829185
Ni 1.3338184967558169 4.99029966454553 8.690450111955359 -2.2424099907129964 -0.4358066138236494 -1.7713802920209947
Ni 4.232886509173746 4.9989791452513535 11.116862007309981 3.7032686408637967 -0.31671594360636424 1.257844601645982
Ni 5.40217792817978 5.443379768774701 6.841183509407698 -0.0456134269637408 3.206568533988884 -0.3455675777307339
Ni 8.612156337721915 8.772581917054199 2.90674407414872 1.267787571791307 1.9871809507675195 -1.925408397545413
Ni 1.4999899110009975 0.10149573589635213 7.253049627374654 -0.4603747900813169 0.5122084869231567 -0.6051723781464029
Ni 6.347157557878914 3.5151149432904534 6.175347751162297 0.7809952109484098 -1.39767507551378 -0.9196733163793194
Ni 1.1553706157211296 7.120659051006809 5.456839036702375 -1.9741958513617612 -0.47123127317984653 0.20881137191288557
Ni 2.8001742521691244 0.8725550156157413 1.0843147249137364 -0.5434908419762059 -0.16920995547117954 -0.08400205404426822
Ni 4.0328193403529715 9.429802660058652 3.4403237926486274 -0.02131984452369877 0.5888741552070116 -0.7925857439994866
Ni 1.6948998426316595 2.9912162559072026 10.022600915163286 -0.22923698675708903 -1.2611158161980862 -0.116996763802734
Ni 6.445584177077889 8.794640317427126 13.19050766747572 -0.09407075113417993 0.4362691552823648 -0.27000954068876076
Ni 8.378165385862557 8.082128759764908 0.816100085461804 -0.574678837543236 -1.1236579563275229 -0.9997204995408975
Ni 9.049652616528789 6.542254345929508 10.444517105676265 -0.5301501590032418 0.6135829708076014 -0.7937064878674911
P 6.615632862036651 0.08002219611781156 3.1607277286586606 -1.7744087944346731 1.624190549574648 -1.2916947174262077
P 4.0707325079570955 5.38343622926064 13.543465430495035 1.5937954822225582 -1.9703502523634262 -2.16240317387105
P 7.549784162200748 2.6155227379927077 1.721590413654691 0.14463612278655735 1.7415038161765362 0.3540643023478354
P 7.424964073686432 0.8022278648460813 10.978219215131226 -0.83948009455818 -2.204240678732126 0.23274165747623787
P 7.315494240069499 6.473715411098593 12.7465760535664 0.007364667895187317 0.5717750336328797 0.6776949707961618
P 1.0540570648342107 5.2082396499327634 0.0718033164871197 -0.5860323148828422 -0.935456290245189 1.2199707094183443
P 4.758382818947412 2.4136337190776 9.523206578689868 -0.14544910560615598 -0.559492873831417 0.6886622684409431
P 3.318766217226318 6.631553029014825 6.253440654744314 0.25460503320823247 -1.3014314850979973 -0.07611853753113342
Ni 4.613456979648456 5.067256481094363 4.432698618981314 -0.19377376085347273 -0.3192561935297147 0.08472170581911216
Ni 9.27768284859233 1.6239784884466173 2.631414876507891 0.6472338260928272 0.16427909382846545 -0.5987505337804592
Ni 6.800050805688153 5.255962779583296 10.962275691100562 1.2696626773268327 0.3097641948788794 0.15235354603547313
Ni 3.694254193078888 6.146567191082331 8.640649138915187 -0.1021445292812499 -4.534271036968268 0.7482097889872726
Ni 2.271856410454491 5.10436616609278 10.571330952191248 0.03148495798215868 1.1136080282906886 1.0291238924036792
Ni 8.173865919130332 2.3917621751246054 12.325603487974078 -0.1658423245505273 1.650935164658344 -1.102827649845733
Ni 3.5425454657364135 1.736540795813419 11.356297020964048 -0.9682311706833647 2.0334458952723304 -0.9332361426654185
Ni 2.723600491281151 6.954599750613588 0.1106208691637123 1.711859768057858 0.6136513621516916 2.2678171179321915
Ni 1.1427951786597321 0.36236504948077286 4.2440913543949454 0.5784470463364166 -3.6723166725669723 -1.119199406335537
Ni 8.0911632676686 4.524905722242866 0.16293973246246338 0.36602224604065997 1.1016716818644188 -0.5629214398969917
Ni 0.654998085889368 0.791094959346556 11.201012796026182 0.7751999444228714 0.6170567882888147 0.6864328648897919
Ni 3.875691776832481 2.271165041700744 5.786673317755153 -0.29288156019092787 0.8597941235251837 -0.2590245024321668
Ni 7.428019176152314 8.213983992489647 4.558720194275789 0.06079553402081788 -2.1828015350217442 4.421526620683985
Ni 3.5992563891856575 8.116258084865416 8.013701938785951 0.03904657237950049 3.1587786681991146 -3.5301413526160816
Ni 9.310700377994245 5.310870538580199 4.548040415594598 -0.5426416066020332 0.4269422214544841 2.8882783039168647
Ni 0.5482358017972434 7.354005348217403 7.861932483107001 0.3833918476673591 -1.4239748897505735 0.6513589040047943
Ni 1.7112310937336823 4.935662847357527 6.476630371249526 0.5240134499778847 0.6580417153416086 -1.3702046380076531
Ni 2.3508966760855623 3.990944816646298 12.468402901214214 0.8951647897149937 -1.3036192367779356 1.5801938322787237
Ni 8.292902801447763 1.2076436991969974 4.701710201064255 -1.5691170056392718 0.1720623373183101 0.5253031153235856
Ni 2.628294374295033 8.973480596943668 12.071346088808937 -0.0491810897103411 -0.25065041943585864 1.155499526318152
Ni 3.982274678761471 2.686724376807648 13.599064558245686 1.338716851812017 0.16179129440960524 -0.16143005441544458
Ni 4.702755662733772 7.360442551884048 12.287548309490807 -0.8321635062921088 -0.8628100275333721 -0.4718565654686712
Ni 1.5407900102930645 2.7250673141776143 7.3079377664474645 0.08782091356972617 -0.3434888408248342 1.0887796563930991
Ni 5.209575673335274 7.53830183519595 4.921481379366818 -1.1573386364094196 0.29876527266521447 0.7581740992888362
P 0.787876357513234 1.2866372507230854 8.891146052629205 1.043583776582751 0.7721282474760831 -0.18773835329267025
P 1.754777982398744 6.871981184540826 9.74363455730849 -0.5257324895515204 1.8296324907946682 -0.5870800394210663
P 6.688217238359085 7.185133858704211 6.584136343892979 1.1962980483917527 0.2695469992300455 0.1269029671728524
P 4.387706395908081 7.781691664977869 9.8848606394928 1.8562644915599 0.8009971079916334 2.5286239090757614
P 4.148801120204522 8.349669781822987 1.3406490331864167 -0.9689456802518862 -0.28111104991856106 0.19821842688838767
P 4.762549717111887 0.19756329279369103 6.35110209690367 0.7217652216424989 -0.05112510081058937 -0.5300375446847775
P 1.0537487517413235 8.329218346661472 0.24489028683396916 -0.10855300391075498 3.919316639734437 1.671348181097057
P 5.931532823025035 6.357060948135289 3.1499526532033046 -2.116921644499483 -0.6761201701098742 -0.08021070532263606
Ni 3.48332132343909 7.195952845418252 3.249883466582729 -0.5457966072912472 0.25415174772089777 1.089009513015718
Ni 5.154378286887477 0.2706942241444248 11.17932530564682 1.243188542295704 -0.5965154738023534 -0.29097097343177636
Ni 1.630443720576251 8.317044650902927 2.3063388941886704 0.4453011835776459 0.08782039934909391 -0.5634539153616941
Ni 1.4849105979125166 5.749273071023743 2.3334825920300357 0.40416147611454273 0.03319191337093638 -1.553835396889853
Ni 7.005938551989798 1.001868066747312 6.7351406225323105 -0.44564622562189055 -0.5923921956625992 -0.06837823146408224
Ni 7.083502651903409 5.678314345554713 4.870176212146196 -0.7851305732730219 -0.18765942042561876 0.6364200233067748
Ni 8.328115893783874 1.096921927566522 0.3253329098966268 -1.263268600875031 -2.6461359219520166 1.7438962276681125
Ni 6.018888199343062 3.198496082537337 11.491110190816308 -1.0812134140100669 -1.5711931714420102 -0.33146122023633884
Ni 6.7021193560019965 7.640316097657613 10.962508327343377 -0.45892391656740317 0.5374942580731388 -1.2141091084312445
Ni 0.3023934815037227 2.8542785285603225 0.6380866456034576 2.3380182615376253 1.1882204135899408 -0.6230469444339787
Ni 0.9560975866850643 7.015720485573217 12.519051268118774 -1.129438567565042 -2.8694984522062 -4.374054029024319
Ni 8.513412062609056 5.351820123008212 7.021710168114125 -0.18623580060521477 -0.011101766340116363 0.4674877469770143
Ni 5.618548319639588 1.6180644827557817 4.220270897982064 0.7771992342410873 -0.45314201977830343 2.393185650738388
Ni 4.029362496584237 5.571591301310775 1.945641538255787 0.10016555117800813 -1.0126526342215332 0.8764823828141421
Ni 6.194234263806885 4.026382136686328 9.0160184609411 -0.10013135550596304 -0.30219126762762794 -0.3610255641570169
Ni 5.744695088735418 6.836067380629971 0.8626095826648813 1.1146812067502094 0.2615526681706592 -0.23566654443251672
Ni 6.228896129704198 9.195764994094311 8.924592417514862 -0.683035923393101 0.2996769858462065 0.07502787557011595
Ni 8.538133166966007 2.257645979718692 9.984572830860905 -0.011281229340774121 1.2916144990075755 0.4288155272177969
Ni 0.07537507695411241 3.914763454240181 3.0425559915655116 -1.0465922243917716 -2.100357826603531 -2.933869105172786
Ni 7.548065083137376 7.118248603189691 8.636833530820184 -1.0770749663616612 -0.816426040952194 -0.9414461892800366
Ni 7.859367878743439 6.2999202549202025 2.4153219668316823 0.2005812706936094 -1.1005095432355176 -0.8601836456541185
Ni 3.6075808426936105 1.1465323070583644 7.850720163629004 -0.06213070789247364 1.1720826274878136 1.7316932578440176
Ni 0.375503858648264 4.715116214912247 11.659807903858962 -2.6268629326550177 -1.2764005102712985 0.619734592231294
Ni 2.7339897082293483 8.539170220096628 5.402935630962603 3.8116450099873713 1.5759563971586084 0.26080010627535083
P 0.2315646212465464 7.04686010795482 3.4025012504081706 1.0870377340013277 0.15187532084747393 1.303952194637322
P 6.013011564936213 1.8830922859657806 13.28861943360711 1.2211480175558969 1.2385502721927446 -2.9599395770075927
P 2.8031265836040444 1.8255872227318275 3.862499713585309 0.09823850935862437 1.0672438392038521 -0.6350539961971837
P 1.892948962117173 1.7688482708195943 12.871243854098472 -0.022185020737471473 -0.06519340597819741 0.3813617046112077
P 8.573168745703185 4.505930452798811 9.350338230354337 -0.8735945197433858 0.8977790874093893 0.34465689299100644
P 4.481984802584575 3.790036793935831 7.483130608646944 -1.4110255286787567 -2.4221779242056805 0.4251635322875065
P 8.893216421762046 8.649891991727104 6.49479001242058 -0.5706882283266043 0.8886876666310823 -0.8801202366770455
P 8.666942640045862 3.4082517567315658 5.987136622186183 0.23379709532394577 -0.06085132695941778 -2.2310277170179833
