# total energy = -340864.40382430074 ev
CRYSTAL
PRIMVEC
9.26064167257297 0.00000000000000 0.00000000000000

0.00000000000000 9.26064167257297 0.00000000000000

0.00000000000000 0.00000000000000 13.55388516781968

PRIMCOORD
 96 1
Ni 5.674050527359482 4.777509315661333 9.079964398521629 -0.2559695176559269 -0.629529981055161 -1.9219718610600387
Ni 6.1850156752405 0.9232081545689297 3.8781463865396786 0.36073425816884325 -0.6148147863321735 0.2583521589554905
Ni 1.89068958336922 8.829632593307586 9.904230008632998 1.2235743676092026 0.03581932369145444 1.0810869157345318
Ni 3.9309385247614657 2.985973419372765 3.190855848902264 0.923649270307932 -0.0950922504201588 0.46847813591474163
Ni 9.297498716282155 6.290735157047983 1.9605148192511774 -2.677771803689743 1.3805772394912288 2.264342529120029
Ni 8.908561039650015 5.382414409535265 4.923909868915215 1.5194831446622281 1.1730002542060767 1.5801660643645818
Ni 6.17913516797458 0.04407231831376959 6.464931525354875 -0.048704407184238706 0.3383512624879528 0.19497446602979326
Ni 1.0805964588007886 1.2982215308466765 1.1210876870992328 -0.9143593603655736 0.363686913039264 -0.8709707089672937
Ni 0.5998117411239218 9.048035559228019 12.320684170846492 -0.7066936720213571 -0.31187815589808865 0.2167735641827557
Ni 2.7554390132659425 7.4587428096803094 5.2679343609977645 -0.9662388228436843 -1.588843794644238 -0.4613142711764507
Ni 0.9120833460987711 4.456952214858422 9.555922469919759 0.552170629138391 -0.02785738853190041 -0.30145824611634536
Ni 6.368598629633594 3.1491737021244535 2.937844940141715 0.805475198367645 -0.47564714285935505 1.9899677694840374
Ni 3.3748740534394486 5.741088310190979 7.269070057526478 1.2476272947933482 0.5649163588398336 0.16352190394746677
Ni 4.749884822473551 0.1766106175103972 8.433877232503525 0.39942987496682825 -0.15463102921574012 0.9654078423019568
Ni 6.015944145864254 5.707731479999095 11.030273064925924 0.8203737127460322 0.37547850635755337 2.3453243082807353
Ni 8.741554633297865 3.0639943228615567 3.8045344744041225 0.02046083895751315 -0.8809090511269281 -0.9789022772439658
Ni 1.7012076004274792 4.598389990405522 3.520932889027012 0.617309527729569 2.2982291545651448 -0.7428613801911658
Ni 3.2462344842569197 6.594104507479951 3.05198234494876 0.40240849797917794 0.2815255117481603 -0.8196262930570465
Ni 3.006411654862351 2.1926790982380036 9.472105331001455 1.4045756592883551 -0.6155822606258172 0.6323149999994658
Ni 8.003546341104121 2.581922376035142 7.353673424896554 0.19690973537929313 -0.9217934480461156 -2.4297572792148348
Ni 7.212243057862546 5.607864723533441 6.886254590899851 1.0869287192272894 -0.3004107786884374 -1.1868793261810138
Ni 2.225869236885342 0.14937507125988841 3.339297447512696 0.9087692678723059 -0.7570109322186704 0.5397090063362705
Ni -0.027172573889235937 0.6815091192340846 3.0990143642423535 0.7217199702268602 -0.9116507031851591 2.3670452448975943
Ni 4.144414829476435 7.387222876428804 11.05599820057002 -0.08607179208910339 0.003116691252110761 -0.15811050312390834
P 8.328983799905679 4.037296990823041 8.697351739940867 -1.584567021645755 0.7513467919543577 2.6428335970516614
P 5.467278926991797 4.4415425076293005 6.838748426768438 -1.2863928455973201 -0.02054825646499687 -1.12054075085478
P 7.6703114222743665 1.5803654912731475 5.312228008640125 0.276900097161007 -0.17083592111037674 0.07219657676890792
P 6.178042412293667 3.956405288511516 12.653486617724566 -0.866800636750004 0.025286799591246776 -0.7448750681870849
P 3.9347446483619275 2.2160436963985046 1.1958812570727908 0.5701413546841987 -1.1220134787455645 1.5011732906094468
P 3.4898356553278598 4.378097853646901 10.138603876649192 -0.9818495327977478 0.8612951335507425 -1.9562163840652051
P 7.5771493701559995 0.6188590282806872 12.787290846595605 0.24154845713459044 -0.10403968942143373 -0.30604175172196973
P 6.33175053764761 8.771160903737469 9.957131422422878 -0.5685357007599756 -0.11794498664861622 0.9513066270138842
Ni 5.94688754321548 7.090002591862302 8.17756027477615 -1.492283444318985 0.9414598161267914 1.4128371279661989
Ni 5.408816498063045 5.122625637360657 3.014357285152367 -1.5896855738192428 2.3522014950165424 2.1320559290377608
Ni 5.728530880501864 7.375721159855145 1.3288455457721466 -0.6693959640121633 -0.8938221596441703 -0.7048566188126184
Ni 1.694743672755648 2.481129555433123 2.945299756439457 -0.04364601882472484 -0.8734798485423925 0.6452743883736113
Ni 3.853038009610401 0.15425913351507994 5.26664620578408 1.0889547485183826 1.1536943547886132 -1.144248635994681
Ni 1.7492147652566656 5.5405028182542155 0.9751149754763511 1.6784624235443353 -1.8753014535866928 -0.09975417467220239
Ni 0.661652452022136 6.969743903113881 13.005399324120674 0.09281579568115628 -1.8540014065573358 -0.48868880653466157
Ni 0.4491994481778492 8.437555559253168 1.2404675409822432 -0.9852238485866196 -0.4010352717807351 -0.5442341479001337
Ni 0.10325892939716019 2.005160371265357 12.090133095585216 2.0690014237794365 1.6536808457242809 0.6211515271834785
Ni 7.200639474233887 3.8295993263189905 5.1944724712523 -1.6840301474400996 0.47468709293893085 1.2463425145436535
Ni 3.5925083861267 1.6538116379282937 7.0793028468307355 0.8278157708463744 0.25080931361122616 1.6958430809146277
Ni 3.193698865800906 6.820647577159038 -0.1641087516694632 0.4124635682223348 1.1126232957799163 -0.10804263993323972
Ni 1.8864667309073935 6.295809988515265 10.664494400216011 1.032018440342655 -0.023384183251895212 1.1782162511893772
Ni 0.1858175471541428 8.71050370280553 8.418019310232403 -1.6596388630799288 0.8450555317634286 -1.431790272029934
Ni 3.8255061228362552 4.685569668202969 4.995121422809312 -0.3199843299449908 -0.6593084978691742 0.3214483160850271
Ni 0.9897032638165165 3.4998741905660613 5.420659006238886 1.5648415181923694 -3.4306666568575106 0.6646530500105393
Ni 0.09109044664531778 3.985196622511119 1.7335550207107253 -0.46021898122974286 -1.0814085607400086 -0.8391893027906385
Ni 7.7783368037814 7.858496915425197 11.661070912052633 -0.9177599014066904 -0.0832705751948824 -0.5670071799305912
Ni 0.3717026969902403 4.676309026839314 7.208661041783084 -0.6082505028510944 1.4391690809925084 -0.08762885216357812
Ni 2.44397586228214 3.562985461459369 7.631243554553517 -0.9426175838803185 0.4653647870967405 -0.10510309768894156
Ni 5.411928073561232 0.15059562379161812 13.276463853219669 0.3439238714797238 -1.1799016093116002 -0.1252176090506295
Ni 7.3281862877355035 1.2263033900165334 9.043043147468873 -2.0996484592413323 -0.44749562012580346 -2.159622268691803
Ni 4.9846050384767455 2.971674989107282 10.452010836255226 2.2123111144450864 -0.8306133881961696 0.24084885996440455
Ni 3.803308365487575 4.807810134203212 12.184725916794267 0.47720240316161683 0.9299070782921856 -1.0776719765157117
P 4.493346535417586 7.626832711072008 6.631156333575934 0.006957148044123503 1.241081009034398 -0.9434922731757881
P 3.064716652887922 2.3311534685487336 5.2199123791423965 -0.48010183619659896 0.7924031956750353 -2.215065794372088
P 3.5147930838029096 7.6710615342248225 8.88176537386428 -0.8198939448961364 -1.3510722880535764 0.44381148640599694
P 7.708048535831261 7.874369654722501 7.262212552596691 0.9913965530562344 0.3961157229919307 -1.022057215364885
P 7.688036289844403 5.407455183782588 3.4029328707071866 -2.2783087614921342 -1.2256788155467149 -3.0696351791632233
P 5.787845288436073 7.7600377764468185 3.3084900718882255 -0.3080248435902695 0.7265395031026907 2.82197495270394
P 1.7812936269403659 5.469353310657256 5.6714603259700676 0.9299546437006693 0.9823758376148629 0.26045660689300304
P 0.11659980934564132 7.447889338002105 10.218354667944714 0.3510424848023761 0.14710849558644987 1.0464464428425269
Ni 7.768548305860017 2.884763869909382 10.610441888704631 -0.508440278129976 2.046498100470598 -0.04095484514580689
Ni 8.536792592106092 0.6285641804297973 10.631924724540038 -0.1925280613718297 -2.5870373160176476 0.5329189799976305
Ni 4.514636749912627 0.197970286815667 2.4581863164546687 -0.9035195894375923 -0.13791448779200766 -0.9094909765296788
Ni 6.112384465025356 1.8183824956018033 1.1874707425863196 -0.5899851288830033 -0.6052361415048028 -1.348344090489136
Ni 2.4703131263203746 8.864230349442199 7.215437979133007 -0.8797026895236527 -0.5838034255523236 0.6509840371638789
Ni 6.503748429694771 4.68149498600296 1.2618540661474675 1.7362273982689453 0.003990866326947965 -3.1464155186480713
Ni 7.616683048137442 6.569304509908084 0.03607297630384457 -0.5724604897356786 -0.21998872868594369 0.44635662142535387
Ni 5.26982353183595 2.501095498213163 5.62330313875079 0.43889425161003764 -0.09170713599800981 -0.0028927481667627604
Ni 4.527814642573109 0.5697489210650892 11.154806465727807 -0.36364988915374147 -0.1862324581711051 -1.3208227451404158
Ni 2.2649028402331473 3.0054763300846226 0.29891035161536805 -1.0868783256053283 1.193813591407002 -0.8437802645954307
Ni 0.8125166344133 1.9144709103910855 9.380535183133501 -2.36783585911969 0.6088066324648806 1.0280635694599651
Ni 2.6658608293553097 9.267216419023002 13.186682861263172 1.8535128969566919 0.7698993581455644 0.05807247866269998
Ni 5.561394825170622 6.375145903077697 5.123084039108158 0.30539871882133207 0.7269783904123222 -0.2579505526416977
Ni 0.6653817122992797 0.5744394359157804 5.536003072615617 -0.077243395164196 1.0435490666900737 0.06558884164440316
Ni 4.077265918948575 4.560162062856355 0.8302164982516534 0.8263512704857059 -0.10990848949738491 2.0575921535012305
Ni 7.579881259358278 8.527235610218801 2.3121571149194686 -0.6906841839669783 -0.1930271124954353 -0.4185249439250663
Ni 1.3507664099440537 6.603189196657696 8.281193334084403 0.8019952102388446 0.5026151868077666 0.2579227847275558
Ni 4.332044684145446 2.491658904663599 12.703067165521437 0.7814731790260928 -0.28516362272137985 -0.24442269335859196
Ni 1.8922731530424048 3.5067363258165294 11.40789794206822 0.20301019185007618 -0.15865403433220415 0.7810114088983259
Ni 0.3468971430335545 7.485367153600817 6.0939622711606365 0.5225461214037388 -0.9368477712760768 0.7463999894720436
Ni 7.920987723347139 2.834571193718373 13.441319938647178 -1.3406593202503685 1.0761177446547143 1.4557187578210737
Ni 8.633788549749013 5.42251298663989 11.39622860788588 0.28450773430493587 -0.10529335932287671 0.19129187497188346
Ni 7.818500205375572 8.513520600359229 4.844633222457512 -0.3473331542715889 -0.20442121326498988 -0.2265285866869905
Ni 8.204122572399521 6.268917085995213 8.853058311701087 0.021008226820550917 -0.3697819701934083 1.1983837272761877
P 2.4739247764521997 8.162551553318075 1.5167745191572026 1.7970756399045698 -0.7175424418104029 0.17774370397380357
P 1.2583081665693243 1.5852458492717936 7.432869503774395 0.7586124723778355 -0.420365853788547 -1.350153632894049
P 0.5613050682697088 4.260571054100758 13.073697480241764 -0.8651088508698778 0.7519255472759631 -0.36547974327362864
P 1.9950570115376096 1.2846269093248313 11.370109894983827 1.4236378181261289 -0.3936055549755673 -0.2742804001499728
P 5.644712815519424 2.3900048444147597 8.231111785589757 -0.8238729841485424 0.06057930424495373 0.09117440342299137
P 0.6187432702636413 7.954131558787659 3.9300569117036455 -0.46867148287247024 -0.3392308368794286 -0.051768390821543095
P 8.040755598103287 1.8528506027573266 2.0494827268959455 -0.526885372209041 1.5698618542250964 -1.2763051223440147
P 5.297975881581461 6.961881618596138 12.907662515168662 0.7745245156224015 -0.034305458150089306 -1.8946117238795306
