# total energy = -340877.94374808745 ev
CRYSTAL
PRIMVEC
9.16686539406350 0.00000000000000 0.00000000000000

0.00000000000000 9.16686539406350 0.00000000000000

0.00000000000000 0.00000000000000 13.41663410516429

PRIMCOORD
 96 1
Ni 3.653536683597171 4.955204061477855 0.5246976218428806 0.31048204688151043 0.6042156706600884 -0.05706794865758559
Ni 8.806873372563727 5.985733896291046 1.4421670062815617 1.1167861689083542 0.469692725048133 -1.4808584903114947
Ni 0.18929485261307163 7.675443850937909 3.2606851692729006 1.4822389155987892 0.6032324808112126 -0.7047946552264314
Ni 7.480079616782307 2.409354718272314 10.044738450981836 2.698157309324631 0.9024476965296522 0.21965011439960236
Ni 7.45740079192772 2.9519139772328837 2.124885802938844 1.025664473100169 0.3612600487653262 -0.8059814485801021
Ni 8.005689341726654 2.9608241703447105 7.655853343016835 3.2399892755411743 -0.5511748408840249 0.12494095835047514
Ni 7.5321290781906916 6.46142087258621 8.16347217804218 0.022745264116315663 1.4467072983510827 -0.3378244434502053
Ni 2.4873097411354546 7.330458040680216 4.078884735556652 0.6450617581421729 0.7239835694500564 0.9589235201291937
Ni 6.301202400149478 6.098431338798036 2.008846121328385 0.7076436946394523 0.552962528912067 1.1384806231626523
Ni 8.327950492803053 7.263824096513686 10.384729236315007 0.7808522576126423 0.417658482159713 -0.039437122949699824
Ni 2.1477965494865683 6.528375657039688 6.523154210541235 -0.04028584410324029 0.33755627739048316 0.3144412886395746
Ni 5.099673859258087 3.149478259070419 1.606816741424319 0.8332454265023779 0.9293869441226575 0.21676405110105895
Ni 4.05441287184129 2.8516284703981296 3.9178586622833445 -0.8364040267360175 -1.9496793542776358 0.23339857433394645
Ni 6.489746486491089 1.2501495946620986 8.38235033848497 -1.0979278985512704 -0.7127990135881466 -2.614756122089155
Ni 2.246505355482605 1.8743947906797527 10.637887806388443 -0.8050679356268973 0.5504482471306456 -0.6830055843757978
Ni 9.046586901240952 7.598772189222562 6.114376184372841 -0.7841921206191528 0.014896971716490473 -0.568798210392743
Ni 3.859305309915246 7.6469440665915425 11.261761744359772 -0.7187943119396331 0.2394326963431683 0.22949975350017246
Ni 2.957734936724664 8.920460001008832 6.872402613182673 -1.2462728376479828 -0.0870675803434694 0.8837089824695684
Ni 5.499560026045336 8.571944947594705 4.231109701415696 -0.3071067026513743 0.7987841595007147 -1.235540281721827
Ni 6.033676602026491 6.998910855012993 11.476441480476206 1.1883101450902698 0.42660900648478145 1.5854707644069468
Ni 5.517233742423527 8.744786193606526 1.6517756324911432 1.7269624280272513 0.3322659755258213 1.4465435190797087
Ni -0.16856398664352887 0.4762965728403664 9.670575425029046 1.3203226655755456 0.33593031175128596 -0.28736525835838894
Ni 0.46194492846189367 5.771201746706606 4.641927355122548 -0.34370378504911775 -1.4941179264245623 0.3999708350719628
Ni 3.9822788084699297 3.2173130625966704 9.032883354242115 -0.6224874723860828 0.6352231747851963 -1.415128237993221
P 1.7720650728738692 2.9656551083796208 4.5013479749932 -0.8407761876617842 0.2620013256723036 -0.019998297498797817
P 7.964905957822832 5.170322890444144 3.1320062137297393 -0.67339222965575 -1.051757056422163 1.8972378486484682
P 8.557791307507607 8.658012646284972 12.029474799775842 -1.147781331738288 0.25754997476916935 0.3771597507147182
P 7.863199586860162 8.675805531912602 7.924856839832853 0.6921715671457821 0.4558311365746924 0.038875336908958856
P 5.730198358034589 6.523563052735461 9.508932421718264 -0.753417044219825 -0.3077708185979344 -1.6037484796702122
P 3.3791815707948514 0.6528962336421535 12.007216734040426 1.0885109761127447 -0.23816257138149305 -0.31365016019684694
P 7.492784892145466 8.577720072759778 3.0184608361786704 -1.9962219779238652 1.640246060375614 0.08972635812255515
P 4.224861565999008 1.2432744456560598 8.051241328981067 -0.0993422839457644 0.486080422377537 -1.611788319255553
Ni 2.840866570487343 4.993979901871914 4.938743121384329 -0.3302268336086055 -1.7084772247388706 -0.7923864835044869
Ni 2.8090117134260293 3.093184539008972 1.7495695853261095 -1.4123702156321096 -0.025913120321336015 0.35048738362985443
Ni 8.566536497043288 3.151082460505162 4.851522231034117 0.4612831608281992 0.9672009296466375 0.4055434440637338
Ni 8.90839640621957 1.6091332082960872 12.330302902997548 0.39580230551657 -1.4146003905142088 0.6467468591540797
Ni 5.970901908168684 4.165826953200487 3.8295899992246114 2.3141257711907435 -0.1528878212723883 -0.33304887643843284
Ni 6.736399332231743 1.7555647152593754 3.9870749124165425 -1.0735795516138928 -0.8337213376975319 -0.32228752415687073
Ni 5.095823775814704 1.3078091776594118 5.9586623095648665 1.1259598649878222 -1.3072642897296904 0.14437952669106102
Ni 2.544235974905457 8.61380085474347 9.475631949992614 -0.02432083613355166 0.7424034667181407 0.5159160176817309
Ni 7.66645115603801 0.668535822601091 5.885408055248789 -0.8672914603434935 -0.3912064586157714 -0.40659965324239
Ni 7.322308697391725 5.083751014160101 10.418472467636647 -0.9034239443999924 -0.7284261786024422 1.165724803590586
Ni 4.71952395355084 8.404447984076914 8.539218321639426 1.443676224834243 -1.3508167203993446 -0.025605873493562355
Ni 0.15166762044628754 5.275576838293929 9.252218024578907 -1.0773050800945962 -0.15635315411316944 -0.20591605264296148
Ni 0.9628600348630845 4.298517329017038 0.14805404212871345 -0.16148379047151543 -0.19992769627001053 0.12898556073349396
Ni 3.452021482797499 6.281374470416062 8.914172448071175 -0.21530546427766145 0.7152634159682392 -0.24755841077409624
Ni 5.114496680515107 6.113070822748228 7.1813608092756525 -0.3934348337256579 -0.33273931561781406 -0.04492514264746456
Ni 6.897855331489562 2.7774501960556393 12.291501395380534 0.20659225277437968 0.23076627891742194 0.8841100745627289
Ni 6.350300130917938 7.887189273458567 6.388424207186225 0.5222913250804553 0.5176826226638503 0.44708450073031386
Ni 7.423895899104956 7.209235413405737 0.03139376373464213 -0.044736680785742305 0.6589613989424007 -0.7497977022996829
Ni 6.209423744351529 4.813786829856304 13.564485651608022 0.44701225273148176 0.16802390558287839 -1.428052659364373
Ni 0.5278189394916223 3.9284509751853154 2.6142983267096644 0.17268840093808324 -1.2371973577092756 0.8524754783765834
Ni 0.4506797676438653 0.8640063923946539 6.874978502343602 1.4091424527234313 -0.3013042370369843 0.3016603348248224
Ni 4.115959205743351 6.858978655576747 2.0425884359634896 -1.3842909408973902 -0.12329699498914895 1.1945155025700331
Ni 3.016567878485674 0.4921534165078947 4.661850620255515 0.477232485068604 0.44872692142974335 0.21600043346215703
Ni 4.89925868229938 6.1000905414248265 4.337987101117441 0.1971961562714604 1.5033160479840626 0.9236613544927899
P 3.9629733900609723 0.7437536194732938 2.8857035422451265 0.7970342666891436 0.41011203727102274 -1.6888324539247495
P 0.4927584296204261 2.2891771136467534 1.08489484640681 -0.0606590084429536 -0.12965379044511216 0.1332808456747382
P 1.4787253819495405 6.788567962889567 10.132564354444579 0.5381236641270216 0.7911392413609472 0.4266380599505039
P 4.207288685139573 7.614456695821673 5.755534657151644 -0.21140432945104234 0.12383204155701252 -0.01108068329419382
P 0.6859886175245544 2.999710013122867 9.280473970307193 -0.6133685408039501 -0.8642403322219955 -0.28417940443123957
P 6.7822153252079875 2.6559158953595534 6.046971306831102 -0.6741296220424068 0.3367615494033297 -1.0693547148992681
P 5.10743819420224 7.221500679232511 0.16693778473196713 1.2106355480603472 -1.6870596782950429 -1.3794690940287146
P 5.589789481600592 2.9976016340943485 10.358030741008223 -0.4932651130514344 1.637141453308361 1.2444771792001406
Ni 5.388695956606623 0.24137181461748136 12.746567508090251 2.312389248115611 -1.5302763786229903 -3.092737826618958
Ni 2.137529660304217 2.1537000107664204 12.8519681257855 -0.5945352101475309 1.290266212509797 1.6043588595607015
Ni 1.9327052211163043 5.80167240710137 2.4512995440148906 0.4115184307002461 -0.25223344765226235 -0.7019443302618298
Ni 4.581718466873795 1.082267622799969 10.165542152510213 -0.21383890703446395 -0.37371138715480157 1.2537863724162084
Ni 4.08928362759992 1.2301291607565132 0.7035184141168855 -1.6342613035470888 1.8381482415751633 1.9661279867519623
Ni 2.113384136995008 1.5808075943912065 8.38746269928586 -0.5448815516761455 0.35914943018022666 -0.7970170402979629
Ni 8.25858482276479 0.41723629281888946 1.2031272422069288 0.18584756402786057 -0.03438104858303111 -0.2938665498120165
Ni 1.2614706733587095 3.5526553305152264 6.79300289234173 -0.2542358227942718 0.7301282488952135 -0.06483705108004317
Ni 1.6121124395320374 8.706202857384634 11.876055391362817 -1.5632165809944367 -0.404544056264942 -0.8123451860146009
Ni 6.754238052186079 9.26825087206099 10.287003118283568 0.2154741286450418 -1.582281825156004 1.9870066299731843
Ni 3.234033424979357 8.249161285193848 0.2700457694053345 -0.8386573415465686 -0.5357708476241289 -0.05323366251315993
Ni 1.9344560923965088 0.7164996121268212 1.6378621642759885 -0.671107033165999 -0.32648022208197963 0.8472106304332183
Ni 1.8399640444575096 6.390634338420033 12.69586557588705 -0.49137560933820534 1.0481755097184915 0.25134307462750904
Ni 4.944451328432409 3.7845586899215906 6.08334359513265 0.3850702638110465 1.088207843050029 0.40409205632918793
Ni 9.276501050868236 3.5753708228311787 11.333098290446431 1.11662573207109 0.5193499830639442 -0.9329106410051998
Ni 0.9337277368081621 7.83095972145451 8.102144015535245 -0.9879862418231049 -0.033667567455774275 1.368851209303552
Ni 7.108097388094233 5.16732532547751 6.035110299765883 0.4130580072732241 -0.3132539531996928 -0.8099242352779342
Ni 3.1072465104426574 2.3219211566461815 6.170484733754392 -1.139882388606185 0.17275756361312183 0.8408026700243455
Ni 7.384377542618244 6.9438454949072925 4.389332547267609 -0.741830110713174 -0.9375003172584112 0.04367224407696995
Ni 4.605057306032962 3.0537853517716984 12.49940590132315 -1.0999372156718152 0.18877707896982973 -0.48267139669598813
Ni 2.143891464851138 4.622144343029304 9.866472254060985 1.543503933056858 -1.3398630496013184 1.584592989787684
Ni -0.010974571186706443 1.3385548440144184 3.4828377340156336 0.4945663483613612 -0.7873095832022119 -0.38471365180257616
Ni 4.4867222413410195 5.107419860471557 10.76859263917205 0.3314864170473194 -1.0932698309539686 0.35893731416942054
Ni 6.483293013290755 4.383915846537384 8.308626740663414 -2.404372777703459 -0.2774503132375222 0.8526708822168412
P 1.037918328278347 9.016611251574622 4.8852920462652465 -1.1999826963321916 -0.18638338192667256 0.3216735447219557
P 3.2983298184838334 4.780034431669324 7.166508654049541 -0.25371774550727266 -0.7624472727428934 0.8426764900082907
P 8.225263267248856 5.069789878245171 12.420247269040686 -1.0514654933236731 0.7599360762852654 1.5889656649340826
P 8.945943886657883 5.0429126290642285 7.202169593600598 -0.2586532351356771 0.9197054551688354 -1.8787999536582545
P 2.6655686045640326 4.551751984072807 12.069563335286789 0.3288649202640723 -1.7233577413951289 -0.6878801388592798
P 6.353783539747664 1.5619055180572703 0.8125491104873219 0.6005940147471011 0.5997738328386509 -0.8253570248932366
P 1.3411307331753475 7.755168078811937 1.3519678013819332 0.20398901082357773 -1.0762876945736755 -0.38953138490619366
P 4.037353335440972 4.768108339860182 2.9169506361343065 -0.943220250461324 0.35797546447678347 -1.276639622865298
