# total energy = -340895.66567843803 ev
CRYSTAL
PRIMVEC
9.06446846736041 0.00000000000000 0.00000000000000

0.00000000000000 9.06446846736041 0.00000000000000

0.00000000000000 0.00000000000000 13.26676585250262

PRIMCOORD
 96 1
Ni 6.48587194754425 1.854046385602082 11.395581481401797 -0.5635562452675132 -0.43495583578757996 -0.178706324997389
Ni 4.585116355796634 0.43039728010110945 5.889700948298686 0.14546196112196239 -0.6886900363550849 0.5371800692668296
Ni 2.6351407001308633 1.5427544086081113 4.789448511017524 1.0383508103185857 0.49640905799705476 0.05486554168962809
Ni 3.5491291872386617 4.551967594516949 5.207922389262658 -0.3153571155856246 0.29767332515261635 -0.9229658710876619
Ni 5.224533027776474 4.53558809994971 2.6386930653333542 -0.15503212130890073 -0.6318347179289376 -0.3221018905086259
Ni 7.171381441812085 6.2669287755591485 2.566880720142712 0.983973778229602 -1.1566837764342401 0.449834038450993
Ni 5.040533381832714 4.596936422711785 11.29934401940934 -0.9371046244818894 0.0287575317486666 0.7277507498019724
Ni 5.658557908168567 7.691437192673277 12.616800157171756 -0.37316014263702185 0.9750569353559465 -0.5744045008359269
Ni 1.7175082966887927 6.565249498139329 0.5467315751898729 0.13522408544403808 0.11862864297920214 -0.930667610607294
Ni 2.832039084740468 1.6750865841405491 0.3234374583280284 -0.05634958243432231 -0.44536931781142014 -0.08082854141229305
Ni 0.6972325713701095 0.21210946918806725 4.730689906903959 -1.1473735547769077 -0.46733168101512423 -0.011712403340921764
Ni 8.506641102142025 2.4158440138745263 1.2831697856868336 0.6250722023941235 -0.4613458957453345 0.893467604518229
Ni 6.802811088409493 1.030330940218206 4.79283137065919 0.45494204910151975 -1.47127547460875 -0.10574355948641788
Ni 0.6936647965711804 7.585482620456094 2.679276503671174 0.35088693306111823 -0.3063207164149692 -0.2744043273223468
Ni 7.6881739840157195 3.9212074899481286 3.571107803994159 0.20985009759004505 0.006156763630015203 0.40891878829386996
Ni 7.632010537231763 3.6711913199682877 12.463596136486844 0.2714059068156552 0.9313877766027702 0.018806591183541804
Ni 7.949158160872351 8.901634381202337 6.836205496785344 0.26036687539267417 0.1668522538722804 0.1829008226947108
Ni 7.092602146137558 0.611883348931701 0.3247545256000924 -1.6120122623409012 -0.6872049671691262 0.7020152927090813
Ni 1.7244970018970611 6.556937380531051 9.415967733103763 0.5168346728412582 0.40976648100614593 -0.5929570670271337
Ni 0.09074258119187113 4.889809399727544 1.3295952739685302 -0.38910612444331694 0.20543242813832363 0.47183008310610997
Ni 6.468894198056459 1.938418458336922 6.997369933700998 -0.3043404527601468 0.3419232961099273 0.31654213703266126
Ni 3.2663630925928375 4.115676597001551 0.33726530501442703 0.7182294405750985 0.7278978169027981 -0.24662072945117525
Ni 6.1226405660841605 5.734046801780057 4.798071539895118 -0.9797137174016675 0.05707514774643719 -0.6173529793729949
Ni 5.0382219423669445 2.7240268781753243 9.51993899961463 0.5923870534562765 -0.07305995321046772 -0.7328181370225508
P 0.1782228601730344 5.54526111647188 12.378834291606793 -0.1603566188456077 -0.14437052782999654 0.5291780248979595
P 3.993977043011654 5.96607906626936 12.70034101814577 -0.19671844530409346 0.5468268483279743 -0.5774939383945279
P 2.3653639888358153 8.492999077059737 1.407312213935652 1.0480330706033565 -0.143357770294766 0.4072110615741439
P 6.3772161637160885 7.830640235323571 5.850033927725531 -0.4161677565467994 -0.4407174208617055 -0.4095695345039914
P 4.754141499789603 1.210024963627689 12.55767081629682 -0.2799100876319244 -0.7152492749008521 0.16470024052628407
P 4.154490651089495 6.096562090229183 8.262117093622223 -1.1820111994554354 0.5341286840350156 -0.326926822701095
P 4.739049159748401 0.9976535313001678 3.7598545120878155 -0.320592395842635 -0.12061970526730195 -0.0990967435938616
P 0.13290051770696218 5.653436483469902 3.585927303533716 0.6723229078509712 -0.21692680193116834 0.14479347430002806
Ni 1.4875517954844355 1.1864573455453316 2.5052160474302236 -0.4295827444011247 0.018827931339780477 0.030939884111966073
Ni 1.717055073264132 6.783349674554562 4.951262870324141 0.9119170694726683 -0.8916385217292901 -0.8146388671447843
Ni 6.0531523506151785 5.737500364275973 9.17757674396647 0.871927159343292 -1.6020916607930795 1.0589417470960603
Ni 8.531396165596993 2.3347895366082034 10.106370227464236 0.37519054280348935 0.14768133737078437 0.5522205085397199
Ni 2.3056563348710117 5.43908899701086 7.116545033215535 0.1158636786395553 0.04776261209625968 0.04983363569267547
Ni 0.6636559671775447 0.0002583373520566116 9.122148425577313 -0.32126576776057575 -0.16111612271945155 0.3153000370954441
Ni 1.3891841833960725 1.1419326763066622 11.324405461899378 -0.10014498235271785 1.087524443829759 0.1808745362933014
Ni 4.351588454005951 6.679389285405884 1.4574205957661415 -1.0106726276770273 0.8242223970681611 0.30711030219580016
Ni 5.7076510695278175 7.6798618664074425 8.086969807608936 -0.20422066721840956 1.930946553754823 -0.43938353254163043
Ni 5.306240146774309 2.9063586619163324 4.826330020422714 -0.8736737097207533 0.45021276194665044 -0.11734926204614629
Ni 0.8302563658485794 7.548998134770906 7.056472987617304 -0.22316841196550596 0.09146828051432634 0.5950404319187236
Ni 5.059686603758876 4.391635275808971 7.188212346910285 0.5320278356419288 -0.15789813000278613 -0.26729239886791384
Ni 8.202029638427554 7.213594671584985 9.36304664669983 0.03455434093610178 -0.3843660386551703 -0.9431359182776338
Ni 4.5050408411275775 0.20860151988119327 10.566740079085008 0.7605816802890644 0.2895373263090433 -0.2532698593365767
Ni 8.363422499949237 7.2440694146591715 4.885287136396279 -1.0574289099959597 -0.09186603017337727 0.057181591417314416
Ni 7.180545619458725 5.869678443844025 6.911693483949984 0.6965054186344456 0.6413334014479923 0.7656593519222877
Ni 2.36754852574268 5.3044816398866255 2.3770725627885003 0.02323351660664386 -0.21684761195380073 1.9320230746484532
Ni 2.249773886610345 5.325484013385403 11.461557215329659 -0.2239579977463369 -0.639131508700667 0.16569859988381141
Ni 1.0583764057362115 3.29053803006424 3.8491395267459776 0.097156074927723 0.6962295392652397 -0.06178386607601618
Ni 3.719233002982324 2.5132779857080885 2.5915696129776804 0.1642315284199817 0.7332860777979049 0.10930376603385046
Ni 1.1594633583725389 3.3382171343385485 8.12239193758672 -0.7568268412323224 0.335918484676744 0.1758878817119874
Ni 3.6145383918856973 2.427455598014334 7.152790216932502 0.24251519192323395 0.7217040293872603 -0.1994499853026436
Ni 4.258877070257353 6.996545973514965 6.229715506607105 -0.41439806624088626 -0.5371595004415394 -1.2297714975588498
Ni 0.9254731686887012 7.471641960649813 11.585959793824232 0.2841989448152654 -0.41337142474858485 -0.08648291148459299
P 0.21397131101657352 5.68634050410027 8.01437338589363 -0.5336849116293777 -0.38043379348029965 -0.1809275010184239
P 8.558254185742388 1.54974311381638 8.069682959745526 -0.07362713856784739 0.596706763877553 -0.4485487439806662
P 1.6059065606003364 3.4121922617116716 10.368879954368273 0.2884795744684903 -1.16894022520409 0.2372989378296171
P 4.094574514349348 6.127916086747211 3.598000269119828 -0.4814187552358096 -0.049126325213005716 1.7208056643972365
P 6.71126902109652 3.9053084122110304 10.307082940415784 2.204457422728623 -0.42399907966576006 -0.5370813389054363
P 6.321206812896516 7.688155855078734 10.496943671687255 -0.027829620617758524 0.615753753206675 -1.0130642678376554
P 2.4384145404226305 8.601682054293379 5.918423529613135 0.6161103652151454 -0.038248501958237355 -0.4109018801621697
P 7.065218386819558 4.024034820535153 1.4439281344139918 -0.8964467417512109 0.14683030222439875 -0.021633261999059517
Ni 5.379662341569346 2.9172904109191493 0.47282443133044894 -0.051701542139349674 0.14513157436573715 -0.3730534418558285
Ni 1.5791119917343948 1.1108778072489094 7.20275266082025 -0.8841545546474192 0.295167270901311 -1.102863902400307
Ni 6.933810787073427 0.44978617820809513 9.225748955326809 -0.41108571403820166 0.3941346880061599 0.04637858726453948
Ni 2.8793102879325807 1.6631396146664925 9.406773642711096 -0.7924533321866803 -0.4314773903206763 -0.6957801104326469
Ni 6.297793290778543 1.979634596575568 2.5609897220689724 0.6814948041582264 0.3323045420732406 -0.29303865459408246
Ni 4.177224338070477 6.8469278565659675 10.515742472895333 -0.4257008928482153 -0.07382357084936964 -0.3751987703336055
Ni 8.090310064248685 7.3156333934130995 0.4014109227535083 0.9543017050864662 -0.3692165846082416 -0.400581214962452
Ni 7.647692067725024 3.7413049837633015 8.173163838510913 -0.07840321980025207 0.3069143841349101 -0.10377538001645353
Ni 3.2362599927268723 8.162689845167002 12.593915093566938 -0.09185857397420955 0.5631212146126238 -0.13673255166876452
Ni -0.08089222328029501 4.788278288135049 10.015014888202224 -0.016644293424900366 0.2846010653496905 0.7771028178725391
Ni 8.663483600480115 2.3627443574412763 5.906709516979354 0.44612830746463167 0.30114508575130067 -0.26084047259498305
Ni 3.40897437539658 2.8553982200474812 11.465855586289141 -0.05494961676300214 -0.2523684305682299 0.3799360279082747
Ni 0.9847366636973373 3.284383255957348 12.869307243093534 0.6235395677996809 0.12818491920906955 -1.2054475761015047
Ni 3.108169988449259 8.491376537199452 8.044834532265078 0.9508042334561688 -0.48937554818904105 0.8140405714391528
Ni 5.523143813348438 7.927457823299595 3.6090906463212757 -0.17656896693941201 0.23355078364109455 0.5998532799263346
Ni 3.018585846330821 8.308682174718715 3.4306130745835817 0.6212888240922912 -0.08987008278927104 0.773851657925093
Ni 3.206709825438993 4.351579389537457 9.153099959694243 0.7200621229084632 -0.25947650236792086 0.4329156654290996
Ni 7.2819316995553285 5.973294383189959 11.389743963692167 0.4379041197826265 -0.15380904753507704 0.4118652725167036
Ni 0.9339303177928703 0.1011567490437252 0.13272647991189246 -2.1476262726721917 -0.08791990104143567 -0.1493957489587298
Ni 4.529052618166102 0.33877000678430064 1.5035088858198902 0.4145752152486989 -0.7052805937239144 -0.14343336072770782
Ni 6.12320256313074 5.537094030359494 0.21231613906971253 -0.06852298457206263 -0.6959680580737369 0.5506853028421161
Ni 8.187771229487728 8.788663910371406 11.25734199175233 -0.908047816325249 0.7371447894223627 0.6032983010521417
Ni 0.17921995170728797 4.88807808624534 5.877747633696685 -0.2884798315788064 -0.29107253200664707 -0.600841611981533
Ni 7.786586918446549 8.866328276421267 2.80025633886271 -0.20671797971896658 0.03884448367102342 -0.5777222523552503
P 8.50735719515299 1.7340872095628819 3.5234005998675224 -0.10436261997849122 -0.28215646046393983 0.28868114895633507
P 1.8598748388432187 3.2738956659106986 1.7064777449794002 -0.9787217858020434 -0.49860786542058644 -0.19418488024896235
P 4.993978271651565 0.9127103970502554 8.216864547563548 -1.0491869817021415 -0.2996823851628452 0.2871783391585635
P 8.50234454407624 1.5900528052057044 12.40879054708317 0.8229057351392666 0.5469417766392839 -0.5002608276429771
P 6.225640121572557 7.776597874167027 1.463098578830291 0.9482686115185088 1.3820574235811809 -0.43139151547508925
P 1.7916828423687665 3.2543979941817947 5.9961930434975175 0.8789221026038864 0.07420435122755607 -0.052799917409851
P 6.968790570988743 3.898772930427423 5.755905767551444 0.135567841936702 0.3558602179059936 1.426363444587408
P 2.3959475055319204 8.570183026279459 10.320429463825192 0.8743419394323717 -0.5975739969738547 -0.02983636663514216
