# total energy = -340856.3056202701 ev
CRYSTAL
PRIMVEC
9.40102492630561 0.00000000000000 0.00000000000000

0.00000000000000 9.40102492630561 0.00000000000000

0.00000000000000 0.00000000000000 13.75935024980515

PRIMCOORD
 96 1
Ni 5.67699676659734 0.7607262156667387 12.860438168747285 0.20131429220489203 0.6736375128973366 -1.3785208711828325
Ni 4.673804023191693 1.7368863126379712 4.845836193908891 0.5011630277422724 1.4945223609518326 2.3098328002423445
Ni 1.030277095475741 3.8612828621135766 6.368020024961582 -1.399976727063763 -0.09175984361281617 0.10450634464520712
Ni 4.166628143348084 0.80936617719935 3.0333590622185094 -1.7538327700555343 -1.6092557826416867 -0.5286090397683672
Ni 7.899257982872553 2.2357234836005757 6.612771001694949 0.5480864317666884 -0.7107485588170211 0.029429875225342864
Ni 3.3383508649254785 5.179381728841648 9.146788998028619 -0.14520356525425315 0.8194812828387499 -0.47511158207085913
Ni 5.385301773181568 0.2488385422592528 1.2889143257470235 0.8089672706813037 -1.729224741698867 -0.44165047419893616
Ni 1.8837679220593977 8.513455127542935 7.68531228377309 1.9900446454685596 1.1990666122758253 1.1415600334189244
Ni 6.620445998234353 1.2728987401216816 8.943990093878657 1.2640041934894748 1.6956240229252861 -1.1933515641689192
Ni 9.36994488099586 0.8007350964511541 10.638742894157119 -1.0808493458024289 0.5648749640789368 -0.6006238395437721
Ni 1.862117362247727 1.119041570396191 9.239541387613468 0.747918482999099 -0.7122536826076379 0.9443744186704252
Ni 7.907831717370271 1.3550072895767982 0.6551442477167195 -1.613815634098227 -0.7677463163583036 -0.34280904114899025
Ni 6.10882343372252 5.953302282630696 9.499303920537576 0.9402393134561292 -0.5269005417176926 -1.0846257821257255
Ni -0.39964883988966643 7.464911841136201 3.6030921805140506 0.948369141652115 0.6275399472083256 0.6951944131325059
Ni 8.416972411369606 5.689462525307837 7.299968043019089 -0.3647197251791525 -1.258625959896697 0.9972190732752826
Ni 8.303426835422858 5.1334107182124376 2.9899338490695424 -0.42176916189397684 -0.2898008643830751 -0.20772456660660998
Ni 1.9577821892748923 6.350551981024949 7.147858523779482 0.09730828423487112 -1.8237384939077366 -0.7753562674950776
Ni 4.305124038765164 7.09443626099798 2.8264039650625805 -0.5803360358290135 -1.2904011954257648 -0.24180711011261577
Ni 7.681069601340174 8.65224245472474 12.271180062317631 -0.23355901117121067 -1.8691045807473616 -0.666614287501968
Ni 9.359274717997055 7.790779559222154 0.5151047040490637 -0.05738496567737214 -0.13389842465407908 0.06298405703170443
Ni 4.0854314932858165 8.408755915809293 12.055571321954304 0.44355411897955227 -0.588098967603884 0.9027140628171615
Ni 2.0875445327748894 -0.014219049811182004 11.59936591765864 -0.9661750594852843 -0.3812388058800983 -0.30012487201690247
Ni 5.795891525580493 6.843024658286945 7.105823722178995 -0.10130403565782554 -2.8046071508494537 1.330716864325676
Ni 8.675256163113351 2.706338778508193 2.306864797677362 1.4604099926491558 1.0235924210624887 -0.7630720508110858
P 6.331721728613842 4.193580881072816 8.177112787771286 -0.21550421055202884 -0.541025668265165 -0.28506103570524455
P 7.738885903051757 1.3101455998584772 12.094110822583025 -0.8988898039750648 2.145158527857989 -0.40857168936709637
P 0.4056372926035328 1.4510481575907057 5.853998318954335 -0.8856663633062554 3.904226321060218 -2.0111359189212203
P 1.6902384282326257 7.200602032579916 12.948580295834677 -0.8077714506009894 0.48488485940753917 -0.5714510746345578
P 5.856875972605378 7.437122412215968 11.275071931102204 1.6014823093438548 -1.152736618861034 1.4374053042238664
P 3.3197744401804234 3.225811198618265 3.9052194910045124 3.676528653765791 1.1139756960427525 0.2757726684247831
P -0.08537070501510334 9.104600959726033 8.783363246289342 0.7007891336114641 0.1877625216623863 -0.3154841280817921
P 3.9775641362388727 7.438579571039592 7.817690932438344 -2.5122778636175704 0.43417062088212327 1.1654671790538251
Ni 3.9217784558556965 0.3338162844432107 6.651049153837884 3.1122632982463947 -0.8379104360782149 1.1727847957611608
Ni 7.02123048190398 5.118801525877511 11.970428121736179 -1.0675361736332907 1.2956236201669686 -3.049344804345303
Ni 9.389922058416529 3.2190894659802516 11.109767133637819 0.3971125396875613 0.48763851089327626 -1.1771353594203728
Ni 0.7138771493334862 5.1854829938515365 9.169231124117381 2.5196448455056024 -0.013907354109711534 -0.9508096327728075
Ni 1.6344245447754437 6.26677004917883 2.5871704497071857 0.5383401510132019 0.9911530695868608 0.07770439396101456
Ni 1.9411705786855644 5.741807430662324 11.274961939113581 0.9172037717929042 -0.11507177886587923 0.1300206868662277
Ni 1.548621392625587 3.8122565184670885 12.744075105707372 1.0219245464417626 1.3777456835797046 -0.48006095565633455
Ni 2.4242798353776847 0.23125298551426302 5.196658931977509 -2.106672455967649 -0.2675680211268037 -3.1145919463795715
Ni 2.6517094241592485 7.29238423641897 4.657870226480967 -2.056663213929058 0.33516103768542926 -0.31907030277115367
Ni 4.445631753461313 3.0352430275620863 8.842955401560815 -0.44113368246351775 -0.17091125443300245 1.9645164192904683
Ni 0.29559829885815403 2.8892075103608295 8.36730867825059 -1.2386243199637894 -0.7467853978359204 1.4295796375318603
Ni 1.4372004482539316 2.666215205222821 4.2787175005736735 -2.761215157017064 0.25771581092307233 1.1038486349110794
Ni 3.29055605551057 3.3945783934680764 6.439595666378055 2.953356010252804 1.5100816488426703 -2.6657477826456737
Ni 6.030879538195571 5.166605736317088 1.6658032849141304 -0.8117458618677051 -0.17885390631884682 0.6007567655772105
Ni 8.582139013771362 3.502436349490351 13.374652595760235 2.75554973120117 -1.0689682780941268 -0.051769933483439876
Ni 2.654651944880505 7.416787995857894 9.782195794453717 1.6287146626972466 0.511207556462468 -0.6893978610553869
Ni -0.15354505570649485 0.7703763674890054 3.710731092661548 1.022519242602968 -0.3883437923559957 0.47761737921184844
Ni 2.506585806350841 -0.11818780192807797 1.0392823370057451 -0.01520730386805768 -0.30059718366763066 0.030223574771231825
Ni 6.876858946069056 4.277776458004351 6.062686024956677 1.5002824033640614 0.7543938063107976 1.484304025657934
Ni 6.51789022012514 6.988449108884746 -0.3027082938149785 -1.879616793132595 1.2848175306904002 -0.19493872769585138
Ni 7.714349228666841 2.9141484288064925 4.295489868684833 0.07849295130058094 0.6604582952029013 1.447433892104462
Ni 9.552663196453798 9.038530558355463 6.51382803736586 -2.1009484089996784 -1.9879972760212277 -0.07702587983675122
Ni 2.460097739364861 2.187928674185667 2.319702836964734 -0.9414071085119852 -0.30683545126785866 -2.9596994359723285
Ni 3.976050571267236 4.066911474688773 13.38543933146493 0.2894555652285144 -1.216185788454615 -0.9476859995421614
P 1.001923605075394 4.272267457548581 2.4182199348763374 -0.4255628246084541 -1.3635277402081099 1.1949060531402325
P 2.289525547778688 3.5333845226992184 8.1793558722572 -0.3529512717893147 0.5164970869961815 2.5511961379493227
P 4.317241959562924 7.706734398685315 0.7708661608742369 0.9302163820024884 1.2469007010399689 -0.6185837664563024
P -0.14443922321253722 6.989266998030909 5.98817914404855 0.44254598943001205 0.4484852377325824 -1.1104334872174488
P 8.381887787306576 5.388366507223516 10.066065374935388 -1.981563604580742 -0.4082613572155292 2.1226379781579703
P 6.3696360611021055 8.680793366643126 8.037469027242176 0.7564020949900779 0.2962180807633285 0.6948462857644678
P 7.613250609381253 5.300852368583983 0.22963788947620611 1.9892326910902258 0.6936517512357345 1.8613403634209107
P 1.4409984622200258 2.0618045272323995 -0.060724978744032425 -0.8781571994134036 -1.9672119638447605 1.8567260045773508
Ni 4.835727272082799 7.9618782081897645 5.149436644964915 -0.9721539027765387 -0.030368842099844466 0.5202236439181492
Ni 0.5065770345722219 7.777937759524914 10.41017296108326 0.20568079670370384 -0.39694901752650347 1.4726273606509541
Ni 3.655353416748987 4.436268332891437 1.8067406264376327 -0.37234381738331357 -1.1307295184623236 3.2309929855798356
Ni 6.098369494291092 9.205464553394908 10.414975004483956 0.12794015018811514 0.8055770140528319 0.9741588490217095
Ni 3.2387282065128526 1.846549265396608 12.59606537332572 1.3153509233925669 -0.07511992106328999 1.0285567070462993
Ni 7.096617298721084 3.0212731049046213 10.764764569941502 -0.9750409945163466 -0.4909122965485416 -0.3562695375292703
Ni 5.220558216889897 4.518423887469896 4.757308624810089 -2.552801020542597 -2.622276084615284 -0.9331340698699155
Ni 7.07310533602504 7.8380291092062855 5.701916062686267 2.9119100844031913 0.8910317413832267 -1.244718348676669
Ni 3.1321393888208324 6.014267927606244 0.39606516928601515 -0.9695167222640075 1.8461112051759818 -0.8335030510391387
Ni 4.39086138374234 9.483189624153214 8.860457289186254 -0.8623567420460374 0.13709353455260906 0.2483845062198174
Ni 4.550631797984349 5.899077172342499 11.084229250125702 -2.6513483193908916 -1.1101774053425848 1.6956733881059831
Ni 7.337979206061438 7.13249160885627 1.9852811265328685 -0.04661384320379714 -0.4332421955305829 -0.6147093711025607
Ni 2.620986875542427 3.1002323110957732 10.539813091262566 -0.16830878381314884 0.6998689357900398 -0.08719253595710791
Ni 6.006803514019414 8.561503764623895 3.3041424163615583 0.767311285703414 -0.6886861797003431 0.3967734111805876
Ni 6.879115191989508 1.2182129796247259 3.061427701571399 0.6352586560088221 -0.40464124396443857 0.022588169713161098
Ni 6.445126289190562 3.545775073212367 13.456754564498086 -3.2693461314367376 -2.284708751481207 1.0812146995616476
Ni 0.6695249951522005 5.288132782207434 0.5954458608664928 -0.25729415000462136 0.4586786333258165 0.8200978333768263
Ni 2.126483576952024 1.577961990616132 6.982498260269554 -0.9488640790106625 0.47111634486853704 1.239943038775213
Ni 8.060212926222798 7.319825827426468 9.142977822627987 -1.4139018217852874 0.8857635510057519 -0.9263743825485788
Ni 9.241291858406752 5.755119281592991 12.287141121999896 -0.35246610462278005 0.9080814977766619 -1.0459059969580244
Ni 5.525546259186998 2.9541779918451794 2.7573459180523456 -0.9400845330458196 0.9172978741686073 -0.7065705161799315
Ni 5.5994289120571334 2.357241128466254 7.159168896558215 0.2973262262258428 -0.6719521547751137 -2.762522820084894
Ni 0.08053951843793544 0.43811783283337336 12.974668139289903 2.5583741437550005 0.30849946923384286 0.8409787905908936
Ni 0.47084279970459625 5.391149210525406 4.76930715259456 0.6584921726154659 -0.08126280073623424 -0.6814598371552328
P 5.060609183179186 3.8791824130824963 11.583514849964997 0.7054052922272368 -0.3100788979058208 -1.2079407748370037
P 6.145581440176551 6.1137589716735095 3.96014685783545 1.6413462354183281 2.491228756256755 -1.8255729760133141
P 1.8365559761739392 8.73393735909444 3.207744309410246 -0.2541867147238913 0.3470989267735958 -1.0460762039873017
P 8.187004545927534 9.09806724758139 2.123356796147264 0.058588241956853936 -0.1701504650075779 -0.45597280435887927
P 3.692948114398519 5.774805027248935 5.461801671319428 -0.15042110489945063 -0.5767578315594518 1.459488509276151
P 4.90827497945 2.2017575814731045 0.7218172547685435 -0.522512697062642 1.4470312573494046 -0.3111317646503674
P 3.9584612541123794 1.2083607057720853 10.695293817948317 -0.21921045575902245 -0.9235284284593513 -0.555595852769856
P 6.383662389907581 0.49758589457922064 5.251022237328333 0.3303934410934568 0.3708996287376193 -0.03667010172752395
