# total energy = -340868.04357029824 ev
CRYSTAL
PRIMVEC
9.22788845371868 0.00000000000000 0.00000000000000

0.00000000000000 9.22788845371868 0.00000000000000

0.00000000000000 0.00000000000000 13.50594752127542

PRIMCOORD
 96 1
Ni 2.2290702829205475 7.560353655747718 6.679690119658984 -0.3674576929356059 -2.5298804071906815 0.37863710659119304
Ni 3.423620445300038 8.94288513413982 9.887461025768458 -0.7043537110342708 1.296932054565747 0.5899010538096292
Ni 7.808491576693137 2.9786332075227975 8.784200518440242 1.0731926005881196 -1.132081661614844 -0.06473163585043046
Ni 1.215534380759181 9.015628578945053 11.621084131182728 -0.17038160718177753 -0.5003672713138544 -0.05720061758070794
Ni 7.118965294473591 1.7428712952384267 3.014892349686086 -0.700071281608833 1.671026278981264 -0.8131589401651479
Ni 8.653821527832076 4.778422118841229 7.326652766312864 1.3721687037125594 -0.8066877306185075 -0.1496618581359229
Ni 2.4718468006651753 1.8893178852497245 11.425032103914674 -0.485800429243273 0.33017284044221845 -1.5064311965742765
Ni 6.540755030861876 4.321733918484636 10.09421002135038 -0.18642991889389182 0.1622998586149076 0.3347211219345332
Ni 8.852230357815246 8.154417431750069 6.542483414372216 0.3363046643715692 0.5162044954564271 0.4499358541361799
Ni 7.077089136598905 5.882705076211865 6.2598442640169525 0.1256022460835579 1.8372527263440872 -1.9196722663925847
Ni 5.762585652004111 7.4182441733170945 9.580403036945146 -1.0943761766442701 1.1392054171438186 -0.000502907778347521
Ni 6.19507832879362 8.860553913214753 3.3116852353759016 -0.9379798279979911 -0.9359198601451688 -1.8719626190214471
Ni 0.870015475583754 6.602664934603892 3.344910247810412 1.837977520325254 2.328032868190139 0.015417362996334739
Ni 2.8159178501397344 1.3363828081560276 1.0152218373847481 0.5472708778439285 0.09811046842119234 -0.6579118746319637
Ni 6.853063688224343 7.166332045987642 1.57856135872783 1.8726141365625169 0.31629762512202303 0.4579080737083791
Ni 1.9037318470391162 9.007794101634431 2.5956269282287883 2.1848404198286433 -1.216713378823311 2.390186716011064
Ni 5.07833772198913 6.002741449423394 0.657670688433913 -1.1919040330891149 -0.4743381942399444 -0.47716023706977184
Ni 7.547065496351607 7.013628947594009 8.227215321097272 0.8636713470924029 0.02592726138872309 0.5209101284622125
Ni 5.686031089260966 2.1828754732421256 5.599295397169397 -0.12400301991723807 0.6332897052079094 0.5281272150359422
Ni 5.1504721261553765 6.723854793874111 5.078384784220326 0.5132161022520646 -1.350635457626474 -1.3512216691472472
Ni 0.3327530442666916 6.0519722344082885 5.473082798205217 -0.1999744903475459 2.481072384549043 0.5082975819045247
Ni 3.341058527163234 4.467829848734092 8.154027092067809 -0.15834601617348212 -0.8790100343320022 0.002919487639640133
Ni 4.949756324054825 8.640441089551269 11.57554265600795 2.412953834504251 -2.6202387424702813 1.5429413756851686
Ni 4.251657333447094 4.185641019336141 11.038735159592434 0.07330935021711245 -0.7689117974213145 -0.15703398223027795
P 4.1598121595099515 0.003596108136572324 2.4988429883827585 -0.6326286745851427 0.18881307441408773 -0.770832411482795
P 0.32433813277133544 3.2894746306186113 10.956105877869803 -0.23993097613582545 -0.3953497913601836 -0.5056074366668711
P 4.949193422858184 5.462780783517844 9.35001865062624 -0.9998927634527038 -0.0693159127870032 0.8384794212078076
P 7.452996401293311 8.851815102834118 10.463989045312177 0.4653922979005662 -0.7340810628953746 1.0731710033215647
P 1.1664881535436769 5.689749928314182 7.960270040662123 2.3625686971834794 0.4994355035282044 0.3109152777641871
P 2.2896421428344835 3.7019058778753817 1.467678128089219 -2.615080081087477 -1.328647640501473 -0.2764578674172658
P 1.023972644020395 7.090764867310734 1.0484071698988395 -0.8537011232535685 0.9277648351382022 0.6383498933396361
P 5.125704473503182 2.9368677843097455 3.7095844038708705 -0.763722282800575 -0.39528808488431283 -1.2343979405872678
Ni 7.899912267760682 7.828608373556692 4.514632776262656 -0.8965529283117721 0.16364505978889235 1.0017802102834037
Ni 3.3156356944297034 3.2099025483459322 13.103794489588797 1.3637843363036062 0.30457210915497873 0.6116075922487854
Ni 0.0024989121975462804 2.4645567687742536 6.671884248802615 0.676089573982255 0.14968037007868415 1.2560432867711853
Ni 8.291276245641535 8.462324386312575 12.715633511795716 -1.6074624381866895 1.8139737012114887 -0.11186381345154282
Ni 3.3167430410460463 2.3322657596752006 6.588201142216765 0.023780390249049366 0.5180420628857981 -0.20462947262105402
Ni 0.9101355662826903 8.192205635032758 8.646291570840946 0.18526212383803578 -1.58233787520492 1.2551765678955158
Ni 8.461964498662265 1.3060599666451815 4.779943797649853 0.7193195883154838 -0.9639543976848819 0.4662078518233261
Ni 5.214015366156497 2.280423482253432 1.0139077860666885 0.35479860941069863 0.335996389102531 0.3297789474379094
Ni 1.840530038911367 4.361432294680515 3.654885172178938 -0.0052975009535134576 -0.534499694221189 -0.8498562955861815
Ni 3.0917302086052465 7.15674426986781 11.624352649278633 -0.0696928365104477 0.023202920479024555 0.41736974727470055
Ni 7.443833108043076 1.8001211153033347 11.062059570487996 0.36907671659626756 0.755548488740531 0.7737696397342481
Ni 8.865536972988295 5.238524637931545 9.584981915203723 0.6801730000230092 -0.06359315137061305 0.7809625579382615
Ni 0.548442940986734 1.887499991221229 2.3182421375680695 0.8849994191462178 2.193314518737926 0.9069268153469284
Ni 2.1089969981551406 0.31554764621526976 5.692689010791724 -0.05132127598179548 2.256198559856656 -0.16992009416432674
Ni 1.856365095525065 4.5156764504485585 6.017480232886913 1.0090361205148686 -1.1531112285916334 1.326158298420716
Ni 5.20471365457922 8.453567120155 0.6757038280810508 -0.9775701886961036 0.6423189052897131 0.019812406740236845
Ni 7.9322560168463525 4.463225132387802 11.980558372090613 0.4848959151511327 0.3823783188011802 0.2735034127746322
Ni 7.21222233534657 1.1838458117548458 7.109693112139415 -1.4002510637710723 -0.9457242478301002 -1.5864231010178873
Ni 2.9579627373510706 6.630191725908473 9.288580291985015 0.020348481749364954 -0.1420418796968199 -1.6049211598220745
Ni 0.23906967494642076 6.611136136218913 12.3195042523092 2.8960525485456445 -1.8606117127850021 2.4769341940109535
Ni 6.26019953772303 0.8198582105965196 9.261379245143408 -0.9608551899342678 -1.4474670593352426 -0.05175270709225926
Ni 0.7432141373352193 0.12282134995163027 0.7514777114596753 0.5533011431984084 -1.4253062069674873 -3.230731504388333
Ni 1.7805672196364197 4.925625395707028 10.768697613731149 1.0570447871836635 0.10816733843656211 -0.5793765001292215
Ni 0.23124903946850173 1.320114040784262 9.825090650391811 0.3175890902399369 -0.43737421542108545 1.1929908383953904
P 3.8358025395681317 2.181232909094551 9.42192420315844 -1.3125749033093264 0.25220953639286237 -0.6138205407397042
P 7.524005003066275 6.431727528594486 13.170054419955346 -1.8371167149868557 -0.937022349180728 0.5526334277074224
P 6.699889967518765 4.083202229435988 7.250113890980116 -1.8670713523674167 -0.7078686661660648 -0.8721318191549302
P 5.676517136248889 5.873117300092034 2.881723768393582 -0.558299110633632 0.21508666339863602 0.6053071039520543
P 6.057259814501324 3.0775746276930014 12.273853888050478 -0.5733020118003674 -0.12656692398967234 0.4929061870501189
P 8.621782299065899 3.746753415837254 2.8814939939706914 -0.05393197413176518 -0.8516498971514945 0.18076732129147577
P 1.390430550922012 2.418038982999398 5.066688435585207 1.1690404982273803 0.6101235515040911 -0.6016198849084542
P 3.176460680532388 0.1275192679714634 12.502739665281936 0.05537333456398205 0.5130646642758648 0.7959361485289582
Ni 5.425066403342911 8.220793633511335 7.140459815085645 0.7786110269869494 2.44163680426124 -0.4579661806398242
Ni 1.2943313204004205 4.406132186426875 12.945112642255761 -0.5507806907693998 -0.3120640466566496 1.4969517963289316
Ni 4.475941162698802 4.287563047482 5.597998878839429 -1.5856916221685013 0.5018304861229422 0.7685297314915474
Ni 3.5418389244830712 6.81037547616434 2.628095253808798 0.3251620174911884 -0.1161243885001097 1.2965672150271605
Ni 4.007533543985916 8.585608976265375 4.598518896394836 -0.5999173003950508 1.0944648797033343 -0.32508154196224015
Ni 6.827216372621216 4.235397793963798 1.834620499135486 -0.8873602060689105 -0.011326480756412752 -0.0791023027498057
Ni 1.8831536557520845 1.0677036074774549 8.034810155352373 0.5020947955279225 0.9853719441287093 0.5359683083469157
Ni 6.50926947540387 0.8260067526837614 13.148783214244254 0.21002621815659314 0.23000471816104906 -0.2626829251203605
Ni 8.836100008770524 8.868443757856195 2.6424252418131173 -2.618890198862186 -0.911888787337894 -0.23235856310520625
Ni 4.089984727461086 4.199704321363691 2.2279140284953165 2.02566830820944 0.6256216471396903 0.6426436356189835
Ni 9.312046812363006 5.356844623887743 1.6165405793018375 -0.5492861085017443 -1.9259426727823281 -2.500974265679293
Ni 5.071998162610569 6.104091348484143 7.368264083788476 -0.9513153687646327 -1.656291800984567 0.3344971788491852
Ni 8.681182217144205 4.099286439038364 4.9604643658348575 1.352339070581142 -1.692632287286814 0.3678672696691987
Ni 7.642832522888296 6.641348243068124 11.008697459835297 0.3824248557683994 2.0741811682081632 -2.466292912247024
Ni 7.9107365809354295 2.8207255800323545 0.0618120881242393 -2.436527508059133 1.5332195204117143 1.0598503749532586
Ni 7.923867866227558 5.89340019894804 3.411481158018383 -1.3169550346548933 -0.6169696278916471 0.4448586967235887
Ni 1.1779953304651696 3.3426457239799916 8.707473394182717 0.10928139743634728 0.5990626657042393 0.37357023359124697
Ni 6.533409631640137 4.304477767046632 4.60296212469291 -0.7751644631992457 0.08617077956081287 -1.0927188435465054
Ni 2.843601515548297 7.786021668269853 0.5868844787730645 1.7533154640994835 0.5555061212695271 -1.1530011853763305
Ni 5.650559085984126 6.20375254395497 11.713924071496887 -2.267295698211082 -0.7793928994582965 1.1228292897786403
Ni 5.50543208402397 2.4935323385685493 8.062577794546009 -1.8003064881370414 2.04984516256596 -0.9073466764931665
Ni 2.9633702799942094 1.9339070423344498 3.397326499894985 0.6777751892147941 0.4338895993065947 0.5575054110877431
Ni 0.46612925304975994 1.9869950846996038 12.770170332650583 1.7348870821909668 -0.7413788821083683 -1.0894843957696076
Ni 4.8090033412292215 1.4639399104702162 11.194566512177234 0.7731325203708814 3.4284758198537797 0.4159181024298385
P 8.910808993819765 0.5780939922169989 7.926113934281039 1.4319093141063015 0.14895197655309186 0.31135185108097346
P 3.3668597033240144 5.400917019218175 12.759068260032903 0.5582795702496063 -0.3993216315237381 0.4467222322948887
P 3.4112919863047577 8.80901615611248 7.859016111641457 0.9352596008533507 -0.2525684623941779 -1.3816007956597367
P 0.6573975429352151 8.749514731261007 4.458785595245115 -0.34920466026268887 -1.1497194293012651 0.38012628954220984
P 1.1766111471947416 7.0455666695870205 10.56782309194892 -0.26867308126552436 0.6771100448269693 -2.1280902595217928
P 2.8366990549730953 6.370537400153092 4.941434614233011 0.1837138055143094 -0.8518776968915844 -1.2282355205302977
P 8.152747183937086 1.1106963398569532 1.1756209947619618 -1.6002381525241085 -1.324427174662222 -0.8531221108216469
P 6.081695263168616 0.16077750080446396 5.271654603114819 0.5600132651112614 -1.0961803197325444 1.5959017299322837
