# total energy = -340872.44359759893 ev
CRYSTAL
PRIMVEC
9.24939612977583 0.00000000000000 0.00000000000000

0.00000000000000 9.24939612977583 0.00000000000000

0.00000000000000 0.00000000000000 13.53742617921881

PRIMCOORD
 96 1
Ni 6.071072527903598 3.319016387922781 8.910415221220276 -1.4144373825737833 0.15660075134760126 1.2212878855678708
Ni 3.239240344421477 1.2125958612198233 2.9039266033164295 -0.3438104858303111 0.7951653318012049 -0.7558955876673047
Ni 2.322486425391707 3.783400830365677 7.176825837089031 -0.19745583769075026 1.2985469644613508 -1.1222135105715123
Ni 1.98646510546604 2.141651477392403 5.4515618346106 -0.22448404545313597 1.3979828365621858 0.7041742480336131
Ni 0.25288127097260366 4.224643283145934 0.6972833175453297 0.8906170224433114 -1.3999317327584406 0.12893876665595858
Ni 8.632840836817477 4.410121428111922 2.8727635371408247 -0.24360379700172236 -0.03604326677680244 1.5674352470614747
Ni 2.742353523211788 8.118000937296365 3.197621760614118 0.2528055181056485 -0.7005626194229547 0.85134470720625
Ni 5.372299132606608 3.2315818442453517 11.309179568414482 -1.1441959283798746 -0.4427470496972245 -1.3647384726867593
Ni 5.531730977456694 7.735307163398804 3.3811482829506834 -0.23895241427264005 -0.9310841293194223 -0.41254867173697335
Ni 6.844349810783544 2.0406943162542306 7.183296714774076 1.2756330359776547 1.4489660124782722 1.0435015012815898
Ni 1.784800516891091 3.444345708437873 9.327544497721355 -0.41233706994679953 0.2708078682203401 1.6039343704287732
Ni 1.1000584558539837 5.768219543281776 12.773414506677376 1.1140422876146299 0.8020610304797736 -0.5272263004882275
Ni 8.052024993146244 8.054383589214977 6.949911321423739 1.1539877176593158 -2.0365422748094666 0.4676864932513816
Ni 8.55322203305409 0.7785707124098932 5.758726887809848 0.15858281477463654 1.82144172745376 0.5938692944287579
Ni 7.918768939960934 6.407639562213795 12.109322647926763 0.9594115155092058 2.137145427745526 0.817831920160785
Ni 0.901931761382136 0.7156701925454736 4.073560868379168 -0.973880398549342 -0.016796502732048493 -4.0629716295546485
Ni 4.333471680576235 8.946053145349032 7.223178261947284 -0.18741413718403205 -0.9277452947541763 -0.592206047793722
Ni 1.33379070156737 6.428358210033265 6.5867300740618715 1.3164372144782102 0.1767638565590375 -1.1302014138729954
Ni 1.7506794937634027 3.454057574603249 3.2514051504983366 0.013440955996254271 -0.20722654392426892 0.1974111004957439
Ni 3.3852235669816024 6.676491765860451 12.227707521663794 0.9454627666385975 -0.8832135308903886 -0.8526153463885574
Ni 1.6224181146060015 3.3750122334134356 12.283481381642096 0.7755822674629546 -0.4212369435395907 -0.5102336225849728
Ni 4.358648537435429 8.608496425629601 1.349479527652809 -0.3716791872161212 1.9329700119427549 0.5474462270795281
Ni 1.4328239882651628 0.8746922891373429 13.163603991375338 -0.6870638136055716 -0.30847478664349454 -1.4407225415225573
Ni 8.32356877113016 3.4748594669898503 9.24420743662608 0.8328075676340109 -0.8253354276266818 0.10297936647771942
P 6.925975733554443 4.861371727740692 10.69022106408346 -0.12074286110872753 -0.4199323657955542 -2.0831193512380572
P 2.638159073351824 4.951682833682342 11.150385931912409 -0.4715626883773362 0.3734247091523182 -1.2152625053093975
P 6.735872890414465 -0.01660544126352364 10.17598884990241 0.38115935879241447 -0.9987730480259638 1.3197698783958691
P 4.180255430071991 6.898421781833819 8.256855650091104 1.8829643694485891 0.2514423192095347 -0.814376871732649
P 8.721181821337009 2.5976467173476836 12.896672887350155 0.8238249045194264 -0.9789459859977077 -0.288625098907419
P 0.37620717223872413 2.2596367772072012 7.497784515062017 -0.07413518855251748 0.24499887757703612 0.15921402060073225
P 3.8605407959078075 2.702978842958449 8.977344778133874 0.5942151078039508 1.7280224938606497 -0.8537569161921683
P 5.115239909303624 7.857630430100804 13.041212279140362 0.3121131547270302 -1.0913139927791786 -0.5665924609906758
Ni 0.4443428504360989 7.687765266170201 2.3166731797870033 -0.5319447890098193 0.6506878460796987 -0.9944520520531068
Ni 0.3433921638753703 1.9964174559364636 1.5280502234261284 -0.3715966548046439 -0.8387645565483941 0.8303390514888602
Ni 2.942103486742706 1.50810482514135 10.525497639582696 1.068697026710611 2.0826928052236005 0.44268817143483113
Ni 0.7392025067339976 9.143490759792956 7.63829024510487 1.7376972979462526 -0.23683331104710825 -0.7229543568545936
Ni 7.339969464693559 8.278385469970292 4.815086823475777 -0.6933097945152834 1.6348865958359136 -1.246351513404718
Ni 3.7575210193840367 0.7092816344879258 5.091493934059462 1.2470799069303105 -1.050677450204739 0.49431438025155505
Ni 8.18808361342499 5.668261316949186 5.727454678757336 -0.2915615558279237 1.1989393426693415 1.0545703575012417
Ni 6.864199015346303 5.416631489302464 8.01310075849505 1.1572746159407037 0.24661353036232367 -0.0799844482444429
Ni 4.6022591384484555 5.2201743108714265 9.980928330319916 0.12724698077583246 0.28550789343467603 0.5709383966641973
Ni 8.18922128917579 6.028238573416115 1.1306082870517178 -0.49110821460943166 -0.2795164517379315 0.6130162996708539
Ni 4.731371462069871 6.281755277917824 1.1529067317674215 -0.4017256129795404 -0.7401429528187382 0.10933564771305042
Ni 2.54617382667119 2.6279107421982655 0.8703265740610976 0.12330162297483925 -0.04716123106683491 0.0936945987416838
Ni 4.782603868441316 2.1177972842109694 1.3358107697297683 1.2284293817086587 -2.5190396078214357 -0.7717695785850838
Ni 7.457723529599658 1.9170206376854264 10.864935686519308 -1.715224570765033 -0.269534143714239 0.9698635640804653
Ni 4.43546477410538 3.9852966538493253 13.34255483733856 -2.457080649620136 0.23950880099674235 0.6748706139734894
Ni 6.284030629419426 7.832842047888224 8.393150129976723 -1.593684667676307 -0.23984278729739342 1.00598370684179
Ni 3.8671263661075677 4.8871682941552 5.143301652883752 -0.45960294491229875 -2.5634209621502886 1.8240526827140455
Ni 6.573323998995113 2.929635300465633 13.221056616790799 1.3440315791567112 -0.33286092879734286 0.7937355413332137
Ni 2.6857749657512113 1.3197501179111406 7.723169180571354 -0.8581362762067866 0.09453406392384364 0.13065112136137497
Ni 3.510182911642776 7.315486312560464 5.541220858109718 -0.7215667324784476 0.42654652867796217 -0.19622710748997174
Ni 0.9882240046105903 7.165618343534186 10.542284369014641 1.2023481112405743 -1.1448075938219444 -0.31639352726993897
Ni 5.979734738967322 0.6489912942729054 12.909412080940225 -2.0561227680445557 -1.093276515822188 -1.1847172855326886
Ni 4.723259741472694 4.792241739435909 7.5385456798279185 -1.718667277897995 1.2664323433149933 -0.25063499281689094
Ni 0.29683995205600056 7.563962096052525 4.7579718010270176 0.8659819975034504 0.044631779776761846 -0.44633528126911515
P 6.353983813999179 4.662028737649084 1.0241819578529867 0.6082047372148235 0.15901167478193906 0.6735135857249627
P 4.135201620460993 1.8322869177416063 12.739111270441633 -0.4403461535652159 0.7623387721894871 -0.18060534179231474
P 6.370540233462059 0.09453715513304115 6.793879554671171 -0.23412645363890647 -0.5207777166494063 -1.5995046167921936
P 1.8469287121604543 9.043347545533406 5.596859676901341 1.2387227932148668 -1.7096393633677718 2.2404428396842966
P 4.137301233431985 2.767447135503851 4.227209990632497 -0.1488517035298017 0.47379260614911944 0.3842346552836286
P 5.653813759853646 0.6066632817656568 3.004740398811208 0.01776478018258876 0.504371507377241 -0.5789406981433836
P 0.9205831691178323 4.7817899215626944 5.0744361973145224 0.8593999734105586 -0.13592213995232721 -0.43713664548898257
P 2.5122100432814176 4.760035341352252 0.8070579282220286 -0.434452156678284 1.1325035796436107 0.42073969218819796
Ni 8.121404715152421 0.1101593855647748 2.487989574004604 -1.2000009511646366 1.1285929317352952 0.7098787546175581
Ni 8.804232151145497 8.716335137650669 11.582080232842648 -0.48860267457875856 0.7354087805678625 -0.06751228391936115
Ni 7.983514714396775 0.52616763522848 0.10245186358800532 2.2950453575205247 0.4579774934937339 0.527759290173562
Ni 6.777633914925583 2.713893130649062 2.585418090436023 -0.669992974166214 -1.108314383991917 -1.9057929373073306
Ni 6.118253698674629 1.7042845216819487 5.039455905266107 -0.20579829611817463 -0.4948735951891349 -1.8791036009416024
Ni 4.414255908279468 2.6820104614375846 6.611530480489702 0.1904845485792397 -0.7705141089114278 -0.39545700636200926
Ni 8.433368355176999 3.4446324397246606 5.6697994915618555 0.7495485624033542 -2.4519788096171964 -0.3516726621872072
Ni 5.942949889691415 5.430376092275559 12.489791942002634 -1.0960952162179058 1.1960741053064048 -0.0016866436738035469
Ni 1.6519976841268327 5.920816084230706 3.0127947731510267 1.01451308446904 -1.5013478685140982 0.43513992677392793
Ni 5.843407886194485 6.7949765330780405 5.728456388381823 -0.43445601333302597 -1.1155019028792919 0.7309939393296184
Ni 3.415811320704363 8.543537915077756 9.427463876589284 -1.1588381037730817 -0.25748158342507915 0.6459035373171779
Ni 5.1375679520876405 0.9606978010790098 9.064322401631713 0.555381936986837 0.10595850371070138 0.11304652090573435
Ni 2.4787549766907833 5.911714678224297 8.798758358386763 -1.5151590633655778 -0.6991212589907378 0.5037783538779324
Ni 5.295621636881877 7.631269953276756 10.782018548018229 0.6256111056167291 0.1953722156888442 0.3313177526799391
Ni 8.137850141859124 0.7145408412513856 8.732330118755225 -0.040982098839316514 0.49416037117219413 0.29237993796416095
Ni 7.975107013116464 6.782138370947048 9.815134750661693 -0.6204550153370864 0.0032951258115040023 -0.19729205841937636
Ni 6.2033666438687165 4.220222071691601 4.163543620750465 -0.09082370495179197 1.4396012834339207 0.432240750849262
Ni 8.85118208700783 4.453787828270723 11.57899370928133 0.03209919452738988 -2.0591299303019954 -0.8578488268733548
Ni 6.750690423363925 7.762472640472814 1.0460826785257273 -0.4437027287422746 1.001070585810889 -0.4042504362839231
Ni 4.674755907023901 4.092154929857507 2.3054647612925243 -1.3995658647785898 1.3969137718677231 1.6878022128880223
Ni 2.204343885838993 7.598924814247879 0.39196629373640784 -0.3441277599604138 0.46864448628927674 1.108224395381272
Ni 0.41360710637177034 1.7926902519759154 10.733906887974591 1.134607256250175 -0.08199222270309105 0.15869002977646218
Ni 0.14465223442565173 4.991445988582296 7.931442462836932 -0.18788644883476027 -0.7165127149943079 0.117112720555308
Ni 3.4194093358837265 9.125463686310747 12.123888597295558 0.6534569241844036 -0.7483745966999111 0.43278325361629344
P 0.3104670876954755 7.0726341620479705 8.347001191838126 0.21662392597876887 0.25779525801075603 1.2061132347099615
P 4.019232689050054 6.118956652797077 3.6290589283258843 -0.1154060222768464 2.436252657131191 -2.7857977314524347
P 1.8592026611142203 0.13669220392858247 1.5962247490881647 -0.11581688456201991 0.5936818610083002 0.5564887968977706
P 6.345058146523381 3.9959242102531514 6.204066823172258 -0.0909661440669272 0.6376955475850888 2.0801859796413464
P 9.267062695001933 7.561769989118054 0.00983025843863027 -0.7798983783398052 0.8557662333127133 -0.4166007303191599
P 1.6575750701246632 9.188683310349173 10.720153035605149 -1.2633053676502373 -1.0200209016611466 0.6117456604885465
P 7.705995826372064 6.422346102407079 3.830076059156475 -0.48619509357853036 0.22969387178884956 -1.9586949275126846
P 8.52490963083293 2.17865831218066 3.4807837053507296 1.496299250346597 -0.3000084010436962 1.4856278866756802
