# total energy = -340889.4043165612 ev
CRYSTAL
PRIMVEC
9.10488727779445 0.00000000000000 0.00000000000000

0.00000000000000 9.10488727779445 0.00000000000000

0.00000000000000 0.00000000000000 13.32592286716098

PRIMCOORD
 96 1
Ni 6.407855616688944 2.0003618943050467 11.355551392540779 0.37441355542814875 0.5157100723185118 1.3774914014770536
Ni 4.83568745538256 0.24295844795401766 5.617156268790923 -1.402183762017411 -0.3687131626092618 0.9094248991784337
Ni 2.687744446910184 1.4433066949105424 4.816987838362579 0.7438785086017705 -0.48877725248340986 0.4982599951628645
Ni 3.775341414614285 4.124013064132321 5.287725977072246 -0.6039161371417986 0.18783065589616038 -0.5553163738562242
Ni 5.104673133453101 5.130002929221717 2.5790721570554385 0.3973830197401285 -1.4459575646692515 -1.019507709470154
Ni 7.2718729780328175 6.197578250306412 2.759145881632351 0.2435847708383289 -0.27319590883654243 -1.3436726531553957
Ni 4.995596586613407 4.582079931536747 11.450418852652756 -0.2718090557913448 0.2665922874770957 0.042772872191152146
Ni 5.762446593376878 7.912638508950206 12.189807609589586 -0.140706448714848 0.8977844867260281 1.925906420227754
Ni 1.973857568107188 6.440050497292046 0.29013997263876684 -1.0783504906399752 1.0318101809865907 0.7717523521939031
Ni 2.628690149514336 1.613358670313294 0.12537338416760457 0.4034377105746407 0.22727446371407956 1.9585964542616074
Ni 0.4719618355289703 9.095618273373224 4.7901357054794715 1.224190918147279 -0.05671442197290878 0.18351351657804527
Ni 8.626689275720071 2.3942119933571875 1.4202103279348954 0.6692756363842151 0.7187580593850589 0.9119620637779907
Ni 7.026286859676635 0.3361779235102383 4.45768077028332 0.6618227796505957 2.4242803152606633 0.16728445631369257
Ni 0.716394364696122 7.388397322478093 2.5952770350241603 0.29954200293023897 -0.18856007786301718 -0.2161287315099052
Ni 7.900847680222542 3.8209477938396628 3.6866962343111744 0.08195005661124596 -0.09096357296376592 0.4071994916099181
Ni 7.640338651994051 4.073025696661347 12.691328460921149 -0.1276357315738189 -1.7085774977621608 -0.3520647554193034
Ni 8.105634799714897 8.638325321367912 6.794581141625721 -0.5632777947951461 1.6107351954006903 0.9042258714759975
Ni 6.812913831697651 0.9961839017382808 0.6479693175500729 -1.501051934540234 -1.2718015780467067 -0.974319800079606
Ni 1.8582163977056056 6.637562812032737 9.212663417357668 0.5741221937088177 0.014590496219665194 1.713864971413345
Ni 0.23881481385829606 4.968582386740838 1.5259918161517778 -0.6765431165799058 -0.5031764586278754 -0.7664165418032864
Ni 6.308357411024154 1.758945814217026 6.937448655768098 0.45937205984841534 0.07562154329005687 1.1207904049717408
Ni 3.472440032288497 4.647107034836337 0.43698905388740533 0.35954358029485173 -1.0609793463513792 0.16390474120818224
Ni 5.9373878931246145 5.421923817767149 4.862789062170793 0.8602029289278281 0.3347013244401913 0.3106743653979746
Ni 5.430364048061005 2.796875623072168 9.24092771822198 -0.667855873218553 -0.06876621093112029 -0.4249573298139714
P 0.15447260317425418 5.586995419954432 12.564412708887547 0.5858322830568943 0.8106829678208295 0.7835657998890634
P 4.073226004176411 6.4171699161394455 12.670593901645853 -0.5882498913594514 -0.41775155609415154 -0.020678868505590194
P 2.3302137422940645 8.553558822947416 1.4224355623295215 -0.017506898535511784 -0.592399908972083 -0.5099567147745024
P 6.40381304683946 7.837905596057033 5.686997125872997 -0.4720314004836387 -1.6819185004137356 1.3678055416478572
P 4.702200706366136 1.1140830841278633 12.787914923707863 0.1936158951193698 0.35312070748764346 -0.9772074060400459
P 3.864569307688492 6.037842111929485 8.549272242125035 1.7801153579011468 1.3343212938474827 -0.05086336250877046
P 4.656685376011242 1.1427452685561903 3.6508894450159772 -0.11143186812044681 -0.8236444130775041 0.23342891335124963
P 0.14474767331787045 5.537064219381069 3.6370573006120654 1.1249753895873658 0.3213629554600723 1.1208384846008568
Ni 1.5539401774355108 1.0419268542693845 2.56937089990538 -0.22561635928536627 0.10570267894615344 -0.6268403500381398
Ni 1.8228894359578585 6.59811133645207 4.928072923285147 0.40688016059728643 -0.2914520268332529 -0.21327583544214235
Ni 6.111555277473238 5.59378766569253 9.074779918385579 0.1734892995728238 1.3479931349076204 0.9932330920443411
Ni 8.593529277089843 2.3593402759618596 10.160216296393095 0.002084136222538346 0.9918549807498918 0.2985670406114793
Ni 2.5067119777270754 5.013505899437586 7.360893279682322 -1.5727990824765494 0.023551819178011052 -1.628437754886776
Ni 0.4692012337758989 0.2520105266575255 9.428183377702663 0.7435162401663453 -0.02677186877720551 -0.4126085784406313
Ni 1.077800109240035 1.1299346924791076 11.783793381440796 -0.2302379172177777 0.02790829637449387 -1.3080901280650956
Ni 4.011294562473273 7.056824650836931 1.792110365290781 0.2834319847422538 -0.031577260585648845 -1.8133273258767417
Ni 5.734385331493745 8.014531299908722 7.8983274474875484 0.23124321855384047 0.8711290889220288 0.7227895491419553
Ni 5.540879167054344 2.5897121280601847 4.838802237241812 0.5669452163444042 1.1570840971964524 0.4900304081642206
Ni 0.9926512055635061 7.533465487820067 7.1284892167947955 0.3674517793983349 0.07405651279578213 -0.5252789469538696
Ni 5.195995150548437 4.598805609044636 7.247902541900525 -0.31287085882866117 -0.8154971013800214 -0.535433261779052
Ni 8.453159233464836 7.282926310909562 9.147192906058821 -1.1099454918374367 -0.023776533594307436 0.14980815390580007
Ni 4.66691926905363 0.5293390127305049 10.639456578628549 -0.39875933126236485 -0.4934587171194792 -0.4331493787064605
Ni 8.211351643233735 7.207182755554017 4.731142410826848 0.6590606435244263 -0.6700348831477428 -0.12938536727507396
Ni 7.546312483445344 6.192379359801783 6.949242215961876 -0.3428949159945772 -0.7899362221917814 -0.0207778559772997
Ni 2.4491053573719217 5.271556608163013 2.6148789463506352 -0.5927300386179921 0.11353348784448189 0.6595573806551867
Ni 2.3774407914140556 5.377528388519207 11.46682312764784 -0.19496829538220614 0.2121820881573314 0.26766572304693254
Ni 1.4386814122899612 3.0568474629648046 3.6779946937590298 -1.3148377312015742 2.0857279925054986 0.6082674721319589
Ni 3.821512296836663 2.9777988336106955 2.868657642072958 -0.47296573937244996 0.14845626786359595 -0.6150477282785859
Ni 1.158815394196596 3.008973966864378 8.20623651768995 -0.5234398368626018 2.1422097296423104 1.008011021684464
Ni 3.663706394513994 2.621897903776238 7.257617456381156 0.8461824462790201 -0.06319000239492344 0.41638012966792165
Ni 4.445524835585016 6.800276248474488 6.381078143879634 -1.0912296605954883 -0.27297685084720086 -1.1208104595763988
Ni 0.6240753624689871 7.447615507840813 11.464971193622196 -1.1759169136322394 -0.859980528504377 0.41849949000376957
P 0.3372559421367676 5.6379918923124555 8.052015209398233 -0.3442987383206393 -0.9845661603979625 -0.8616923689891611
P 8.546575374581302 1.6224817671357794 7.812281712436753 -0.266370915494909 -1.1771986085581403 1.1422748000977618
P 1.4744727232771764 3.456743207017075 10.572347187660991 0.3893843178053681 -1.2832872100888029 -0.7325258025931126
P 3.920136433344807 5.930477283854888 4.120189011571999 -0.9501771413951312 1.4307942266652518 0.47043680230300916
P 6.7599780183983205 4.07114098504233 10.41460866150248 1.9345306715616555 -0.7001535569099941 0.22438942885680066
P 6.418845215356349 7.66966549317691 10.055301593423222 0.74941203682549 0.36265050135494964 -0.15313901805124594
P 2.551389658473518 8.594294087601906 5.839899136031404 -0.3319227332537896 -0.5100850128222506 0.3894411391852325
P 6.945799658168881 4.228983306913193 1.417744724522192 0.5421235293150342 -0.2311195484917826 1.749863758105457
Ni 5.191852426941421 3.0269925383331384 0.39945142556430924 -0.030378098071225098 0.02316795347603107 -0.6769336671501052
Ni 1.6789411717228366 1.0680851947594046 7.331536392372202 -0.07737966363174416 -1.8711797181088354 -1.8063331539470955
Ni 6.990504653576468 0.6892445020065324 9.229200623703656 -0.36082578944138505 -0.13102958774671628 -0.9861918689268434
Ni 2.7712180513698095 1.7218616092689398 9.61960998594021 -0.4877354414824568 -1.166804666918326 -0.597720549854048
Ni 6.298906538267928 2.4778403808966356 2.4801675900262037 -0.0520578970375039 -0.6563743549415147 0.7370681705481564
Ni 4.38363891831712 7.029482675030619 10.600331968492917 -1.8808524653119092 -0.43698623595404745 -2.05556792398235
Ni 7.739072047146776 7.392804087809513 13.637348987466334 0.3262933028821542 -0.8910530815394654 -0.3068045980299232
Ni 7.925512819236627 3.819973570925485 8.130944564732006 -0.7711869666087364 0.476924724020198 -0.09489119015294625
Ni 2.990491046156149 8.432099629721915 12.593783253528239 1.608416831680159 0.16734333457608597 0.8164342684823102
Ni 0.16955575905861456 5.142112428996074 10.321393738389784 -0.9931235630496702 -0.770650377378976 -0.6008133298467588
Ni 8.631879061337655 2.241304520266551 5.686784071516065 -0.2383713449581895 0.18016414048983811 0.4312999842025475
Ni 3.3151440036405373 2.937045359182109 11.55069643664889 0.5945357243681632 -0.6954206702106991 1.4285581382458816
Ni 0.8859273615371156 3.4408278644564922 12.762955696842116 0.6191522373652627 0.04462432357759411 0.19275946065634544
Ni 3.1521847352484804 8.3270838625058 8.148761918196998 0.38440177698911215 -0.2901199382853907 0.04796470080473675
Ni 5.550211676278942 7.877083925026248 3.6161087764911333 -0.6529984964907464 -0.8638001593607832 -0.5037814392017259
Ni 3.0363614671059302 8.30002413819799 3.4889799701005995 0.09866916913813974 0.5806682223574516 1.5174784555273737
Ni 3.289249704874921 4.167388746030844 9.523717315546582 0.5480524932049594 0.14250364982458683 -0.7000977639713942
Ni 7.389271391634739 6.135792486796047 11.577534912201424 -0.7079306297522517 0.41396637802010644 -1.6017767006558221
Ni 0.47166501621119283 8.683512875789065 0.29128900938427343 0.6848637206304593 1.1885238037629724 0.379322819804308
Ni 4.612453834730171 0.5826499473762291 1.6471769522771236 -0.7431742834458943 -0.944917949878721 -0.7982329149829349
Ni 5.923384576844193 5.56960508569201 0.1534492138700153 -0.5762130147995754 1.5478645240183988 0.7417272665867226
Ni 7.7896405898135255 8.915796754167552 11.269946334023125 0.7377520839890584 0.5093311653753615 1.172073371516433
Ni 0.3400729941895389 4.576371167357407 5.764207478532037 -0.5334224019966104 0.7183040025667758 0.3610065379936234
Ni 8.004852804976284 8.830857262893135 2.3222287563526276 -0.062250778410105685 0.4416525310814652 0.39343406239470957
P 8.765547908095044 1.6117471053057295 3.579782098145473 -0.9158467435443777 -0.27026176590888296 -0.7434619898896421
P 1.9430466303354414 3.3507441119997363 1.4911310246209077 0.21075641145439833 -0.5696073365575997 0.0936506328776258
P 4.449913391142339 0.8972083165900689 8.294280775447866 1.621053803717879 0.38621594737971554 -0.027933750295790604
P 8.289016329756489 1.7448696588402175 12.716381468123494 0.7838578772081854 -0.2712480410815522 -1.8771464772152318
P 6.056124725122649 7.930456772903901 1.4093891696778857 0.42029077757623745 -0.06135757717187498 0.6962868748657363
P 1.9666556024519126 3.148524570655028 6.063054454655177 -0.67712727121815 -0.21940894492307375 -0.42911351807419
P 6.915762635796247 3.887932447854657 6.0995149748404485 0.8265243057284604 -0.056157006807541994 -0.41016011690013876
P 2.174975418119041 8.505466809557829 10.710656795346946 1.037793138042903 1.3920716132840736 -3.33367050454642
