# total energy = -340855.78087893693 ev
CRYSTAL
PRIMVEC
9.46953300854525 0.00000000000000 0.00000000000000
0.00000000000000 9.46953300854525 0.00000000000000
0.00000000000000 0.00000000000000 13.85961875307080
PRIMCOORD
 96 1
Ni 2.016802201041281 6.565426094846143 7.483168727205242 -0.6376384690949083 0.4495923547538322 0.7801727150471144
Ni 1.1718547097768715 7.364465290086325 10.003955573154254 0.9997356690495491 1.2813689100201673 -3.064592217422677
Ni 0.2818540213188827 8.303558878519231 12.629632648422978 0.2898162910020428 -0.3097127728156537 0.10447523429695556
Ni 2.039046134077773 2.0498414017072326 8.627308007773427 -0.9376527836758753 1.2901494844262749 -0.6399015540974722
Ni 3.7215832894591445 5.237977488209928 1.3264211623048145 -0.8808278042670313 0.08221745134001969 0.9452316244643978
Ni 3.932128886365641 7.462418139524159 3.2382441204161045 -1.012111674116399 -0.3812809719719434 0.02161732115945954
Ni 2.747736514885783 2.2022440659427795 6.366914380486592 1.108862800296219 1.4727098930624314 -0.32992627164905114
Ni 5.3155519026139055 5.733309820807977 5.851004752661511 1.4029010997994098 -0.39392899975325707 -1.0450341358760324
Ni 6.306917313252618 1.225518553334896 1.0971732377069296 0.6692296136376281 0.5775332762728956 0.5263786077759516
Ni 7.109924242823276 4.769150378502106 12.384719275369466 0.957844685242718 0.03517269124639104 0.7361708555448677
Ni 2.6198410020757112 1.599602985294698 3.705244557206627 0.05018561971545551 -0.3547325320594536 -0.8113267720524157
Ni 7.43309099579746 2.737443132505763 13.606846788934092 0.6230137772031981 -0.17681193618815355 -0.9106772835282961
Ni 2.976795048823502 0.09884582640051649 13.437732292845501 0.6807581831025179 -2.4810171058310755 -1.724066594536695
Ni 1.0601805070100137 4.758203598344513 9.264018574278763 -0.05392297527070068 0.4877732366989277 -1.1093924475474441
Ni 1.096837069285135 9.225323221546956 8.53336739947121 0.9881826741046271 -0.2104105980792054 0.16727442901136352
Ni 0.7195348900091132 2.9827135069536883 0.4312804113299219 -0.318948946701941 0.8478796314757849 -0.31900293986832806
Ni 9.103545027060242 7.8244762645634225 4.2046345846987325 -1.3093234862515644 -1.7501476078944633 -1.2503572921300015
Ni 4.870199765233653 7.785641709696392 11.953214436107247 -0.4575321784261991 -1.7041004358274134 -0.4944845872808323
Ni 4.909971803868505 3.296514891782666 0.45631406879065833 -0.21848823288101726 -0.8991428005261354 -0.2087679202694598
Ni 4.496664566188332 7.255234226835608 9.641416395838169 -0.07497953883068377 -0.9045464880402099 1.0793226247452572
Ni 2.896891129299484 7.153749241585679 12.842710398455896 -1.6746553910934192 0.36177735472137695 0.8887874254337402
Ni 3.927384650328484 1.0416675699787912 9.181581554675025 1.5463902534657172 -1.602460356986408 -1.7564434682055041
Ni 1.7227921401996462 6.309748703622099 4.468798571404813 0.48050961315797897 0.13816362768833623 1.8373511995951648
Ni 3.564332224323349 1.417077736559755 11.295257078391193 0.424332808856095 1.3605773993305341 2.251311149857368
P 4.7666598913209235 5.259359693742665 12.028804983345987 -0.9764504732693635 0.4019277016880175 0.47284849706829535
P 0.4813193176523699 2.1271696082529936 2.450838246476618 1.1367009055544102 1.5771961831029806 0.3772739076950793
P 7.042643210799319 4.802776690214571 6.776022827230885 1.0718733675560639 -1.9800839347114223 0.273179196665994
P 0.7363849770440786 6.251757283479282 11.62524000122475 -1.1328648196377715 -0.9150522726675402 2.6739151489478146
P 6.0053126869383275 1.2136437589424902 8.270644675688992 -1.4752989939458465 -0.03343051174430372 -1.2161158544486284
P 6.539119732149092 7.024764732479653 13.223378996716365 0.8776614907239079 0.1677904494158336 0.14524136047072406
P 0.20561291716247423 9.618678153178642 10.596995494285222 0.5717300393275573 -1.5582939468818389 0.3503377454258676
P 9.093298992345266 7.333319996022032 8.176343278179155 -0.11092510368735736 -0.5373358781184036 1.3381643217426566
Ni 1.464018211681888 3.6624649948883405 4.606354901789952 0.281132904295432 1.559058078741373 0.061189684135443
Ni 8.290292062774608 5.443400067758937 9.045563076450435 -0.8766207081642192 1.6539050459199451 0.09010868116263837
Ni 5.016873361999179 0.5582668489711974 4.447953288393648 1.194573095280846 -1.0594243431594335 -0.3358120410058668
Ni 2.6640826602904792 5.9103711489971325 10.839288647555339 1.920097526855461 -0.545570350213054 -1.0071856975696911
Ni 8.646498016414743 3.447582351864043 8.283727782493255 -0.49443239388665816 -0.566938788586501 -1.7494688366598838
Ni 0.44385784507154324 0.23451961362360457 3.2788532657688894 0.5524387951981131 -0.20078695894651227 -1.1799265490122648
Ni 2.1353323457061464 3.67331707971585 2.245022681307766 0.06441976103696648 0.4181467346500412 0.6409359088992574
Ni 0.4386145646448486 7.904616922412648 1.5908067360832903 -0.8903426857360021 -0.011085054169568006 -0.5894732222435912
Ni 4.357595004428468 0.5654599062443005 2.250233765322232 0.36701854851565824 -0.6831323397616492 -0.4335579269987888
Ni 6.5805394695273876 6.199930529324868 10.701801444761161 -2.0311419297295017 0.19898384429950247 -0.43146530613581824
Ni 2.4890478121651 4.8968943787840455 12.888087453678358 0.16343525777093146 -2.1324562497999726 0.7891859742893184
Ni 4.46251743016041 3.037418999142626 3.3150960094515485 -0.2619319058869489 -0.019217196358399163 -1.0218849514530788
Ni 9.126631748534473 4.467166970867484 3.0768491876358777 0.3970186944221743 -0.2871225462199636 -0.8784176521636421
Ni 0.00038446304013689677 2.102065876247996 9.870099936268758 0.689250022623613 0.8477410490153916 1.4010452775375934
Ni 7.375099575654643 8.90566966531885 2.60451361594848 0.4311786281333348 0.40879023313580565 -0.24757949382001876
Ni 2.3777997383836156 8.933794178353494 11.249672640395849 -0.27502370607390053 -0.3304304649789794 -1.0750684774545936
Ni 9.663753130298142 8.156336048839224 6.349867327165054 -0.3673803027304512 0.8130378412062514 0.6269434512749074
Ni 8.442306476156814 7.340592597372406 10.425177446522762 -0.10719777543444119 1.2136645646946582 0.15700004366854897
Ni 6.87022195378423 3.595714256712848 2.0013564457514463 0.4971652194367889 -0.10072399478463943 0.28962088716178513
Ni 9.025847508727159 1.1610120944823703 7.523749463959002 -0.3914481423129323 0.3483276569743743 -1.0781440310561239
Ni 7.6587499673852 9.422213751855486 11.587084411874416 -0.05056382899048067 -0.6255835948129033 0.9343124064487328
Ni 8.13420575019883 0.660338945267641 4.671730663772639 -1.2249524789036517 -0.883390422787885 0.3903006589720504
Ni 1.0471409600575874 0.5040736585180091 0.8892166111249017 -0.7134543877839584 0.26898598452025285 0.014369638458110737
Ni 0.8997997612149754 1.5695750961253854 5.185992592854276 -0.9200821217819637 -3.036767739011241 1.2800579045182277
P 5.32670701249768 0.11086455769464826 10.966687009882476 0.781595306426254 0.5804872166948971 -0.6055171630803314
P 8.608089590533087 4.553832136959427 0.4036142236928786 -1.2316381184539433 0.010707102004858979 0.34385856545942717
P 1.40241889946291 6.329151776756102 2.4744268532002875 0.35070798428109284 -1.9092284453514408 -1.0693896819022615
P 5.6949676816573795 8.121393472038605 5.638994218998631 -0.9908903028437773 -1.3699809520326212 -1.547985365866979
P 6.8045696814377 1.7155479474482982 3.221224528740291 -0.5378860941949188 -0.45690560058579377 0.08813895903077724
P 0.468833738380929 3.1708257801635273 6.547408414391255 0.7686832263502762 0.14792199262668074 0.9886850676623424
P 3.0343603399809456 8.502542175622597 1.529768967171704 -0.9420894792909904 0.4185725093335501 -0.6505873159460925
P 4.318182808047932 5.206197735434081 3.614893848867855 -0.013429900252660743 0.3034757907670064 0.5402101143424052
Ni 4.496049046542793 4.545716747171316 10.015680748925128 0.046633383587822916 -0.13443964186952975 -1.0918991758586873
Ni 5.434470298132111 3.187937226309522 11.763559575970358 -0.5905019206184218 -1.0149182903272584 0.6584548916196272
Ni 8.400034480807772 2.842299271506646 5.120477628736366 1.6343608052394305 1.409669785981811 -1.0363453498527828
Ni 6.780318207403449 2.320007178433973 6.519799990905562 0.045165026572412545 0.21441149170848234 2.10907258076871
Ni 2.303643825395634 3.4541068601067604 10.601014364093945 0.8698584497397213 -0.7767901717281267 0.6159332162073328
Ni 3.1524643556604373 4.966164012739744 6.076708231054391 -0.7610233958121732 -0.8700913916861337 -0.6784524177874768
Ni 7.492824810013803 0.9149292341023331 9.625823862786705 0.05787501793991323 0.46650250024560946 -0.6355011110369313
Ni 7.77124801952378 6.663719847472277 1.3366842421792082 0.47244997607829603 -0.4029702840199189 0.29502406045522733
Ni 6.542935953951435 8.05638512793664 8.953646107352089 0.7596609682470079 0.44557500606432293 -0.07904522425962515
Ni 0.13500050342619807 4.13999460543079 11.419078798101095 -1.0757225660988248 -0.2620928569448454 0.8161159659109427
Ni 5.798943154088491 5.577195099633178 8.322409877878851 0.4282532269564237 1.4020089270024434 0.7912572549960502
Ni 6.185811455609495 7.017425844398221 3.5606050161312828 -0.9112814927711984 0.4889741989855644 0.3305024558674953
Ni 6.382711455451035 3.6613286509273446 4.561034663765538 0.570815755043404 2.609617515311009 -1.162488041820843
Ni 9.039502575325125 5.492736334732168 5.723981383841504 0.35497807241135637 -0.756174038139672 -0.11809873861766111
Ni 4.7303537017671085 3.7099736419909712 7.478317485445091 0.24331454789607773 -1.8958067726288965 -0.89752866196148
Ni 3.0318887918657795 1.7806509868803468 0.770231928875638 0.025373445767782107 3.757265921015858 1.3742194155940008
Ni 9.596235359948977 1.3638968391851538 12.582274566895181 -0.21880190746669415 0.3721512417565333 -1.5270982380053248
Ni 7.331880627004771 6.944482031635302 6.71764599709463 0.38262514470466363 0.8630288284123976 0.25685269159182866
Ni 5.9195660655481905 5.34178250904689 0.6573503606502222 0.5331596352535269 -0.034249922321805536 -0.5451797996428547
Ni 3.8589293962114977 0.12415978203829858 6.466967572345666 0.12897244810737143 0.019307442079360294 1.2031140428723215
Ni 6.862608449245559 9.379278889195863 6.653184992000544 1.2074784904886045 1.2053136216268017 1.2441694181517349
Ni 5.940986149212961 -0.18183397282533725 13.228216034177004 0.20549362039356223 0.16061450049268466 0.5767352058516325
Ni 3.763741650412087 7.288254488435543 5.88957605451091 -2.391702381324642 1.1314571406569676 -0.15312487698385885
Ni 4.606653192079713 7.295233534262659 0.5901422440304291 0.3951826696547001 1.1185571447658478 0.5914069489311944
P 1.9536593549419503 2.4938393958672984 12.520918621674516 1.481554487937255 0.44211944341555465 0.07722822565554441
P 3.003423375642836 4.608149378295024 8.302632758191022 -0.4043008299058844 0.34890332697218623 0.5132119884870064
P 3.405689137835333 8.237527824852371 8.268468577003684 -1.5802915341988526 1.1243979198173408 -1.800257894287293
P 1.6125099587850082 8.606858551242007 4.778242077143372 1.4004978896745557 0.33049705655085665 0.32525766252878824
P 7.863774826547859 5.955815437903954 3.914649075385624 1.062158197150829 -0.7548329507307451 -0.1908239341965294
P 7.425723699117005 2.9396176622329246 11.053004644113013 1.4399656087518748 -0.06866876612130754 0.02864183210640874
P 8.210501777646689 0.22279159699282758 -0.16396307013207737 -1.2667483318935153 -0.19937413775938567 1.9129388043234927
P 5.002886861745923 2.3922502457542785 5.414177088895329 -3.2917694934372603 -0.052364886754961426 1.3722435228145529
