# total energy = -340885.115491982 ev
CRYSTAL
PRIMVEC
9.11165827673113 0.00000000000000 0.00000000000000
0.00000000000000 9.11165827673113 0.00000000000000
0.00000000000000 0.00000000000000 13.33583290853348
PRIMCOORD
 96 1
Ni 6.628849937520334 2.451582809089626 11.560860332696299 0.2845699550014389 -1.6422067836464105 -0.23154892271971736
Ni 4.620995780849707 0.9466648611208496 5.763040110708931 0.4286327217830295 -1.6452046899324695 0.9297042182527602
Ni 3.1975907289268526 1.911443699140793 4.335932991978178 -2.2644584858726033 1.6845348549906602 0.5682341103591568
Ni 3.843242843147067 4.524439536785473 4.910707337836889 -0.5251344509562053 -0.38193403217490995 -1.1235777379088907
Ni 3.9937492165973842 2.7849601666268713 2.161258037492128 -0.3092173212364739 0.08708712072749517 0.7903745952807807
Ni 5.141690611773053 4.886190598580152 2.5083238394436136 0.1589437976584811 0.5335884952608295 0.02259691146390947
Ni 5.471897112187118 3.0773168380475573 0.3887634842871606 1.233664404855353 0.5591740570394176 0.06598144909713152
Ni 5.640891040530927 8.129467182724337 12.41651430505512 1.7277684688683146 0.5332673644759849 0.9349577533422155
Ni 1.903598561258439 6.701497189943108 0.39269880955009756 0.7996670763263003 -0.2410409213705526 -1.0763051780751722
Ni 0.45033187126143964 0.31513672858639236 0.3599141514612498 2.442420990725432 0.13966412349326268 -0.2764023315889821
Ni 8.111307647533243 0.3052797365293301 6.560056005434897 0.5999545813908894 -1.3751208443623477 0.08129956751144063
Ni 0.13646075202679991 2.5717838067017214 1.0793597647309516 -0.3355389898501383 0.2990864034500591 1.3029057556506787
Ni 6.8484409049590464 1.0920595942087972 4.67332950203564 1.0447641700440975 -1.3035194779752777 -1.2290112223540575
Ni 1.371140579340761 7.82503756392372 2.653404220316763 -1.5566114169730934 -2.371915685616018 0.228741020957277
Ni 7.953284155902969 4.206397100335337 3.4161867032682904 0.9262566260237919 -0.5805401814200195 0.46570777225845605
Ni 7.914641612628795 4.205668167663341 12.541030584085432 0.2952423471136205 0.23122162128728568 -0.06957945086103501
Ni 8.506134029319728 7.356734768800067 9.607774532336068 0.1440041456295133 -0.8073053095978484 -1.0502601601616623
Ni 7.350165263093705 0.6894318105002778 13.15370578422456 -1.7561665603950334 0.12299051949232366 1.3883288584121898
Ni 2.1419868799762414 6.812513635888057 9.313385961092195 0.38464911711322786 -0.14379511494250072 -0.8641601138033633
Ni 0.043943706131262354 5.22932654226374 1.1658494485949245 0.9330425385973737 -2.0701766750344603 0.022400479182387228
Ni 6.7675476016843215 2.282625327379417 6.686333568033917 -1.9716851691247657 -1.7713748927043558 2.0786050083074716
Ni 3.6544492811001734 4.527346155815056 0.34226669147223326 0.28619797752316517 1.1857773513660868 -0.8294669332965521
Ni 5.977329915290554 5.711096368502515 4.837866918256035 1.5742651254991145 0.9787762931890627 0.2867746759622416
Ni 5.477746796879884 3.0015898450856016 9.502674286190205 -0.5129829031953359 -0.15821977500826298 -1.1414579606234212
P 0.2897507371183012 5.958705685521064 12.298172085756613 0.23912133575033656 -1.034118003184161 -0.38358648017666835
P 4.169513107132354 6.348329310361179 12.56331496703418 -1.126187664727912 1.1493209083112657 -0.05443128236568691
P 2.643246543532502 8.644166542420518 1.1373254019738916 0.38785502564503527 0.8632214040391779 -0.8013125823495232
P 6.72337428176138 8.000546328023491 5.666142179454699 -0.6934018400084574 -0.5266850832727767 -0.502019976425929
P 5.071740410236664 1.2808349329388904 12.745949048002709 1.1474339757011982 -2.2686936069998738 -0.3554953783674071
P 4.27253862866055 6.426826247476719 8.138045809107885 0.006325427997395557 1.5641784306870739 0.4061944473841714
P 5.075348626963042 1.479952003952923 3.535489291362151 0.44576758169110325 -1.678922393899889 -0.5947288142155757
P 0.3681438013280815 5.810796134714731 3.2629586774539088 0.10156860217312186 0.2973102853862428 0.9526091478753917
Ni 0.754206590065498 0.29686511999697945 4.799712759872099 0.05468864979213162 -0.6522575045596638 -0.3162811700617908
Ni 1.9197170849679444 6.474070196280442 4.744076062516185 0.7883899607505842 1.05347532466485 -0.24891235369882936
Ni 6.463664682387703 6.048182171008539 9.277952543906483 -0.9271853084856483 -0.7581177921296041 0.4292883530891574
Ni 8.690863791720245 2.906418573098159 10.013170437866492 0.4600909402923109 -1.681689415122065 0.18233929376428598
Ni 2.641734008238111 5.445063278199275 6.726433976652082 -0.9952606639973312 0.020786083507415815 1.93964279597724
Ni 0.8097439703448525 9.037726403689412 9.158516925599983 0.5006652621702474 1.5259661812834107 -1.0821606084146846
Ni 1.7801993715479625 1.2940012793268132 11.537162731529717 -0.9534010476490676 -0.6288712644252396 -1.1388770872701224
Ni 4.126296511341407 6.948769375600858 1.5712544657837475 0.24381128502683816 1.138973760748987 -0.32091584062032474
Ni 5.8450468586401305 8.153121047930597 7.784886130018517 -0.2922763225067611 0.8040361519282734 0.7057145959375394
Ni 5.9647011567482275 3.3322428167612625 4.05936135756956 -1.3140869690784789 -0.174623413177267 0.5764505847316782
Ni 0.8617469383308675 7.578457864304367 6.760387660513643 0.2851384259103993 0.4502785821875793 0.21602563027313762
Ni 5.411231690560273 4.669551808463021 7.471933465950592 1.192303839630695 -0.15681595268220092 -1.7726941257364115
Ni 1.143422012609296 7.758686467455311 11.439637918177569 0.22168514255176014 0.10486424220525811 0.21295907553267196
Ni 5.00771278666024 0.5731442701709596 10.390721115326677 -0.46685088472396374 -0.055641500623704175 -0.4668017766535832
Ni 8.495072476022193 7.443049508822761 4.340159890309913 -0.4817005481422865 -0.21280480934299478 1.0937346864055293
Ni 7.517099956639127 6.502216109077877 7.2970215154760165 -0.1463361361967996 0.9175647546767487 -2.157768503312516
Ni 2.4517012606488255 5.616253116217471 2.5548926143599004 0.33841374029477206 -1.3614096654238426 -0.22722278454053768
Ni 2.967211557942603 5.095986533238921 11.117710270585695 -1.021559192682544 -0.2115801929072743 0.913182566448653
Ni 1.2472493600766874 3.6073875654644496 3.579031173357976 0.22515381782665095 -0.41010792350596464 -0.13556887037796653
Ni 1.8221494468213164 0.8239563351170891 2.661418835045356 -1.9281926451587692 4.722327949942622 -1.5216575266057277
Ni 1.2797962038812964 3.324762145214907 8.147833552561108 -0.6211109037535304 1.317120356588164 -0.17812242746946097
Ni 3.645692977377825 3.1511030477703246 6.906801077010704 0.4905711111590389 -0.7387545571116438 0.3504269627055642
Ni 4.279545493970108 7.111959177543901 6.099356889245999 0.8373712757452934 0.6103346390736327 -0.8424371203039749
Ni 8.604293925262352 7.323923686901859 0.3698495037805516 0.03683825187427204 0.7029786850636152 -0.6920239858243243
P 0.2675219352857915 5.844746173912932 8.060911064923138 1.2703525043050057 0.3580014326187125 0.09322305842190397
P 9.058045401921293 1.6318251261632324 7.844923758381605 -0.06607143770777654 0.6664559075472329 0.8465426578319162
P 1.7703861154512202 3.2468848008705633 10.407697957257458 1.1835242936658519 1.1347419820558262 0.02811141352423546
P 4.176765987218712 6.534981632684085 3.9235484444549957 -1.1550871213710816 -0.9423558455784996 -1.53503086258884
P 7.0379269530443365 4.191435757242625 10.372371146475025 -0.14190252590547817 1.9064801931823423 -0.3677934790084698
P 6.553223172800778 8.169239571640103 10.110401855818163 -0.12612572268719568 -0.04522210506259308 0.009969452507886056
P 2.7174063312496677 8.556658175147431 5.5830201645353466 -1.3866578984676698 0.9847188839257429 0.6355507333279442
P 7.116159652066277 4.257322159132639 1.3817520167133386 -0.3442295756456007 -0.8632360593271973 -0.08225550366680673
Ni 3.0601686969388577 1.692472324473277 0.16402534101831828 -1.0129290278113718 -0.4473176997870425 2.16581348510418
Ni 1.794085538949481 1.455031618229069 6.551774419115186 0.3490578502721795 -0.38986100033147053 0.8819770873801263
Ni 7.278766307871724 1.072615315183311 9.021811069962224 -0.917824950316671 -0.30477496919440417 -0.27799050201170833
Ni 3.0442232947389516 2.01774941769297 9.139219344274736 0.67524779480725 -1.234992893858789 -0.14931964430515576
Ni 6.8524682579718235 1.8170651414341463 2.045330407669608 0.6489160988912566 1.0442157537397951 0.859868171296229
Ni 4.5197743676847 7.046792596667484 10.468521921740463 -0.5510596554623993 0.3845856108651441 -0.8399935438594888
Ni 7.231968830329598 6.531100066205708 11.591732453686996 0.7801922554311402 -0.45078431817940434 -0.015565458538424804
Ni 7.7944315033583 4.173285333709932 7.716993340948835 1.476272156492393 -0.27777607200805715 2.6087266280656234
Ni 3.4426578932518153 8.529004291903593 12.341846997965078 -1.8747952033742359 0.21005604295326402 -0.009368328588777413
Ni 0.2252766422802792 5.188032506395182 10.157410723835167 0.46686065491597656 -0.4324181569673907 0.6900331806465407
Ni 8.770499686135778 2.6481303924348736 5.563349916381542 1.4916262703509602 0.16621153496448793 -0.6803182673516219
Ni 3.877274887270867 2.4409403920784887 11.511530725284828 0.2488377917071521 2.4454590062208075 -1.755381859710209
Ni 1.3002427653307764 3.6325266309899025 12.637635119939185 0.2875066690322597 0.6525647513874374 -0.9110578067961665
Ni 3.2918417234158994 8.885844169820702 7.766842312889102 0.1803214920033088 -0.24686986934750388 0.5619169098918775
Ni 5.797593341693209 7.877557162941014 3.316021331311838 0.8721032799098399 0.46293895126406726 0.8693378013495608
Ni 3.434256944207065 8.784540751730095 3.5031902846660206 2.085637232563905 -1.7946680589043413 1.322962674301554
Ni 3.721301518780582 4.6532601632439174 8.963920148318165 -1.470903435981312 -1.52512877298378 1.2724415256235504
Ni 5.395304511677167 4.73641315780183 11.84718053042702 0.08792221503428084 -1.7012172007423476 -2.6777527775263494
Ni 8.305349524818505 8.984268303856924 2.3995160594948115 1.1140062921703717 0.46397664849996223 1.1427625383674578
Ni 4.899156488483277 0.34682160950636653 1.608008162271612 0.039628155914583366 -0.16493832467901917 -1.4240412242121345
Ni 5.952117956497902 5.851315679619294 0.3377436642424998 1.5126694641745044 1.37178612356216 1.5331081916448306
Ni 8.282488373893038 0.04482389233269719 11.077009403678975 0.17049704971371926 0.5373747017761391 0.3431494552075445
Ni 0.1917411835392758 5.235404018416504 5.900412939741566 -0.57109163441261 -0.8481190011801006 -0.4407526449750151
Ni 7.384333982093505 6.30057510868706 2.3813793034497177 -0.1685008452192969 -0.08478341229498301 0.526129724989939
P 8.927329550515658 1.7363085130354199 3.40950603532945 -0.6274270757795453 0.9451143821602435 -0.42883609604308726
P 2.1730120768280594 3.654540397684173 1.4049566771604827 -2.3427202949989847 -1.1293951159216162 1.0187929427913165
P 4.998500900017894 1.528735823026237 7.814904488617141 -0.09465130622799828 -0.2989650473808464 1.2202111075639241
P 8.869397626408798 1.9062591655112235 12.14855683249781 -0.5306618085323377 0.4077486792451687 1.085184482842673
P 6.894445668220377 8.057676426191156 1.2644303031556265 -3.773305490977224 0.30245017771596944 -0.9949798995321187
P 1.8075981283566018 3.5540296938743623 5.832986667581961 0.37923488807619204 0.22897062046957986 -1.0130192735323327
P 7.056952095783425 4.070852069977732 5.801154177795907 0.006264749962789211 2.0907874093062766 -1.8447768026352747
P 2.7300897597423934 8.884550314327909 10.09875988988055 0.761374865614321 -0.136273609754475 0.27202939933226694
