# total energy = -381166.0045048399 ev
CRYSTAL
PRIMVEC
9.28395666537736 0.00000000000000 0.00000000000000

0.00000000000000 9.28395666537736 0.00000000000000

0.00000000000000 0.00000000000000 13.58800901649939

PRIMCOORD
 96 1
Ni 4.6574545464280845 3.7423256818705943 12.635557475843713 0.08387195622430717 0.05791307026670026 -0.10345553478318958
Ni 5.504717689831127 1.6299935059928705 3.8892006570251416 1.3234918073321464 1.4526799709947495 -0.23928125836696854
Ni 2.172417941583825 1.71310348352702 0.9044978061041447 1.2046955284268284 -0.7957607992933585 -0.3420009434253981
Ni 8.701629502155672 8.41885875866426 3.2161862341697933 0.36671207301883296 0.4175353263182874 1.0749206390228196
Ni 7.639052842334848 6.043660641778726 7.302535418555154 0.5971302245682167 0.6650484856767449 2.215013600977914
Ni 3.6928050585275254 2.558621243130193 9.809672481567427 1.0564891717905096 -1.273939964545948 -0.9813836489049228
Ni 3.9394240758663486 5.502081046218559 3.3200941307915213 0.6511588721788463 -0.27585108707120237 -0.2575294059438791
Ni 6.724211780425208 5.196276806942715 12.482066753371155 0.07886524703833514 -0.03143379302924909 -0.1860069724238603
Ni 7.886590971355517 3.7417315086621286 2.5934212252335227 0.7874188550865664 0.2963903446751347 0.8260579076150031
Ni 3.817859950996805 4.067737637025808 7.498732340386188 -0.6958227907451242 -0.5086493088169884 0.511553626947977
Ni 5.559641575788682 3.9145152208926977 3.8515347175866026 1.2579659577151947 0.3871973374563783 0.3331733178314391
Ni 2.536098364946788 3.550927637093558 11.570719244248165 -0.6655333957329634 0.20769679869246807 -1.0921156627448676
Ni 4.425838402603022 8.360035611026149 6.879296558208603 2.4815084436451973 -0.7460361783747216 -0.02684591654825054
Ni 1.1355671248982915 5.345794924479298 10.975347477013445 -1.4294415692920994 -1.3074167561471548 0.6517096024759937
Ni 3.571584440044126 7.5312753926929865 2.4892004592817116 0.5175687227938055 1.129199197860726 -0.7157485831347737
Ni 6.818573913094678 1.3450503167080046 1.8323289797838678 -0.28443960007116176 0.887510872714162 -0.26975937235116765
Ni 7.07464399803066 1.9411267362321414 12.74246780395947 0.93105173341959 0.5039665586293385 0.3492825646884759
Ni 0.19032667621052132 6.197616490466037 5.002493713771073 -2.6353737983395065 -1.0724662639450562 1.1767466086223863
Ni 5.179862772058849 6.7948812564071055 0.15912144201840966 0.4030296765029446 0.39803453728119836 0.4944696748824967
Ni 9.107570494970764 3.761441348061704 4.61035703570079 1.090737037229786 -0.40733087498145976 -0.9743750787975736
Ni 2.4916467817884422 3.788290549919251 0.1276720397734441 0.8194990234505629 0.9488460812885335 0.8036129483479257
Ni 3.852154885872939 0.7300420533291271 2.4183527313372744 -0.29413600142331925 0.6834169608816036 0.07319879278117715
Ni 3.692870046222201 9.205488382934645 0.28450034456543116 -2.060980096136857 -2.6517823216045167 -1.0602123862783677
Ni 1.072046295330748 2.244842085321973 10.10988592230986 -0.2329146927189924 -0.20046582816166764 1.029083526084047
P 8.32458018160223 3.564092287243628 0.46941818778763755 -0.4436780461519262 -0.42954546340528604 -0.2685008173537183
Ni 5.2848457508296445 7.020889890577273 11.139245514590536 -0.4727909043574826 0.893823445195751 0.463316389208144
P 8.626141652811373 1.170688331892448 11.061155372272284 0.11585493688880692 0.9121813788776485 0.9929258452165675
Ni 1.7917850138668232 8.96093968786907 2.0730814650847305 -1.9596174393269543 -0.23930671228826525 -2.0829586572904772
P 5.450555088296919 6.219888701827121 7.746659467179275 0.39016721871797966 0.2338760281909972 1.2614346329900856
P 7.773410259099171 6.191182708693119 3.6075207784086465 -0.7980351971498321 0.14367093065981063 -0.45605687943225326
P 4.179832126385429 5.0489961228942635 0.7658911225036541 -0.5588786372861858 -0.11330748787660484 1.160623992028911
Ni 0.4835075199933821 5.065827935815332 13.281042182838693 -0.7947732385691086 0.1728285260603733 -0.09088309743481766
Ni 1.8346490404837992 4.753738458068686 3.4818317917184567 -0.4678955239383942 0.11893563269665969 2.180168211163955
Ni 1.8329036566839307 0.544297937988898 4.149166290059127 0.4646986142676513 -1.8179483695885208 -1.0146802061745233
Ni 2.375922265483351 9.031674151545642 6.501658634820525 -2.241645087522514 -0.6557680888160835 0.4272666946734383
Ni 7.613633369760172 1.9409503410608782 6.763444851701075 -0.2795851001923378 0.19527322821713466 -0.9658852961590075
Ni 4.441834659449686 5.759840811216116 5.898853203710512 0.7605603401328257 1.696075508640408 -0.22588941044109487
Ni 7.626593772869832 1.5705483332771468 9.172816283634134 0.6747505434558572 0.030608211804160186 1.3286988054543827
Ni 0.0842240523000229 8.619884266209718 5.509394018660879 0.09606824118018294 -0.5264660252834353 0.5809654418828962
Ni 3.284060310884987 1.8150320406480465 5.73722416507325 -0.19750700264365983 -1.5355337703671876 0.3683339248929721
Ni 8.751252249018947 3.752027416290074 9.024679618807236 -1.7188763085850074 -2.1510306703680504 0.09449704003832111
Ni 3.5294445620249677 3.921970237867667 5.1119311348140855 -1.0324187611048672 0.13484073396269036 -1.157409341746355
Ni 1.438818276169009 3.2412427040499225 6.736717269672136 1.581246184802638 3.1785471090752937 1.0716327123001672
Ni 0.7068126660650301 1.5711517904419945 5.699775470214056 -2.0219841744896336 -0.6039410768424631 -1.234718814261796
Ni 7.1514687370940075 7.5428432023453045 5.679026756095303 -0.14016651705097796 -0.036291121121550404 -0.7699788052332481
Ni 6.607995214431856 5.62974473043126 9.76568788141511 0.7564789709746005 -0.31985911722103627 0.2112014694116169
Ni 5.687927285078994 1.0997867570009934 10.984818040919004 -0.8295764622912228 0.9286305255726072 -1.1028070810204427
Ni 2.24902914965038 6.942960360704434 10.135132713295826 1.5595005655954304 1.7771909851655008 -0.2937457079634361
Ni 1.9906844954007397 5.971022967043787 1.4141721571609764 1.8411260932565647 -0.5860482557224422 -0.0853606249546917
Ni 1.9138040525990982 5.685077110469634 6.410605304205698 1.0743984479707627 0.07822607079243947 -1.105655091992199
Ni 2.184793455441401 4.270220725723284 9.217955807960406 -0.4688853986554893 -0.18826902898515963 -0.5310726708175112
Ni 0.05938854058179194 7.000168099932028 1.30296614242714 -0.01642292144271365 1.328175843071377 1.0886601000960991
Ni 5.6976940071931494 1.2247116740809216 8.218068135215272 -1.9160472680454872 -0.3705844114900456 -0.7819719730393823
Ni 1.3878029358483932 7.203904522741112 3.599272911558631 1.90746723968596 0.7251655055732994 -0.8454818206675696
Ni 4.134424295719708 4.994907793011113 10.284573773994437 0.9355048840949372 -0.05570089310672988 -0.035214600227919994
Ni 0.8481172673902108 8.830648644000187 11.103658252985989 -1.3244454294946675 0.19860152125941927 1.095423386961862
P 8.467385998674425 6.153694092821481 11.487981553364946 -0.42733071514215437 -0.7719138174724319 -0.04376326112887947
Ni 7.3959153086393785 8.73507959700102 10.7368370671789 0.5118709010780798 -0.5100456749438829 1.0381767466345668
P 8.591382520116126 4.120888287314348 6.53248972557043 -0.42027535095726976 -0.18565575973202866 2.01276239878105
Ni 7.381367348988349 6.070844066066035 1.1890649951555283 -1.0316865109245328 -1.671513760140644 0.9189441515227788
P 5.788574656219266 3.358090579077269 10.878573372475858 0.6725031421825772 0.5951057379390202 -0.9251381961486325
P 0.7996225212273834 7.519085557963056 7.714360582925331 0.651478203191478 -0.04491100158007749 -0.8992474444247996
P 2.9978359356193667 1.492293864930928 7.823092423283291 0.15855221864701724 0.4257767403914732 1.412429351004819
Ni 0.4243213696607238 5.277762092109967 8.093384601001285 1.5401039062363735 2.729562820219105 -1.0474201196097057
Ni 1.4241032053030989 7.775675544456447 13.272889012343779 0.4374279514771563 0.2482343537951983 -0.20363856946269446
Ni 3.970850268220359 3.003044235149824 2.3623156990094847 -1.2950019274225697 0.9606399885996681 -0.15944439144398345
Ni 7.79908968245255 7.5961888157178725 12.920172013072646 0.24290625671406557 -0.7604847496998839 -0.4280747923970305
Ni 3.1747138726145208 6.162012517740002 12.396924517784925 -0.1722762531013291 -0.5672835735204295 0.06914493442677769
Ni 4.872888754278838 1.7550483984621503 0.2536748241893547 0.35981740278152874 1.0066380525963372 0.29068480964992516
Ni 3.064986792132381 1.0961103102736116 11.87711487154556 -0.009642922406402746 1.2932607763617467 -0.4004218065664523
Ni 5.589248112691765 7.307847698397093 3.7111705810429467 1.5428616714871688 -0.35995572813160587 -0.07637847606073943
Ni 5.300600624810369 2.7037294813851926 6.165708460775787 1.4030648790707836 -0.06848056136990141 -0.4296436795460471
Ni 0.3652763354650762 1.667732788686829 7.9363483355863345 0.5857330384748686 -0.9397461758697945 1.039608593985087
Ni 0.09427114989692378 1.6655696268497584 1.7193311614682518 -1.9154155479987591 -0.8486625323883964 1.3912691719874362
Ni 6.734219885405303 4.876026731536047 5.6374606265805705 -0.07774733138380804 -0.5898159502949907 -1.5622357051384061
Ni 6.6810228153348525 8.068825751183246 8.73025472486915 -1.9885171530804402 -1.4436782817167717 -0.43389191329943977
Ni 7.972764654495818 1.730687296915054 3.9675628192653942 0.042226769879695016 -1.2539928320000597 0.6373695317042377
Ni 4.3120263813126805 9.230991411116763 4.4377896396539285 -1.0253330579026794 -2.6426142819520035 2.4374944999580923
Ni 6.071651770271293 3.956172333179978 8.02786307883336 0.92691688531561 -0.11277424108095416 0.6828670019154046
Ni 0.476642962644326 2.174024066037959 12.78271561166792 0.6309466588970295 1.5734259174272707 -0.6416761294993917
Ni 8.462242686838644 3.749919958191297 11.282924951958302 -0.7354689443818366 -0.07774758849412416 0.6817503718124581
Ni 9.131950164430625 7.111204218264069 9.670599743356545 -1.0318037532286874 0.37096673453012885 -0.575468680434383
Ni 8.368205492642552 8.922104898322003 7.713600226897623 1.1410460698969833 0.378203104377568 -0.7291661420922604
Ni 5.766599531462415 8.843739022499197 12.757740840603956 0.5673254825019585 0.765025832103347 0.08427227698651939
Ni 7.343971572680536 8.392371631105622 1.5319391438701684 0.11111202288718283 -0.30396867124302485 -1.075023483149271
Ni 8.92074944069019 0.2841670505313074 0.01737213918251795 -0.3282465699537831 -1.7497699128400703 -0.15268573256391121
Ni 6.007583187277196 3.981888892358887 1.503105960533729 -1.37552116512456 -0.15486011450741072 -2.1123612788223105
Ni 2.2373406485650924 0.16606862657926802 9.464237817682553 0.5806522815178516 0.4393171980800692 -1.3434597658136411
P 5.357613400953937 8.750964446371096 1.5876911587370224 -0.7474322873913 -0.37078007244061945 0.047257647435383125
Ni 4.445093328139866 8.591772446284182 9.290732742041081 -0.19879204000367054 -0.07778435526933056 0.7707604205942791
P 2.2593157733219438 2.54067535544325 3.952779047122255 -0.3353878089842547 1.7043858282783162 -1.1884782952370176
Ni 3.1856132374073147 6.494276032705337 8.102719619143665 1.321433125030905 0.2781085156468114 0.24664386937962682
P 3.1451908913188777 7.281230595449103 5.002955126403271 0.08672330963017322 0.27271819786917545 -0.6357109130548922
P 6.593020192787242 0.20959738447321505 5.2149143493801375 -0.07514357521237382 1.5796166196190151 -0.07744625520362147
P 2.932337623342398 8.318304227087811 11.757500377516296 0.7738639992202673 -1.1483706285828543 -0.12459437364433382
Ni 0.9968833844598279 3.68915646366929 1.852575431862339 -0.924689281536672 0.15247155967057613 -1.0630516554993756
