# total energy = -340863.47559134307 ev
CRYSTAL
PRIMVEC
9.35109859727797 0.00000000000000 0.00000000000000

0.00000000000000 9.35109859727797 0.00000000000000

0.00000000000000 0.00000000000000 13.68627802065063

PRIMCOORD
 96 1
Ni 7.8742887693961725 6.909423735683058 13.488907991446975 0.5205532593434261 0.11990570991941285 0.1796576331670648
Ni 5.274141054250109 7.719958241625813 9.657037337273971 -0.0551902720188985 -0.20845527412504744 0.6965133890542455
Ni 5.555347284928141 2.9459326312810825 9.93803036290879 0.2862918227885521 -0.1381782829763556 2.7561135741244405
Ni 2.7580690646968287 8.618720360844947 9.552474290226263 -0.04217869025057897 0.4434530746253137 -0.9773976676739812
Ni 4.19248080168994 5.6391798819628765 2.900916443648599 0.02186594683515589 2.7323676366577527 -0.6023984149456916
Ni 0.11897963543013491 4.604508898794737 9.308872566599595 -2.205853274634885 -1.524140955149214 -1.1945638393094653
Ni 0.6191820445505076 1.6809534459524862 6.343713141926083 -0.5033176121914299 -0.04598340870864984 -1.5371972741125397
Ni 5.606123749166693 4.6427922955889604 8.150903610766447 -1.8431932601982386 1.584818989755561 0.39197161891657006
Ni 4.668601327135627 5.5796601407329725 5.473415766195376 -0.17348570002839797 -0.39203923892971193 -0.3504197636167126
Ni 3.4768225399763457 5.572609412549571 13.446671885364792 -0.33500625727511985 -1.1626528495334816 -0.2704047192446504
Ni 1.8425030216772031 9.313927770387322 11.900710895719438 0.8851133190162627 -0.36141868583037756 -0.7996043414091648
Ni 4.1383753464258035 3.7332483599302235 3.79089320593364 0.1089803212561607 -3.394440841756257 1.1196105257310267
Ni 7.077285302818644 4.833910044411707 10.206979173821836 0.19224035492808184 0.0276918094883136 0.2717982571580674
Ni 7.331850254193614 8.837162019152967 11.870067346306964 -1.9782383968622512 -1.695761319834099 -0.27885387845326814
Ni 0.9416930119114328 3.747218900919615 7.147138007765602 0.8530897149218146 0.07615041921033337 1.946754210211041
Ni 2.5917130244014643 6.350620798304171 6.465739365210531 -0.26869030765670504 0.9969372803688056 0.2073532993101203
Ni 4.106067301500538 8.32572239510157 7.3709500018769765 -0.26157092300310436 -0.25907129650970223 -0.08164795198979487
Ni 5.881326574680609 0.20782722652953609 0.6797631354472767 0.3914023766766614 -1.820723875451129 0.06691964464068476
Ni 0.78774494406508 2.1510705662340572 13.927703607683055 -0.7766014527560884 -0.9911209307973448 0.07066368506414926
Ni 0.8525733038489851 7.6850318891523335 4.3819359252195715 -1.2948597454177506 -1.0444121860213174 0.29118900297985334
Ni 9.164169929727947 4.5152339624990745 12.735970640905867 -0.7785012408819625 -0.746150849575715 0.2597279562570946
Ni 5.023138871360385 7.944945668804366 2.6614881152318137 1.3808402633446284 -0.2567051102703708 0.02572311579771699
Ni 2.3295549811366785 8.731597469468067 2.916053066606784 1.5749549524772875 1.1377691989179244 0.3478682008394525
Ni 5.54296643066445 6.880369872996285 0.4036738258063223 -0.8729615141450772 0.20069979854934467 -0.29131832946886604
P 7.888455683451679 7.141237464683737 4.054409028684142 0.31424382791678784 0.26774902678935825 0.932295118908388
P 3.660693187549575 1.9070910582325762 2.3928815545197155 -1.9354570400306668 1.4346750497768967 -2.498998887120477
P 3.892974471469578 6.2250636002689905 8.268879873339712 1.4826194388666596 0.9960726183756653 -0.9785225253070438
P 2.2229244062357205 6.28867912259217 3.392403629072778 -0.8014694196423616 0.8023636493218569 -0.0556147611508268
P 8.116089471473606 8.734412150082395 1.1568458889169322 -1.1401721519324621 0.9594590809176896 0.22169054186839884
P 0.24932553094902843 3.2316086869878498 2.9283020703832254 -1.812156959717724 -0.4650040613232121 -1.6040845228533922
P 1.1568056791938703 9.430208678823119 7.737098804968219 -0.04079800785296845 -1.7583759093415263 -0.3961589175250403
P 5.587365445803426 8.22964921027894 5.134899458836163 0.26339486358572056 0.2779326521905794 0.47254484978494754
Ni 8.578650904258906 9.190596133768123 6.19353356672948 0.4867766771136133 -0.15984754041967308 -0.4812963707253323
Ni 9.204024311051098 5.246985464535789 3.372065925192037 1.1122486860493168 0.9535769111052997 0.7408343224588079
Ni 4.520479928693886 0.6572335341047459 3.548441667408508 1.3751408989670058 -1.6221202973091806 2.4123269995535295
Ni 3.2872290201905945 7.253796635961719 1.3857766742850617 -1.2781406328908569 0.26804161832911255 -1.3188584223251931
Ni 6.884250578826671 0.1731524186026535 3.1287653069334134 1.0476777441464666 -0.4287869879727067 0.1571550811891745
Ni 2.5205137612868547 0.6172725502599898 0.763709815882327 0.43991138002064234 -1.1064125389835138 1.120866766735631
Ni 7.7669194577226826 4.55464884219806 7.625446690233724 1.0038437776806517 0.39672893109589735 -0.08165257997548518
Ni 6.481321100451911 8.77473408632487 7.83173940151804 0.858381045227741 2.2487603584110563 0.05433615154871932
Ni 1.2085546576646151 6.610852515301344 13.344695352130781 0.31145135277331526 0.08312890741069554 -1.3976383087385738
Ni 7.3458581995765515 6.200610477988363 2.101924933554107 -0.8219675395957134 0.9289616836597808 -0.2859354678903979
Ni 1.7338245562296075 4.635479736650738 1.7467384231013274 0.5365167246512179 -0.07115939375364519 0.08890386222125979
Ni 2.1014629892938155 4.653779836193067 5.008466062882169 -0.1404835340707645 -0.44662864413981784 -0.7949303329722631
Ni 5.1184639683120965 0.18223327024575797 11.47892773277787 -0.24525830188600986 0.9004460927185912 -0.507914230423177
Ni 4.065558343290334 3.4289168629424416 0.9389493996448415 -2.6822421807562713 -0.34577969374153994 1.1792511202117948
Ni 6.074754044804815 6.7825854371689305 6.987802772138802 -0.5656537512264904 -0.8076200126247898 -0.5217459940999465
Ni 5.715503546993274 4.390396799039652 13.625948338300747 2.2661957802786845 2.7174588378667197 -0.9848320124648393
Ni 1.1802862872423054 2.6981939817282385 10.803770013285932 0.43225977701265555 0.8389915849575357 1.10530105108689
Ni 2.6144642467757544 1.668058281277539 7.8700480462779066 0.9383240987112872 -0.9545007084711497 0.10229236771302383
Ni 6.030149305501336 2.2975835757533254 2.1476237513688035 -0.9372717461873729 -0.5049124674823756 -0.3331080118111424
Ni 4.509511090286552 1.0585349862504199 5.958745253332062 -0.19410594738191086 -0.17186384815425884 -0.3215223638560721
Ni 3.2901465628871738 3.862181304482921 7.343742046011693 0.903125182212651 1.8216206762337854 0.7365359521937702
Ni 6.863724917868362 4.942981255991534 4.161436090156686 -0.5437314972321023 0.7369270169846018 0.26382166671049406
Ni 7.360483317452996 0.6417443747373911 9.932884453466714 -0.1284973082431658 1.0328177963154987 -0.8023628779909086
Ni 5.540563198379127 2.1863990159381546 13.358108567656338 -0.41813927845087345 -0.5630867618302625 -1.2933340528018435
P 6.907170120971918 3.33229196331501 11.99342236067213 -0.7313778050315985 1.061584841145862 -0.3649344122931199
P 4.841793020351504 0.5272654229606659 9.246024769453944 0.07970882598555305 -0.2636198351123331 -0.8455126739055051
P 2.842079332600907 4.166746578930365 9.920922528410738 -0.727095889826793 -1.994032169361398 -0.3091507296645966
P 1.9453089973380933 3.514236284620626 13.086394636950416 2.2508889747182845 2.543341417791594 -1.2575885197711183
P 8.296238381889019 1.4845149221478362 4.540860647627205 0.5758723436307049 -1.310182234707434 0.20465158410824108
P 9.154865586833406 1.147894082431561 11.261028438176265 -0.4904718665770134 -0.1483516239649316 -0.6521472042340446
P 5.911960772994697 6.885344657337889 11.922663534291523 0.8239897122320649 0.04593250086605638 -1.2246048657562458
P 9.238389597621389 5.57491913385103 1.0109397656829469 -0.5870080485325503 0.2816466107070569 -0.18881513129661673
Ni 3.2817866809296667 1.7315709415184675 12.557446951390022 -0.7079820518154775 -1.1043582275576465 1.0308437033082634
Ni 9.292672723754867 8.45575876926387 9.303479788160114 -0.8409101421364872 0.06478537190650131 -0.928164384569466
Ni 8.37262750460812 7.053318437654113 6.719524434980069 0.7146098415446402 -1.639296294867835 -0.20247360262031583
Ni 1.812523400250169 6.023930825074331 8.732721471494122 0.2690456341135947 0.5211057894127865 0.4736797347203391
Ni 3.366451525720798 7.230287974618125 11.692405828062354 -0.6741599610597099 -0.823498374417943 -1.0918855490119324
Ni 6.4033796954006545 2.5894033031000054 4.453788830111395 -1.133263854848403 -0.8477662458263722 -0.5148528665245391
Ni 3.5840328829772647 7.846759135746393 4.611741973396675 0.21705509997891648 -1.401244023811961 0.6020901396766534
Ni 4.121253485280171 3.592542382508956 11.868028806858712 0.12568657826724805 1.8791714780650604 -0.6104253990152261
Ni 1.2354390655257266 5.225580800329151 10.988068941165261 2.256279806716553 1.3344274804080436 2.4590884240787845
Ni 0.4011378079239106 0.5754815564610009 2.8747343032763113 -0.10727285164675074 -0.5649446409746077 1.7615437655465467
Ni 7.061360382266479 1.5441001210664456 6.463453956764877 -0.05529748702072412 -0.11726930073783029 0.9620512671248981
Ni 4.407397095906261 5.504926162428276 10.263340114016788 1.220030873232318 0.018595503614000235 0.7031398932318278
Ni 5.320428991263153 2.354036156712466 7.840334931154886 -0.8471856907325539 -1.4527547900967432 -1.1584969183835792
Ni 8.564109946267939 6.6805088471821845 11.189448585357324 0.1502249297282445 0.3063759951329369 -0.7657169446331006
Ni 0.7351281836640706 7.923802835352549 1.5016040544491165 -0.7816786101686796 -0.256387579029952 -0.06681705762454944
Ni 2.1459929198102023 9.146094256546894 5.8430964791471895 -0.16542580583839897 0.5867131429999508 0.4233164517764387
Ni 0.3427906944316702 1.6683294631307468 8.824843817248466 -1.854095508933039 0.9852886403862838 0.8282880824971025
Ni 8.304972307781984 3.4646941653690897 5.6683768164549635 -0.3754502242227792 -0.730539111180387 -1.5029211265384892
Ni -0.18591386257067397 9.150919423314315 12.898590917395836 1.8005358305390282 -0.7925512912171253 2.5402193272228444
Ni 3.2763069372751934 1.7355451583327188 10.225004351071602 0.8624091925505276 0.36694295808271643 -0.5251565624433924
Ni 7.813628194163118 3.8276102937481284 1.5961343080379777 0.277365981053832 1.5900951505528358 -0.6781778239698515
Ni 8.405926765962352 1.6916604536049984 1.61790927574072 -1.560721582486725 -0.8862543745992414 0.4450386739448788
Ni 7.761009563542431 1.69770126316266 13.091554573040073 0.7074837720228202 0.1622335241533464 -1.099509126995461
Ni 1.8908575514336579 2.391459252455133 3.6850303562102114 2.0010823913399602 -1.2899072865084817 0.8215227387488109
P 4.061210082540624 8.590769927767775 13.033647896281835 -0.5740556021369404 1.536806209321708 3.1552760543624947
P 8.198285626290708 6.491850437235081 8.836121241902552 -0.37307940999775746 -0.6479120831067745 0.728403552894623
P 1.2577975417677847 7.490968544337848 10.623029178342653 0.5879241325889164 -1.2511167960038454 1.7987507136141474
P 2.5962763604140635 2.4982020405367287 5.801804834002039 0.7938594685055876 -0.3577466362954291 -0.2934351187015527
P 7.423434911790737 2.676770615324828 8.829688621322498 0.5847002263349801 0.10575744344348884 -0.33497000472054567
P 0.12273877698149728 5.148808282576204 5.969255887918458 -0.14250544959679973 3.0970426246418983 -0.7927940033555508
P 5.772592002642695 4.474547333419528 2.2072818888548276 1.0426568938931076 -0.2853639116576441 -0.23039346895903545
P 5.820815617021739 3.8286015101770943 6.1446600510125755 0.4753784625790007 0.1390977094668314 -0.47666452838027595
