# total energy = -381164.7166752132 ev
CRYSTAL
PRIMVEC
9.24225184816051 0.00000000000000 0.00000000000000

0.00000000000000 9.24225184816051 0.00000000000000

0.00000000000000 0.00000000000000 13.52696980092483

PRIMCOORD
 96 1
Ni 7.343653082236732 1.1056598402176039 5.981883047334623 -1.7123153675380383 0.6137518922852978 0.4313061548501347
Ni 5.467688512954116 2.422070751114898 10.41605119325814 -0.20509895605830483 -0.7056971124360427 0.17608662798635483
Ni 1.6224033876794361 3.3833388894849907 12.647973701687873 0.952585750836624 -0.5687473025501496 -0.23659317001184413
Ni 4.144530758150486 2.352559774375787 12.294541669992263 -0.8810728303983019 0.020242038078487717 0.5745284280083008
Ni 0.21597201879296293 4.2514451284360915 9.128824541269113 -0.363135154300852 1.1268083290310467 -0.08745478847955906
Ni 3.403523967692439 5.603965517610172 0.7617981603918729 1.1220463888660288 -0.20165573470471077 -0.4594563920321055
Ni 4.988912136406293 6.484188348836897 7.615210776791168 0.3944231657808562 -0.25971664340318495 -1.7331639288522733
Ni 0.41197153117278673 8.199310007842854 1.7455471523479533 1.0228020639507094 1.657835491322603 0.7232508050490899
Ni 3.045987451916277 3.1372731741941924 0.857412029246962 0.6024117846821302 1.5472988813229158 1.2301651334528427
Ni 8.801784684174782 8.25872844547824 8.584079743145603 -0.7810052382507388 -0.3972377524115158 0.4287993292678809
Ni 4.890241854839115 1.965124573617439 5.332479912620763 -0.8786932744225319 0.05064173341626762 0.7146412090032079
Ni 6.61818251726711 5.881584280977997 10.082299612814793 0.41408593431710616 -0.5285594174773542 0.10392270422759523
Ni 5.822738862962053 4.0983934365334616 8.244173747144409 0.7144460622732663 0.6323288839565367 -1.0262825663001423
Ni 8.727282891395369 4.595552652163067 2.636230364305077 0.5196788271582727 0.5952641178937554 0.13362820171182793
Ni 4.749759625556508 8.879197786311039 0.4114188445075828 -0.6891273810028197 -0.3302276049395539 0.4786666464119691
Ni 6.117233978347645 3.3752888880570207 3.957991614842615 -0.44302627150054025 0.8544107477260833 -2.0988318768773078
Ni 0.3545346323504387 8.893976147141494 10.959970658284616 0.8199870188305748 0.6624228751284398 0.23175049720756216
Ni 6.524549262999867 5.607847263419297 2.618267123460756 -0.06680625899127206 -2.0575379032245276 -0.8086533389853104
Ni 6.276246922742859 1.9087098678581604 8.248881750275762 0.3521292901086516 -1.542642356387511 -0.5515306815615468
Ni 6.325480398755257 0.833695486578403 3.7524494773486925 1.7995464700425654 0.7318688857354041 -1.3482137355588586
Ni 1.614889436863202 3.611058734701712 3.457696503134352 -1.1616138667460059 0.9731617752157626 -2.6487381354615547
Ni 2.5828489656280715 7.942301466271094 10.558259875200614 0.1509908613599916 -1.7843995870987976 -1.3449479203233934
Ni 4.431105263635078 2.1353391273475557 2.795646270884286 2.739581380797372 1.0159480171433537 -1.198118132319627
Ni 6.657194062648814 0.9404638292835698 12.937261732338081 -0.8092660328686451 1.259297532042425 -0.19393651168358214
P 4.647235324935984 4.49266790371741 12.690745919378463 -0.7810533178798549 -0.3098806658520856 0.4328950966038093
Ni 5.418833969270704 5.305385326873072 5.655450406191862 -1.5086775694062922 0.39714776380087086 -0.0888706949904792
P 3.331720912475559 2.9007731896473086 6.70866046672665 1.8530976637961438 0.1252839435121907 -0.41800789507933167
Ni 6.612156569011041 7.478885712425094 3.7202688803658566 0.5824944769329129 1.1173268719031724 1.7889977479924413
P 4.688326377001147 7.080738741683947 11.752934616397795 -0.1555820802750998 0.3600156348352639 0.7566715466013806
P 6.543708451243475 3.376351747028566 6.01142590561764 0.7274260194727021 -0.8050404248230716 2.091664155484275
P 7.199205926877662 3.60924725332412 10.070855856479417 1.737406249068395 -0.19929366223043743 -3.4829055595575693
Ni 9.064689782475641 6.658164499101094 10.412087191406869 0.2841529220686784 -0.42590400999795686 -0.05399265216637153
Ni 4.532871699597631 8.89340312752205 3.985478072071988 -2.1899103781523834 -0.18453167342991444 1.072390159291482
Ni 8.670516980062883 2.0572698253245174 12.57529355676317 0.8316333448202516 0.4562993344603626 0.012332039202791665
Ni 3.2640399016178927 7.501168781819855 5.722746939369387 -0.2068195382938374 0.010743611669749239 0.2924665841406963
Ni 3.8068003882527868 2.485315481047851 8.714534129087971 2.4875160832918577 -0.4202113304885537 -0.31610222128176524
Ni 5.702783675208174 3.3974702926805898 0.9835151629823402 -0.4179798700548737 0.8913875820607488 -0.5959927685296639
Ni 7.384642469530703 5.838413722229375 7.7475857026838595 0.3847653309761179 0.694600745412565 -0.19862491829818696
Ni 0.1507106294896507 4.598593353046882 11.601567787021363 -1.951079577059272 0.19609572411843001 -0.7676108192217037
Ni 4.734740966175966 0.14639911896594435 9.477008822320864 -0.07757635302358253 2.0895476233619044 -1.0227760958087806
Ni 0.14241016303447243 0.23523287180776248 6.134372810320122 1.1498515840037553 -0.2786034530053589 -0.44363870827355856
Ni 5.7271832202940995 6.656815130319827 0.5550360456436545 0.0522926387561293 -2.7349094292429994 -4.111952944549357
Ni 8.49479404418458 3.0778732210626583 4.6540487130561905 1.2560116622023014 -2.291670784621337 -0.7533357973599284
Ni 1.023727276889294 5.230597024283937 4.976302007877794 -0.7624195048287514 -0.3112207248197479 0.8045370028240919
Ni 0.5102397747811631 6.304408064362866 7.46608889040768 0.4005076814120393 -0.3130657484482866 0.19128570432429637
Ni 8.675424615835848 1.8026642692536448 8.144602346014397 -0.277837778483928 -1.4710664439217376 0.5408181802400492
Ni 7.4709188912644615 5.021999398303119 4.903512804380358 2.1761269512150463 2.614934556648548 -0.2610615874668536
Ni 7.567999505500285 6.116050970101054 12.44956011310485 -0.004478347486327771 -0.16944649696201783 -0.8153631469053182
Ni 4.88446544738506 7.273948018207164 2.379109991485007 -3.032051050261862 0.3888608412017303 0.5136632170918121
Ni 8.02951135544943 4.174309293857628 0.33229038041376907 -0.5108396316000879 0.37446754859453574 0.4642137042114328
Ni 7.7031212286655295 2.510241834493587 2.2134722009088867 -1.2873012163442024 0.6618590322051698 1.0085594379887661
Ni 8.26146415204848 6.677739588681394 1.1074611551180764 0.313334428728641 -3.166475008402108 -0.23816411404338983
Ni 3.291886806672399 4.34806363007559 4.91533549304472 0.48855768027343605 -1.4826037551373756 3.0322680513686744
Ni 1.5886137146361987 6.356959508816872 1.9542408977488075 0.56394165363139 -0.17761926258079733 2.3118721992698763
Ni 2.912852812915227 0.9823589572663367 1.427920528840749 0.8377451141449442 -1.162993520702352 0.21786859701914738
Ni 0.5312769886162335 2.956448515252468 1.202477050273522 1.197388967463086 -1.3643895739877727 0.5914596565460007
P 2.1357088174246153 5.526848167535562 9.208119365897604 0.06149821651479732 0.06724720318343258 0.3099788819928468
Ni 3.0268837171842278 7.917347386069579 8.085435297631411 -1.299761296484426 0.5172478491192769 0.08256069361205137
P 0.6109498213485174 7.319521562456673 12.926940909611774 -0.6682790767989008 -0.6416748439478109 -0.1851022012214038
Ni 7.81765121453856 1.1191904970379813 10.554093468032153 -1.342681749997036 1.3424608922354817 -0.5066186515402049
P 0.9145855238894053 7.3171278192077125 5.5278906935528695 0.5856412500920107 0.6710964916430378 0.22454472348774232
P 2.711214602635054 8.255096240471131 2.346564325551075 1.0542415134069134 -0.8498904912582266 -0.21084845694757237
P 1.156279654018975 0.13111243427953434 8.005450076784012 1.9209771012469368 0.9177424179051936 0.5509241583257996
Ni 3.2084939675397037 6.22375093180041 3.691199225381476 -0.3179922392156265 1.3041974778789087 -0.8574518485452524
Ni 0.912623393805412 5.260116776937138 0.29535094791398453 -0.3544445685053896 -0.1802664703956573 -1.6281590473040926
Ni 4.7239090469181235 0.3403939869029131 7.064595300243952 0.3731416306942606 -0.8607616296447756 -0.5177767250395534
Ni 7.943937344862082 7.431639320576891 5.68607553217547 -0.5443290216067851 0.028011397611261434 1.2638740956695138
Ni 2.4279950345997765 5.543308618216635 11.520297893156183 0.5551104284930052 0.10877643277547074 -0.19060950419287817
Ni 4.660285384656184 7.221359604745452 9.571995142270143 0.38310876920930154 -0.8122927355101108 2.452398927873751
Ni 8.584138893557933 3.7436665653429517 6.995391166268799 -0.26654292229639903 0.871775464256776 -1.0821420964719235
Ni 6.870422056844801 8.271898654473485 1.4313290713512374 -0.8577763217642066 2.558013675091788 1.7029259559033383
Ni 6.7200875870085595 3.9698059854802437 11.949062596079397 -1.0474149774033832 -0.1580966191668374 2.543079165269143
Ni 7.047272547458137 8.307573746909727 10.557380937042405 -0.7020358615343715 -1.388951579597853 -0.10996068289155901
Ni 1.7083655728476947 2.283806662294648 7.944389290981288 -1.703517309630434 -0.2074682276214298 0.7526243731152005
Ni 1.5908318550985556 2.962724004310553 5.640408641181504 -2.544751153654927 -0.31945005470807564 0.21040134210782474
Ni 1.2343859250497193 0.400759755360765 0.1765214664447518 -1.3572128537336756 -0.6682829334536426 -0.7778286402949701
Ni 2.651158449616739 0.81447529947208 5.936716162169879 0.11713920291786922 -0.5892770470723852 1.3670087567781748
Ni 7.997357560997179 8.38178902987942 12.75551284820371 0.7577388115236305 0.14114302203163434 -0.017976896193394848
Ni 4.392592799857406 4.735119898504951 9.830238448699284 -1.2249164834593937 0.5252768900713405 0.7014319094017856
Ni 9.145106616488006 6.745281965760164 3.6394989923298984 -0.6174609657057689 -0.5469942271437741 -0.3870602976578818
Ni 8.33437627749654 0.7150600923996264 1.1122523385167673 0.5321898151410899 0.5064425309736569 0.0073852367204776045
Ni 2.5112122709458684 0.8226667073545255 10.005737722080964 -0.564711184807563 1.0525425284379357 -0.17251922235007064
Ni 1.6323572930042631 9.034282773637496 4.069601973332068 -0.09486393645943662 -2.1504804542915354 0.4326711535184613
Ni 2.685142209950433 5.245994615993465 6.898376172021655 0.23962090109457437 0.3863434740965153 1.7829988500965293
Ni 8.516984691060076 8.88254348150843 3.7494050795641076 -1.3747480344039613 1.7422900595232573 0.4826063477860076
Ni 2.66986476751595 1.7349093203805663 3.742235864744732 -1.732681847009532 -0.7314001736291017 1.407920150280556
Ni 2.6333763569101776 7.8505536313968545 12.750440700346452 1.225763147730405 0.07013300937165987 1.5605380057210094
Ni 0.5323500140648988 2.3500643663556353 10.295782693163952 -2.860205199829732 -2.3617564856948294 1.0690806353022748
P 4.012699276671071 4.31749026070277 3.1103911602408116 1.6902861556521407 -0.47288989182919206 -4.192450842095108
Ni 6.545104031284375 8.591283154297107 8.232608917308795 0.04732501033820882 -0.5094203826550582 -0.895402873867729
P 5.798856883984009 1.2541458596685493 1.3802379027016156 0.8997025296843473 -0.29954405981276794 0.6196690291006812
Ni 4.997110013865088 0.04264929573996836 11.669338447722717 -0.6175815504440331 -0.4141460981310803 -0.4515065410574095
P 5.549963039603706 7.662381382173574 5.65941348381794 0.004960686439385005 0.3021218478422732 1.0049084714997405
P 0.3102975177294998 1.3916243570750482 3.1721830081709204 0.16492804026637403 1.874038013493237 -0.5382118529654538
P 1.8866301280057822 1.3997482965184302 12.094274085672788 1.0204482190065525 -0.009850924652150777 -2.3920600217743773
Ni 2.3405078778636477 3.295768552481524 10.253956882070634 2.685888776369923 2.7114892505468466 0.5377678234494997
