# total energy = -340861.8402115269 ev
CRYSTAL
PRIMVEC
9.28583178212177 0.00000000000000 0.00000000000000

0.00000000000000 9.28583178212177 0.00000000000000

0.00000000000000 0.00000000000000 13.59075343939780

PRIMCOORD
 96 1
Ni 5.184456317097497 5.413361356461678 5.444441964033617 -1.9193153972737977 -1.37791203395424 0.24972353674621509
Ni 3.4677753089316785 0.5587229270828434 10.244437916265944 -1.061259339485643 1.7837611821838508 -1.7165947116396822
Ni 5.098775947205269 4.248936622122721 12.506755328778167 1.9341221232693269 1.7409857388895371 1.624360499493609
Ni 6.117143833377449 1.7259204107931905 11.06621638627346 -1.4708067625024475 0.07540839883798625 0.7661411766547127
Ni 7.00845368321763 3.078281094655155 6.552903775946054 -0.8221333757496164 -2.0028813922219117 1.1712986981339377
Ni 5.935800824422717 1.3393326618657797 4.735575494214843 2.3489991860291606 -0.775649116145148 -0.17794810667512578
Ni 7.595958974505302 0.8128120708346601 1.8980165884551208 -0.033844716463586874 0.08730103651051416 -0.41321227346290124
Ni 5.922382797491507 2.0414901182189475 8.735497679656964 0.3041921001077406 -0.4938040162740399 0.5412840641328742
Ni 5.188829943868845 8.59327588001793 10.605028121941238 0.9373735618725599 -1.154739765333992 1.446157853605516
Ni 5.23432123378995 3.8290498804096242 1.5683184879665022 -0.07516748647177376 0.12943601800735127 -0.9324717536955683
Ni 0.6416379762691097 2.1296312335345458 8.061300791395535 -0.1390887106057669 -0.7931413593926405 0.503831575713371
Ni 3.36008751770591 8.276396870310304 0.7537987526663406 1.4016368883750054 -0.8378880674807118 0.36292252406941367
Ni 8.964244859880777 3.1782802171618636 12.90106331825271 1.2041782224707778 -0.5060380964463865 -0.9493754714294423
Ni 6.21449649382506 5.163888199690834 3.0744460461274112 1.4054855726971343 0.7853174924728474 0.18359373499667736
Ni 2.795081796836454 5.834956691223455 0.15373158813815688 -0.9354179808080857 -0.07592801878688214 -0.36577516302686036
Ni 8.348343494990589 2.246019849144081 10.771528657368744 0.3448733798771867 0.03414424998187668 -0.36697612531349705
Ni 2.8812171724862097 8.2792476206687 11.904562637354099 0.4183611646536924 -0.5580188603890519 -0.289842773364604
Ni 6.184261825528855 8.408859260741933 0.7295283741264776 0.307035997314439 -0.7323077730450356 -1.3478789779272595
Ni 0.23594648560773573 5.564868987887015 1.1774053985930308 -1.0135008411544417 1.2702571163777219 -0.6755213601836109
Ni 9.326039437938755 4.3780003981205615 10.007361344929816 -0.041885327379876255 -1.7355481128137336 -0.21981183678844723
Ni 4.403350718897172 2.268138700459057 3.270547027540116 0.871315493901222 -0.6125792121334354 -0.7874394239118567
Ni 6.3016347393077385 5.878247239011205 10.452838910462788 0.12602210722979587 0.35839249740954404 -0.008858478831894423
Ni 3.4072688290121214 2.5840148403337624 0.6237803931608684 0.3090615123849 0.43958587836042357 -0.8265029655722216
Ni 7.743640843234681 3.9483263897047 1.0156777807036876 -1.5598157828430042 0.5099191766683477 0.16252148770741043
P 3.0496435894261933 8.67136043950896 2.8784267800344256 -0.002521223759956948 -0.049763187466056236 0.06009002331336103
P 7.9886660865798875 1.7067358823226861 8.703368701676352 -0.25067073115083277 -0.9347680059289126 -0.6394721798695374
P 2.9817084440775927 5.216056002666289 4.510744149255314 1.4265544775522916 -0.8017787233526643 1.0235476838674824
P -0.07159654882194019 1.8189458736283846 0.8823183789215032 -0.09256871266735671 -0.96906497943857 1.105857180700676
P 8.4576284492836 7.895278476305027 2.102584391290578 -0.416472946492044 0.3257628842999809 -0.6115564272958758
P 3.6832344638692915 5.9208970644056995 10.402852349373934 0.5757828692406922 -0.6718097156599785 -0.42977043493189854
P 7.5038620948487385 4.196072381763292 11.566750577050609 -0.8371817854423066 0.6535245441975455 -0.6075532196737536
P 2.5756575917260887 1.8437297586660302 4.537504059297085 -1.2571725152796218 0.6115057765635984 0.3409447342467419
Ni 2.921749828233427 7.32080120701354 4.57505503445772 -3.0537041097552633 3.1673314428651325 4.481051772632812
Ni 1.5545410993451627 5.86026986867292 9.869129667209357 1.7940738769637685 1.5837504392817305 0.1077338504435693
Ni 0.5093250877292418 1.5524332155296716 3.7857454038741953 -1.787619379587676 0.6514141827227621 -0.6998889903946978
Ni 6.180909640253999 2.321337230762793 13.402725737591895 0.5450317041007645 -0.017887678913698225 0.02274423567505115
Ni 3.3946586694463203 7.599069728153714 8.947812651951734 -0.21617783958028577 0.0032236491436202545 0.5480085273409013
Ni 4.667736921516821 6.430503512838065 12.21887597173917 -1.1414106523252534 2.3431581538673516 -0.23368653788801044
Ni 0.32115792099475493 7.864180225652695 4.19149725244218 1.6891217030303942 -1.7187377261246142 -1.4233179728928649
Ni 7.4727545583646195 4.929374517927724 5.541126973175793 0.9701800668796194 1.1687018839410388 -2.8987162114207368
Ni 7.2722177351075965 3.909270181211505 9.171421052865007 -0.9309748574350676 0.044748507860284226 -0.25797986321773636
Ni 5.76236005831813 7.793032182506033 8.566510398477089 0.8800821843502586 -0.26771328845541636 0.49553076915715955
Ni 8.321748872754613 5.356253490975908 7.604420224428982 1.3940673035578637 -0.0748414705909227 -0.09308807550593645
Ni 4.324486149536091 2.5396378502270154 5.786032429290955 3.682346545999149 -0.22089272855745182 -1.7316703750258822
Ni 3.0592265678296586 5.611446720127116 7.478406844172944 -0.5278999295164845 0.14954744404524567 -0.8839005296550843
Ni 7.677841439196931 8.91904143074505 3.96110647999219 -0.805661089126206 0.8936817774115642 0.4407960966184409
Ni 2.2375883138821164 9.353525500026217 7.572754609454507 0.31548978450874693 0.3921636803227182 0.6595075012538578
Ni 0.9464955481461866 0.30949584485433573 5.620035185946269 1.150636541798896 0.9776848598970967 -0.03691872740322029
Ni 0.11268542589315704 3.258444802973026 5.8175624711213505 -0.6418545640587849 -1.375047310811935 -0.7146862033085305
Ni 5.419257859645981 8.912559920158209 2.9272711838135637 -1.1386621430458388 0.14591961748467128 0.8305023165396019
Ni 2.16426738609746 6.20316777904577 2.64686692136254 -2.0017382797564043 -0.3952112088997903 -0.985005047707594
Ni 6.487063514248444 5.968264092347636 -0.09545835076320573 1.4011553207528966 -0.14262243479063824 1.3174317171809955
Ni 5.689429135468497 0.5389366767125868 7.1400385625454525 -0.15130890682104264 -1.2128492678822145 -1.443088984872205
Ni 7.324171963951968 2.9357528625671736 3.077190938003443 -0.19498783576623194 -0.6159836098292939 0.9294671625412895
Ni 8.573042052555575 -0.06635098244585702 7.097513167296894 -1.0244455130914034 0.9033920627207925 1.158976943343791
Ni 3.940535576835991 0.2689279029463305 5.045186483383329 -0.7638300120230329 -1.388453556915512 0.4141370992700158
P 4.618299153086538 6.068671791452942 1.2523457754412193 1.4238944142216252 -0.6480856325701613 -1.64855252335878
P 9.121908997780434 5.530827128558425 3.7615130972446567 -1.1179503644197843 0.5479002838978113 -0.8412284447078544
P 1.1842314135391432 2.183841919502989 10.930716600264534 -0.006595393829330577 2.2188046925892304 -1.5636392703541522
P 5.410324889467557 1.1453794933452468 1.356633095066843 -0.9622019337701493 0.18380122302179314 0.05791769825239058
P 1.1677769196138124 7.186035930298909 11.897182258250345 -1.64444492894831 -0.12693330619015558 -0.1452578155309563
P 5.739024763039147 3.561877928254084 4.497329836656819 0.8203924817991097 -0.2286348343967159 -0.233285702905166
P 3.8708454092797786 8.145856647058443 6.867543971610002 -2.3967592270222595 1.0081598885575023 0.5734966443096768
P 6.281958061752559 7.125185874603258 4.115089714171756 0.3649441824851328 0.10492132069543866 0.5941785981390606
Ni 8.013886405711489 0.761882997819497 12.656104004313189 -0.5893917182733786 0.7314138004758565 1.7052520329333536
Ni 2.3883902220916946 1.5011847099010596 2.380012544654091 -0.9091266512117246 -1.0203489744245267 -0.31356351402031163
Ni 2.8323922689538232 3.9528671614482027 2.8759261055343743 -0.23302113638986965 -1.2556545359731988 -1.2814573559689155
Ni 1.511575555669934 0.3555684278452619 0.4445480537711633 -0.5935376221209521 1.7977940061278328 -0.6230754836790688
Ni 1.0620762963903132 7.343356492422473 6.376836048029122 0.0276936092605265 0.6487150386240441 2.055245764756241
Ni 2.508929604509708 1.3619343764336438 12.246397319987416 0.025916976976077945 1.3039668499253414 0.16458119844991656
Ni 5.6064509426260845 7.3611110027978865 6.360947989842756 1.8898958064610998 0.34574806917265616 -1.4045599755590714
Ni 1.0649363325804948 8.06584063455586 9.428217945165711 -0.27309126493787805 0.7789319006614779 -0.5672046406533781
Ni 2.6378076638718215 4.142957423945633 11.535437823684012 -0.5890135089983533 0.047301099078808855 0.08908358233223368
Ni 4.499134073772898 0.4308263801405418 12.741059150742906 1.9397813784376337 0.6851254589322782 0.6256424730752967
Ni 5.060657607722491 3.906122284235948 10.039884042178166 -2.170410617556559 0.3184534951227613 0.12413851705383781
Ni 7.530893151178669 -0.004693987967976702 10.457391753787613 -0.20782201141642273 -1.0837822031785076 -1.3647762679032303
Ni 8.566681257781955 7.84416925815321 13.237122213514947 0.29827496329235725 -1.0730126233668293 0.4488171671507044
Ni 2.292346863925952 3.710395521844231 9.018035826252481 1.187081414889491 -0.7868601543696191 1.5086580290222664
Ni 4.268975447117565 6.493962887265668 3.2812294484270805 4.4705786410156305 -0.055559225322543024 -1.9533886848084232
Ni 7.888555534091743 7.281345707753534 5.783884616398782 0.2508303966571487 0.0212077444258667 0.2644927246355897
Ni 4.845690601869552 3.844157928725941 7.570457294670575 0.44014277930515816 1.9405627366883482 0.3156576775451789
Ni 9.381475853702991 5.34082043854707 12.164240923258092 0.6507366970397631 0.14810351250986753 1.5700785982215926
Ni 2.54497720350414 2.691944063185974 6.67093969811448 -3.90909624755801 0.013990143631504939 2.1361036167445726
Ni 0.2200184983446884 3.7548282269416964 2.528600710565814 0.7410225272102141 -1.5889564089627022 1.2202648436199952
Ni 1.1206606091301055 7.695753808712712 1.2475004284151259 -0.14340379304135303 -0.16445932816007158 0.3189926554556829
Ni 1.1232977853574158 5.281558260086878 5.385933795114472 -0.025555994092233407 0.4294595885596991 1.2727634277393434
Ni 0.5037712317378533 0.21875469663857242 11.240558806644497 0.9010767843240545 -1.1571041518011105 0.42989847586933067
Ni 8.499609694789482 7.0004957253767675 10.81177066658105 0.08427741919284196 0.8075665336790351 -1.6020569509004021
P 6.754736901320444 7.661266229458379 11.94101231286488 -0.6291965089751422 0.2541049536433624 0.545188541393603
P 1.6631110445906299 4.015007947762149 0.8877468761837767 0.989682141468289 -0.07551304273665059 -0.7060097585804551
P 6.175895291089395 5.661339494314928 7.862766922054819 -0.34757252397590466 -0.3144225195864972 0.37651568937281604
P 1.1181812920431622 4.2305321035222665 7.404025474398289 -0.448772172845382 1.532892990310231 0.2793848112560737
P 8.666234660362921 7.353821624845637 8.231144226266109 0.4987276788279023 0.7771102740717069 0.42888726099599683
P 7.966101515339168 1.6270355881008387 5.192836780284637 1.7196887771839735 -0.7480514090325375 -0.34627334554850686
P 4.239297928728537 2.7027620572170186 11.746542852097026 -1.0609703474903147 -4.107581554954539 -0.5146003841941009
P 3.870241830213669 2.2018192898412736 8.595132117792012 -1.8947857875635497 -0.9272351878869772 -0.1759624437036647
