# total energy = -340898.2612143829 ev
CRYSTAL
PRIMVEC
9.05102732873461 0.00000000000000 0.00000000000000
0.00000000000000 9.05102732873461 0.00000000000000
0.00000000000000 0.00000000000000 13.24709338747296
PRIMCOORD
 96 1
Ni 6.401140000475842 2.0113826642691537 11.404555183662941 0.317489331437279 0.4141962346427253 0.08040328094941637
Ni 4.655920898726828 0.28162814792231944 6.054001421392082 -0.5391549336050134 -0.7287583651308803 -0.2011875368190406
Ni 2.725735001192403 1.420938892344058 4.852436805464587 0.4591360325782093 0.47785752024711253 0.2587033716473222
Ni 3.5802696503648423 4.36767282936991 4.89613878612471 -0.10913818699026365 -0.4311500888882446 0.18299286818788485
Ni 5.026316092694648 4.635148790861908 2.6358537736749335 0.2112760314032942 -0.5145173375619914 -0.26266878405297345
Ni 7.3252227441293485 6.132252078710675 2.5168418144959177 0.10564560045597289 -0.02083827690158992 0.2263617220918231
Ni 5.088170813892411 4.587757611436755 11.41825300851818 -0.15111581697363008 0.11656430425100571 0.2283946933614518
Ni 5.625548412217494 7.720453957261151 12.44808162050207 0.6733053263688985 0.29481400132695035 0.2823834888730814
Ni 1.7932710061737915 6.476661773035711 0.2591770744761602 0.864631139902511 1.1831429990670332 0.34286920496296436
Ni 2.668460099855053 1.4237990169999688 0.3535620932239503 0.45546115482978333 1.155153712942959 0.375329896594831
Ni 0.673727705576448 9.249606933105424 4.545183388789691 -0.8912335729813877 -0.5471772896888577 0.8523317537098677
Ni 8.5696937554092 2.345790973325895 1.467949928618741 0.41592632995995465 0.6811592751956785 0.09929034766190642
Ni 6.710105871533329 0.6837453826940488 4.791685404505923 0.8639559682123573 -0.09392702646746404 -0.04652359748283601
Ni 0.5768047787479066 7.5259021234674846 2.457812824049974 0.8612953906610584 -0.6029337186238714 0.10468837874902615
Ni 7.719992354864154 3.9604671069983297 3.852784318806034 -0.9089968105020796 -0.25025884042439484 0.38928764432650376
Ni 7.6818241723515746 3.943080083378063 12.752102915295238 -0.20456648059360255 -0.6439993783159297 0.16821442432712963
Ni 7.925233452007918 8.874767684688072 6.875811175925563 -0.244804759288359 0.045338318925483206 0.10762637833142755
Ni 6.807105732094702 0.7518652250526393 0.4224576086300457 -0.23957719234083252 0.02964070568456831 -0.5565199072460222
Ni 1.9186096334999005 6.409141108690478 9.290319359417929 0.036088775302757205 0.4250203218414228 -0.5955898766642904
Ni 0.32785536522484465 4.90836310372051 1.3205693342845966 -1.1013114703115228 -0.7199713629668697 0.5473372123054896
Ni 6.357776528240184 1.9462333691006577 7.081048652658371 0.6242751604141249 0.6746343295929672 -0.386610868825289
Ni 3.3028828138784716 4.256137018816788 0.3072887156817253 0.09021461061288333 -0.5228801077043899 0.8452702188773958
Ni 5.961631161341777 5.699658224504191 4.695485654766013 0.7939733683756326 -0.11490105761596987 -0.049206029411005575
Ni 5.111658229974968 2.7963873210153096 9.275615060316687 0.5248871108320895 0.037846124313496106 -0.066050354661854
P 0.2778502490888476 5.46270232737843 12.36294313133807 -0.31499973224620587 -0.21081863215090144 -0.2082076768906156
P 3.9246793446898782 6.165351685883666 12.776265538021248 -0.09831050024714036 0.12759073726849637 -1.9248324704372852
P 2.401309975349173 8.50793859551275 1.325914871062384 -0.6952838875225187 -0.2935299924082041 -0.25396637118296905
P 6.288952515950488 7.7274232483530865 5.697680575019012 0.37455393766075495 -0.22961802424559163 0.46047223489112954
P 4.713829371981626 1.1789415729608852 12.565676188791477 0.4881509317533206 -1.2385782972172024 1.6437085650029173
P 3.996209614169821 6.255843857750103 8.219013509306901 0.06716158544816175 -0.7068263409444795 0.2943992823870349
P 4.694786010348601 0.9302102891979733 3.771964074810817 -0.09004363225265782 0.07598895393180462 -0.346009807474475
P 0.15311260998157544 5.666214678290299 3.6656561376793846 0.40875449480186377 0.03948468835818361 -0.42727543642418675
Ni 1.4706652368363777 1.1148602990246597 2.5594314238895484 -0.2822608472522881 1.2392989774333107 -0.3754918760939921
Ni 1.7476719301722796 6.601077195567823 4.867843464291457 0.8811054834084504 0.060623784329643986 -0.21833653779450138
Ni 6.08519578729903 5.631639753652393 9.103257250791241 -0.4180145799475511 0.3365388918695623 0.7854211079302473
Ni 8.589587913617084 2.371586401393443 10.28816978652271 0.4698215373165134 0.3574620151754747 -0.4209340675871912
Ni 2.3376088445634164 5.352777599701105 6.949027651808658 -0.17036695189375822 -0.32013242548708093 0.14247922434455462
Ni 0.5950371683265977 0.03794643234147258 9.197642269539031 -0.3627466606131817 0.21740065624379332 0.008478212674340239
Ni 1.504217395378975 1.089490269244541 11.406714758798703 -0.5550739188281151 -0.5389371611672524 0.46319143359450554
Ni 4.0159318028572555 6.778404924234282 1.6014281448785856 -0.09420650538109582 0.9626559905884323 0.5070567675188881
Ni 5.6836922121844875 7.782417290787621 7.9877851023148745 -0.4144903688443765 0.5862014934708549 -0.04177451283362483
Ni 5.418062660280483 2.74845307994663 4.896973290850263 -0.7221331465048788 0.45078020441434624 -0.0927026671420597
Ni 0.8280513430230894 7.567265318649483 7.137560552386565 0.05358281832246256 -0.6375731630746116 -0.21932769806317712
Ni 5.067815053287528 4.428287559814954 7.272985644638455 -0.2599554988868684 0.6097787665701627 -0.3817512267401425
Ni 8.130402140932546 7.224258533570226 9.04802969184999 0.1090001187505026 -0.0335454400556132 -0.11553200633174943
Ni 4.709512031915584 0.34636833665269157 10.542633085933053 -0.1905521685923815 -0.6699865464083107 -0.9203759988732987
Ni 8.347255706220402 7.275460195527461 4.903252893654917 -0.78010792324745 0.1769374060224243 -0.14020251249523596
Ni 7.222294460626135 6.051218230469004 6.936429526781563 -0.0849397353671892 0.48168229330984147 -0.17673017510762465
Ni 2.284479313771659 5.2718614148155325 2.6966839185719085 0.22860578093099337 0.16505685253475444 -0.2871122618073184
Ni 2.483656222562701 5.063977417673268 11.412887559480131 -0.9056672319082145 0.10312797624044173 -0.028360039199931804
Ni 1.0254542504452757 3.554863416475155 3.8226344414601354 0.6603721632469982 -1.0761640245116175 0.23959776116612286
Ni 3.7210945855588724 2.6792941796434238 2.909406594958001 -0.6628859308077873 -0.010395227191395 -0.7211350442576677
Ni 1.2311569499860384 3.453519062765562 8.074368135450655 -0.014837836343780898 -0.7703446732130991 0.21256492541804684
Ni 3.7909051598343115 2.5178872081597077 7.045082585110294 -0.9098149355280009 0.006437013874595365 -0.3146834865573677
Ni 4.221752165754116 6.675476640731069 5.991487785400172 -0.3980720753873531 1.1473501577381402 0.2683090130578863
Ni 0.6654342491770463 7.287317041411141 11.130552526318485 0.32652855882141185 -0.35532208601433646 0.6734896744655626
P 0.23281957760756092 5.6143522913334385 7.969067577667967 0.43215976109968157 0.04727204561308632 0.0944546168361599
P 8.512645129756653 1.6581572692641904 8.029951123626555 0.041204499262767744 0.04519999357540603 0.14943045885140718
P 1.825275439032336 3.026102396227373 10.448909697287627 -0.8248176074499988 1.486799024165646 -0.1334291983271444
P 3.959199963163433 6.154671473560961 3.7775150699104056 -0.1897741527757764 1.1771811250566437 0.022694356273722207
P 6.8217050392781955 3.9433968693367873 10.237009759291478 0.8713360627265123 -0.4841315261812823 0.33265884008886576
P 6.468398185026704 7.665043567566579 10.342575512176758 -1.032206645094061 0.7093028275094301 -0.3681369783908176
P 2.4400845766970245 8.426361685627551 5.859560010132597 0.06025020304030914 0.37381988770820784 -0.2176184286815542
P 7.002571719654974 4.0359526754486295 1.781204176454614 -0.38103106074466636 0.3755911206760177 -1.8736608326594761
Ni 5.284207016178387 2.949585010654371 0.49862562454571147 0.24881413755806825 -0.03372258906342579 -0.13551333454968276
Ni 1.4151100307035311 0.9742887925976087 7.040697362338811 0.003755353277374177 0.8256922967454683 -0.13913447624203779
Ni 6.840431614952497 0.6961977861801306 9.155383927747952 0.08845906137435733 -0.5773805527451152 0.6882004983131761
Ni 2.781950932324875 1.5585235597317086 9.249901996598407 0.25878281873500597 -0.6919427389644277 -0.7413133189777557
Ni 6.311842564225165 2.0987250786031337 2.588800197571507 -0.047151975095454275 -0.26499820351709846 0.5826801105811578
Ni 4.156240829489935 6.930851378599798 10.529214032721493 0.10410165300762073 -0.2734851579421871 -0.409970626597152
Ni 8.285382882967856 7.15668356306064 0.2157592960761497 -0.5767282638730971 -0.5645404635576535 -0.29005051850003594
Ni 7.878358181144117 3.8926206056669814 8.02773905253192 -0.8985514467990396 -0.636471959590633 0.5451815994150675
Ni 3.274571200195913 8.424008418505599 12.465369082821024 -0.4178492580142803 -0.5420605372875825 -0.1503545133275733
Ni 0.04578552716578967 4.9007059345467745 10.169594991966735 0.25243579347105555 -0.6010976938563971 -0.22128585023081246
Ni 8.682804444728552 2.407410367811463 5.9020699704851785 0.027178617297320934 -0.05923770261539476 -0.40212927617586225
Ni 3.7986890433915366 2.598513760168733 11.353699270952086 -1.066876942782737 0.8222542175981967 0.09933714173944183
Ni 1.1277399110036495 3.245164412198908 12.707499452306859 -0.4939441413963299 0.14518016821548546 -0.2599159038981846
Ni 3.052287018472782 8.349328391493199 8.13468237178628 1.0098239065234866 0.09043392571254102 -0.45935843300166046
Ni 5.597209645452759 7.97795568656703 3.4117893009741826 -0.2512047492774319 -0.9529127951587395 0.6490945334506498
Ni 2.9173452510836313 8.473327466765275 3.4470394322555418 1.0633285633098462 -1.1167092929238316 0.4064885815858225
Ni 3.2354798128893365 4.400618569077236 9.236748138489435 0.9541656937292342 -0.6893636653833417 -0.3360555244752406
Ni 7.217099170903056 5.911642337055087 11.406529212737166 0.31070778973907137 0.4490387962432073 0.11832113904111237
Ni 0.35131472312248635 0.10955273045150865 0.5344939409979528 0.5753372970628413 0.42860418253793925 -0.6321131684013049
Ni 4.68266668467055 0.18864151290661216 1.5313641418361672 -0.5907544029488601 0.594995180503085 -0.43268169504142256
Ni 5.804016570335361 5.510491752008836 0.4392038195109504 0.8915624170757162 0.06750868437493535 0.045893677208320965
Ni 8.065804958434969 8.836680961422022 11.44518434052344 -0.6419656357153525 0.6615474145020219 0.003045985915175399
Ni 9.067500261975923 4.863596722239073 5.811725330365231 0.3823886032138253 -0.10149661128460585 0.1584401185491852
Ni 7.784833915101317 8.964436213061827 2.587157436099837 0.4692800629907466 0.37986018036501673 0.4205825977850434
P 8.339770506567119 1.7886640332312012 3.6866128865031045 0.5946077152566792 -0.41383628020014535 0.20118573704682768
P 1.8765495092087083 3.240892327269826 1.7031653131769968 -0.07686570010980309 -0.6354296343690476 -0.410496417193635
P 4.761220551406779 0.894879603772824 8.165031371734806 0.13488624248864514 -0.16254308497396522 1.0864090992783935
P 8.401091217148746 1.72519822915764 12.486445305206319 0.5421430696990599 -0.0010726642388884753 -0.03987549603869906
P 6.46979204324509 7.77729440928368 1.31447618264422 -0.6958297327236597 -0.47312231955497225 -0.138747010995632
P 2.0103327450916675 3.2149520827640035 5.914191106368708 -1.1428908364152057 0.26889342480644657 0.46662179943229315
P 6.777029168070681 4.028367914494031 6.025599297435601 0.9526631410417786 -0.046629526933080985 -0.2409324208171464
P 2.388792404465868 8.453750094516113 10.252283368015684 0.5085346376159952 -0.02366983281311407 0.9504985292902921
