# total energy = -381165.1093269108 ev
CRYSTAL
PRIMVEC
9.33588866041620 0.00000000000000 0.00000000000000
0.00000000000000 9.33588866041620 0.00000000000000
0.00000000000000 0.00000000000000 13.66401674061182
PRIMCOORD
 96 1
Ni 5.02432326978937 3.4837802553353683 7.224275045854331 0.10158762833651536 -0.4265616981866137 0.8010179339272399
Ni 4.026158049616544 1.7892697632015757 -0.11807845405035554 0.37492289096439946 -0.30596564706839563 -0.49096448994271574
Ni 7.237293009162401 3.508893796140525 5.82993018244144 0.6802480762353187 1.3009164931347919 -0.6409153400739671
Ni 8.255063595763044 7.9553535584143695 2.4964157248865155 -0.9093678206882533 -0.5592879569094625 -1.1926082582449913
Ni 8.634707512804562 5.130584355828139 0.7007770183625311 0.45103474362731355 1.8180694685474172 1.8544243530273674
Ni 7.0261618845123595 1.8042818723520186 7.172433789074795 0.43257885091497106 -1.425003588125404 1.5199521138788468
Ni 1.9371689131775187 6.3005112576861935 6.161036813740948 1.1317093658770896 0.211439553564352 -0.9656865498846401
Ni 8.143275663569385 8.465158436759044 12.01833608771562 -1.144734574492164 -0.9549637641504973 1.8470532573742773
Ni 4.980071156995154 7.810983374395434 5.46668662121123 -0.7459798712154895 0.799340546224817 0.6982630247555006
Ni 5.369312367697527 4.054520479715453 0.540040087731878 -0.908359691138713 -1.26724609746554 -1.0855197546949047
Ni 7.934562534112108 3.0720022091297805 0.4250592815771176 -0.6408716313202254 -1.3983175941937853 1.565440328118633
Ni 2.0740237067324583 3.9836330762457313 3.51695440250899 1.8273830326388594 -0.2856207648634565 0.9935727347719469
Ni 7.065671365808799 6.879588430742489 0.18926460596088235 0.32014708077510023 0.43513118502317966 -1.874569460516675
Ni 0.9108802616584283 2.099856110973301 0.322801424645133 0.9902079320647721 1.378989840399451 1.0841660688804875
Ni 6.338032194673525 0.19954341950232365 2.5656376057987504 1.3534467018230238 0.35818115272968637 -0.22496869839903835
Ni 7.836554373750571 5.5425304480316795 3.581611967399054 0.46251857589719697 -0.21931818498148037 -0.7643097798729288
Ni 4.525590755532026 5.265880055957628 9.23817376169706 -0.4805348099689596 -0.4155188101088908 -0.2595533783524433
Ni 6.683702812462268 7.396899363662384 10.435592055231304 -1.3318255240088224 1.0311820604842887 -0.32985042410579324
Ni 8.51999744742428 6.200346507017598 11.298474645518924 0.004905407721417359 -0.9215931591098515 0.7623179462538807
Ni 2.440391989935711 4.545718931731251 7.853298290268805 -0.11128120147519545 -0.3347296065749654 0.3628685309030267
Ni 4.588402615211241 3.164091416007871 4.206549826885523 -0.5228749654980672 -1.101763984467909 1.475562017799246
Ni 2.9482550034151536 2.8622808036847873 1.5485569413785911 -1.418467586779099 -0.05146577197945975 -0.19770574891802725
Ni 0.23532788117747766 0.5067809839704024 7.704046370009344 -1.6351717311765 0.3625265741825756 -0.31930658715167587
Ni 7.846441079963457 1.5325048142185962 4.403311151532852 1.7518170251770862 0.18759642839816723 -0.6222612153078896
P 3.2939256212038965 0.6003723353524142 5.478847549929741 -0.449476140890942 0.1304048096785238 0.47232553468528976
Ni 7.200939058271962 6.0749841925448695 7.847681819581674 -0.40906894071848904 0.050751519521254534 2.0141351107588603
P 7.665604914388781 -0.48410504372443797 0.46534084087526184 -0.5764914652719426 1.2691443429295175 1.2994419654717944
Ni 2.6295464324090467 5.998177835591702 12.517359881702749 -0.45754606238327006 -0.047926905588265845 -0.23604063994248378
P 3.7709428581702396 5.5646004890961365 5.110533667505748 -0.1119417178773298 -0.3161191905626297 -0.43696258180496356
P 4.406530165982524 4.505238518002196 11.368434995233274 -0.7230222339780515 -0.26151050207881416 -0.0031598857852203647
P 1.1672755094459117 8.309389132545647 2.4269203024331683 0.7653747308023334 0.8861792983869318 0.32664940066999226
Ni 4.1875568947613555 9.182481450797775 3.652364000481536 1.6354044160125962 0.1966803929773064 -0.9249296796822521
Ni 0.5130378966275085 2.6685331039340774 5.312802232941538 -0.23024203098283572 1.0879641024703393 0.6099926823531817
Ni 0.7483004265835602 0.4409956437163004 5.235477734161348 -0.2937166544977135 -1.053334428211612 0.21448862480332093
Ni 5.5420916612592475 8.379800405687837 12.556343752461146 0.2051344372819306 0.9785207255348308 -0.11437783812264818
Ni 4.376263214573484 9.416830930831615 7.375536049378205 0.3453284651367343 0.02774965930944253 0.43469332615481265
Ni 1.0257154279482963 3.2811261176931645 10.086244030854028 -0.21404716639052815 -0.3048001660053848 0.5048361057184854
Ni 8.93467895503894 5.271145497226813 9.167010949508471 0.8241095256393807 -0.8893592387768103 0.06886879794725559
Ni 6.938161796917786 8.754897744895857 8.376452555973069 -1.2762182190571634 -0.6841137298383121 -0.4965820932398093
Ni 3.9175816631615374 7.446099497507429 10.675683106861863 -0.042955677625919564 -0.008251184265198691 -0.31726435991066654
Ni 3.0622368694709725 2.3580867944939796 11.068741762484397 0.6351480985728867 0.7072536582898853 0.03091905817635966
Ni 9.450253412646658 3.7937597703367087 2.5212706615725997 -1.9191328489493464 -1.806910109496488 -1.139447872171928
Ni 7.87564374005213 3.3067531323809543 10.809959327937106 0.9874015729642285 -0.5510881947074896 -0.8022703182771022
Ni 4.1871087721001485 4.630386107033096 2.4738975611608507 0.9673325701284953 -0.3523347212512384 0.2971650180576302
Ni 6.579915736948915 5.123087637141693 10.47964531359461 -1.2506354854920525 0.2786253073822298 -1.2372215260789918
Ni 5.209164531648586 8.0128626332693 1.2254875767256113 0.5653393053098651 0.9707688495035539 0.12966510329902184
Ni 5.4803067493452975 2.8213055878506497 10.252631041371403 0.08370637718072035 0.4520457013903312 -0.5741862141775337
Ni 1.9680893768008192 5.006631760560459 1.1716605764036 -1.264735929449177 -0.3670391173409485 -0.5988315235300397
Ni 0.0731382862534109 7.419408191499272 4.595673405389329 -0.30584866187455717 0.43415570848378776 1.0290125636367955
Ni 9.265225433011938 7.362235208640248 7.061085577242444 -0.7370838542774403 0.3989907305468806 -0.6186267038790959
Ni 7.114358025771213 8.293238044964637 4.527107837457987 -0.23038061344322905 0.8189871168111508 0.3145114797558777
Ni 2.12729428808347 1.8127775311374064 7.56818491502008 1.4642969864083877 0.31189821050274674 0.5241839141174779
Ni 0.5895240325956885 9.143765520047223 0.1589519086968444 -0.4555961377457508 -1.6171205301017442 0.732474637640203
Ni 2.2810937197653085 1.2393952502339538 3.4854588481371405 -0.3292115049702137 1.0367029903025178 0.26198872726681327
Ni 8.750565892504186 1.787916059329179 12.326856403301404 -0.04976987233427558 -1.4136004884947846 -1.2811596222228387
Ni 1.895465498018919 0.7272844073618177 12.192921875755331 -0.905664146584421 -0.0464318090999781 -0.9020723154681046
P 4.90568279523475 7.27247063806717 8.53495447483095 0.9872830451084933 1.441449906606885 0.01960800403891462
Ni 2.618632778430895 3.7524391266178903 12.754717385099944 0.8793764165324854 -0.5166325841327812 1.0989758801998106
P 0.30995524169052513 4.662977694747148 4.514509055555921 -0.6990803784504734 0.9320354374890979 0.8837123249036781
Ni 6.642615565962829 0.7254209639622975 11.272828025464706 0.813944926401553 0.3047513150453203 -0.5191697487323381
P 6.904963376433349 3.847795894567283 8.669545315357915 0.46240981823347466 -0.25928315541019215 -0.9149327163705404
P 7.191967269159043 2.739373827959924 2.7605550924129862 -0.18103343046866888 -0.06824581965127602 -0.7778841761232539
P 7.901056029298091 9.009338057573824 6.50047852653891 -0.25463408667395504 0.9034000331405926 -1.3486695921493548
Ni 2.789582237792686 6.267434203755833 3.1858608414537684 0.9058060714789239 -0.09600962002810562 0.6578213718006864
Ni 3.0696028857145667 9.298470532940252 1.4888586006058877 -0.6985463603238744 0.9214399213614389 1.2889374663960447
Ni 7.574626678274934 6.358188378539077 5.651396247038716 -0.7358471536568617 -0.6920525250694145 0.7575030413637407
Ni 2.033907392665634 8.720494994759425 7.108595915219189 1.4772679447467592 -1.5040261866772098 -1.3252956933101046
Ni 8.89012809380392 7.819572392068573 9.331361802683986 0.6088446847916675 -0.25992464564893303 0.789599150567337
Ni 9.416830930831615 2.980127727693519 7.989596664852746 -0.957902277953531 -0.4721332161688256 -0.0038363430269546827
Ni 8.22946458874158 1.062536173277492 9.461785102461725 -0.06345945400622618 1.2450690471478687 0.8864610912934088
Ni 5.329140038298052 6.907792150732219 3.4031461839843886 -0.17886110540769842 -0.05573303189624595 -0.8125166785954586
Ni 6.451500586846711 5.56728922506338 1.7378850313831444 -0.7434640467721713 -0.5174843906101152 1.5164397298502141
Ni 3.053853241350887 8.202577229069146 13.262349802126641 0.5705861555311013 -0.33185485613033167 -1.6589860599872783
Ni 0.5518695923988719 6.267238150091555 2.747642624648075 0.3515986144161622 -1.4290232508077583 -1.6399421559819498
Ni 2.2994387412084802 8.039544603388682 4.3727995998379035 -0.1466806640204119 1.4001402492248207 1.1446571842870092
Ni 3.7436167117253727 6.4044383715311755 1.1327934042548913 0.46368045741578207 0.1736214542753139 -1.1359593994026953
Ni 0.1517455361513053 4.939497384378347 6.750639267802347 -0.8998796786921599 -0.38896188555596883 -0.9678133664196559
Ni 4.819400511174804 6.197872496492184 12.588139922451557 2.189174785537939 -0.5741113950755402 0.48664092286669736
Ni 4.8521974884419095 1.9963491121232013 2.3728655064250437 1.1272762698064005 -0.464791945312406 -0.9661326362831231
Ni 5.865636222650882 4.912385963375308 4.535305681391447 -0.40634794224290016 0.45838321357258477 0.3560057423449223
Ni 7.09943927550852 4.78763981756174 12.619881010698194 -0.4244364243134948 -0.26387694542846163 0.8969481068676616
Ni 2.298047693780983 -0.1847796449932998 9.366410596323657 -0.22817152160705223 0.49684768819637004 1.112635122854458
Ni 2.8563618502013415 3.244268028808868 5.803996017012948 0.12285990745173032 0.3629857732071813 -0.20223757535010975
Ni 5.042789657786619 9.56844576454007 9.80666497047121 -1.2400502537770386 -0.503525614437178 -0.5994889546083805
Ni 1.046403757474031 7.498651215422755 11.390829925227107 1.865382137590452 0.4983540975385675 0.5566700596706413
Ni 6.212464490647744 2.4734130285334204 12.52812696222713 -0.4808819088957331 0.7097512279007583 0.6953417373436477
Ni 0.35865030395283554 4.259611284327971 12.511415721319612 -0.4158003459050516 -1.203682256670966 -1.2075512527080687
Ni 5.929400342985164 0.9804830468326895 5.17718631182706 -2.567474820504688 -0.33164222589889336 0.6877459272742608
P 1.4281855930450584 6.583640756570199 8.353428387075791 0.5271987896844017 -0.6730248190140022 0.8026035332468049
Ni 1.9716650222017018 5.425383715681084 10.241727656870905 0.39154198757831926 0.5536574980965626 -0.4698012256015393
P 0.704100594766485 6.261132478832607 13.264959183039295 -0.35253346752560577 0.7361430876307257 -0.13149958540459933
Ni 5.241774791140188 5.878510413271815 6.693086314270173 -0.7679386348747678 -0.5432882390470967 0.6686272041669388
P 3.767787327764239 1.9564755311645312 9.2088917465538 -0.4735961738675973 -0.7911613528481343 -3.611251686934852
P 0.14958894584424537 -0.013778838243245444 10.810273013799952 2.1134195448834956 2.6467167341561515 -1.1311079848476648
P 4.035251205283541 0.5194591209270575 11.78857613060364 0.7364053401531769 -1.6450375682269864 0.2722111763257699
Ni 9.213616639862904 0.7545704094849516 2.2707953008574395 0.0437339505528408 1.2678621337829843 0.2662945537310188
