# total energy = -381167.8867256498 ev
CRYSTAL
PRIMVEC
9.24877564511139 0.00000000000000 0.00000000000000
0.00000000000000 9.24877564511139 0.00000000000000
0.00000000000000 0.00000000000000 13.53651803718426
PRIMCOORD
 96 1
Ni 2.480179417420555 7.4692649493470515 3.930043380671321 -0.581942718194501 0.2751095809194875 0.7376901204028715
Ni 6.2324354340439205 3.1655321886443932 9.652998910985376 -1.8672433591689066 0.9019884975050465 -0.3853106619566267
Ni 8.88527099479673 7.686500191182704 6.21068971279886 -0.22106139292483218 -0.3678415586375859 -0.9738356613543359
Ni 1.217314598738365 5.725140091116234 2.691290120038583 1.0980785651965217 0.015766518805637363 1.1767208975907735
Ni 7.1560459140947446 4.903229147817148 0.4085073207421047 -0.8323116018341989 -0.3530615721149339 -0.2411208826788686
Ni 9.09183314956331 -0.05068514016977781 0.6403297314905291 -1.5547471100708452 -0.963509082617347 -0.20818607962406077
Ni 0.9441427619341317 7.856390950603647 12.47203311993038 0.5926721887968631 -0.5559555501021199 -0.3935507904782319
Ni 3.3005365664149577 0.9611790066319039 3.4144380128462672 1.8880885780490322 -0.6032617913872513 0.06669287334185933
Ni 4.875547562377174 1.3953072856051532 12.989047076282835 0.2812702012042446 -1.8258156881517396 1.1197064278789426
Ni 5.560641367883566 4.195392603053526 4.742871101430947 -0.6054372017720153 -0.7523716336744461 -0.09018478581621242
Ni 8.661959307376693 6.318328813255762 1.0290409728889252 1.9438318943579231 1.9328296297101488 0.1552054136619714
Ni 5.611130434010134 3.428040187155178 13.349443191111073 -0.9465434012972861 0.8265554160767119 0.2696830105872775
Ni 3.692462682219947 2.5503313805218593 5.406092477466242 -0.2430666935513298 -0.2195544693620025 -0.8318696292007738
Ni 6.824560546986791 1.2541802183720887 11.665811799598341 -0.0013102341709912918 -0.3898589434489415 0.23708013695059169
Ni 4.153486400705206 3.8529659343834313 10.784448801716332 0.6463023154174934 0.694238734087456 -0.0226295644740578
Ni 1.860141499647134 7.859683514725474 6.800719978063095 0.5951661588633105 -0.5329503474561982 -1.4801326678890638
Ni 6.734597706500781 8.144508808814829 6.921830845092622 -2.97858907378798 -2.2823153115483663 -1.2244899374449363
Ni 7.18406045545715 5.839815660067198 10.324803150798916 -0.6961048407619174 -1.4406369237872867 -1.1524471126450733
Ni 5.955804555156644 5.157884935823912 8.128557445497648 1.8349348768441882 -0.9629655514090513 0.3811747854113822
Ni 7.752184995658045 2.6288812318889487 7.955831011470659 4.338332150142676 0.1413008877657373 -0.314146125996659
Ni 7.574978454719221 0.5191245269496476 5.788025291210458 1.0600545205442646 1.7415647513214587 -0.27132131752164884
Ni 7.105723325929392 1.1203781814325289 9.339615247526979 -0.5845050796050385 -0.8698656488285728 0.7365709191967638
Ni 5.430381612007657 8.324924674894872 12.311557614093767 0.851694634346501 0.2865977840647451 -1.2268895480253645
Ni 3.990328749937889 5.610187058896575 9.048363904134684 -0.8986090395098525 0.8623973654759858 0.17257990038467697
P 7.15680431369584 8.462370729429939 10.530517192840858 -0.6869373153300362 0.07737940652142802 1.3237484034276428
Ni 2.5444491592255605 3.8285399179627926 9.01980183525539 1.0733666642721384 -0.6798590683270161 -0.08757871565193304
P 8.709710735918819 2.5062239695752386 1.8882762750926405 0.5724496911024012 0.28340344549716356 0.5696384469058512
Ni 0.6505403797784446 0.10347252703868896 8.011872117603781 0.17296813696203114 0.5148508096420101 -0.5228901350067189
P 6.643432525183768 4.056734958911832 11.589588015300468 0.26629198262785747 0.05028486429748114 0.30224217547022136
P 0.3213274368410897 7.725012092877342 2.6336240040284804 1.2887585176160192 0.2864437749853841 -0.004776595453036935
P 6.830747977878653 8.934446734784816 0.3640595548525536 -0.3070519381540389 -0.3857773171804001 0.33866956505932
Ni 8.543685964708338 4.623416690115521 2.747602215297462 -1.477419896943591 -1.954736714195885 -0.7106809388038793
Ni 1.4630915621469402 5.537870882299464 7.301435742012502 0.21717902715129048 -0.16803624687805255 -0.4272003602118772
Ni 8.042078618788864 8.404501140356128 8.593441602927992 0.4079345700037297 -0.41482872602040166 0.9505777192676597
Ni 6.155938810865163 3.2081967905938087 2.6554316920702163 -0.09487036421733984 0.786632097519213 -0.36676940861932966
Ni 5.814890209762911 1.6673785181102359 4.9523077756611915 -0.6933280493477285 0.005758756860648147 -1.0104237448910145
Ni 3.4574790399635438 5.271496895578219 12.498835146808597 -0.8218742085509587 1.0805217872596808 -1.7272665895312318
Ni 2.0548744703917547 0.2931325443540331 5.006007091806542 -0.8084419943054529 0.36111632409861033 1.4893282183454029
Ni 7.988962900385333 3.120120700334914 4.8322253724809565 -0.3208600476817248 -0.42193885470262177 0.45225421785671144
Ni 1.9087715618734564 5.694508146252487 10.342225069440172 -0.32686305934269516 0.574296771613469 0.4384121697672966
Ni 1.4961004423458264 3.138830973420469 2.08060363929769 -0.2758505728505701 0.06290872370907875 0.410520585563351
Ni 1.9667798825816143 7.410895926389593 1.1662336109719178 -0.8348384820211107 0.3024360366485824 -0.3705838972694134
Ni 3.310811956132235 4.233229344127676 3.45721360010316 0.572909147237323 1.1213017973905206 0.19452683696941336
Ni 7.508304031252207 1.1966805803232021 3.0001798034217115 -0.5752588784164221 0.3369849782680454 0.5090686557425943
Ni 4.054311779698577 8.30093335092852 0.9333781119863918 0.3354418021506416 2.683298904155559 -0.4423469860453285
Ni 5.5871483588194035 6.6706239255157165 0.37709107970551825 0.34448951417520673 -0.11575286409330389 1.0900122432486195
Ni 3.4927168750876 1.7628443800919968 11.243012345885843 -1.0826817710254772 0.04686272598980962 -1.963572053099328
Ni 3.79037022096621 4.327446621400317 6.8673056132841275 -0.1724613725289417 1.0747499177729103 -0.1005635579473752
Ni 8.994933727359967 0.7286102196906944 10.53133016021813 1.0426345252956044 -1.3356495257406031 0.2811406176049158
Ni 8.386687998506012 6.1590371506989054 8.061930190786311 -0.1283893219103918 0.5545255025238127 0.5476064068064763
Ni 7.503309692415727 8.075290972051459 2.627018528478454 -0.3049372058038813 0.6249606165169237 -1.31595307575294
Ni 4.1574726229987675 8.568639161339494 5.865481937298895 -0.035280677579165046 0.5836507020245432 1.0823403285256588
Ni 3.225769464277721 9.091629676499602 12.377629942267715 -1.083117058790683 -1.2109515366388695 0.3400314784038531
Ni 5.514748943241685 0.7261546697627582 7.799660810686603 -0.5734753041534382 -0.14880182412847276 -1.706976471823628
Ni 5.4438385805392855 8.510482860221366 3.8615626713251134 0.23848447349728605 2.2570351968253384 -1.1800846718566838
Ni 4.0279065252945925 6.718440095487205 2.4054798313453674 0.2109782976572173 -1.1801749175776448 0.8247692707105667
P 0.38773549557015774 1.2922574276124406 6.194717077297747 -0.05623516834364508 0.2870058181364412 -1.0380242802171025
Ni 3.774268102606372 7.22792739823757 10.751961552462589 -0.08741056550518495 0.4088704515544378 0.607363986481083
P 4.178060397535814 2.143727457802991 8.639913000923881 -0.6250593468783171 0.8354154375705032 0.6617980970602474
Ni -0.26421624736837374 7.027524928035981 10.418800307211727 1.9771335938338466 1.1488745648024665 -0.4438893908317839
P 4.946217456913373 4.946957358963222 1.5986897113125085 0.11044250762398397 -1.8101936653437665 -0.07876985911105144
P 2.608940871645519 0.979047641135756 0.5746208801985683 0.057349227343430266 0.37121715997803806 0.3278202810496419
P 1.314380498902924 5.668741057366497 13.125170555903795 -0.07517185734714796 1.31340151297568 -0.726536160668581
Ni 4.725014490335406 6.667645819765074 4.791466943187465 -0.3433392026208474 -3.129534426622017 0.9248008674138717
Ni 3.723779036479804 2.499296636633528 1.9301852520736473 0.2738019178516574 1.9007088379162038 -1.3306543865188565
Ni 5.786746185541783 7.40155466301025 9.043937440121463 -0.16083844357803267 0.38764908028181627 0.7583391641117907
Ni 6.500409458947965 5.960724903788139 2.6945660363642894 0.05626782135379342 -0.6878675404537895 0.7338306374474652
Ni 2.743945249416084 5.002847710053687 0.9844267290381579 0.3858786186449548 -0.7368203162034084 2.7481092157627254
Ni 7.26858501587677 1.800625628512409 0.4819721952716071 0.2942041356570933 0.29097200187304084 -0.36505345436948744
Ni 8.301941467471439 2.9765242100104783 10.756671953887441 1.1653743622297028 0.058280223798131886 0.08514413806851143
Ni 9.195826382669582 9.35319429989683 4.143393211867704 -0.19633946469811991 -0.993506914531018 0.6228530832556177
Ni 6.898365776459224 5.61822424491306 5.992169816029158 -1.5272311640387635 1.6855080175372068 -1.1619103149405023
Ni 7.811682369241524 7.338265291421295 12.37856406860565 -1.2149246623540044 0.49122957067864437 1.1934608360532735
Ni 2.057038683887563 9.007317837919315 10.443640668780281 -0.5375474799085774 0.21516379649347464 -0.7929197303001376
Ni -0.053638274226237445 5.252176203301538 4.819081937442952 0.7079118606991744 0.5987155667774657 1.7067427585462671
Ni 1.612514781113936 3.465377494345681 11.585688731497761 -0.3139504650460851 0.5903468830977961 -1.0094179293343195
Ni 0.04232147237379773 4.001242305173161 0.35779165961277065 0.6845821848342984 -1.175458228828266 0.24786900003597956
Ni 1.4413476906570042 3.302858009096359 4.5198840460352825 -0.4135778843324361 -0.23055390579629972 0.5412267285323775
Ni 5.457073578455958 5.88098196036567 11.769636704988272 0.23750951117852645 0.003372001796026451 -0.2973979600040426
Ni 2.9486484002824196 1.0088656937446687 7.025114697108599 -0.015552860132934505 0.494424166356542 1.569543551653729
Ni 1.4461570539810225 1.7934855737313666 9.101832925767019 0.511857274231325 0.9098840982030395 1.9373082343067927
Ni 8.896489759627565 5.083062341032936 11.925171514887019 -0.48911303855627386 0.14095070351517017 -1.043827260052125
Ni 5.341981814601954 1.0724047822754474 1.85990380611362 1.244929693356527 -2.1582886374820442 0.3905328295875145
Ni 3.274824970182707 3.0641101151613483 13.180995240687336 -1.3306248188325018 -0.5961544909185088 0.38317073279548847
Ni 4.823476955619055 0.17226399524583294 10.016292667216337 -0.1307457379577103 0.3819576863239938 1.0116049096833093
Ni 0.26495522454066034 4.355969845421995 9.154557420961693 -0.6328662445172456 -0.5082937252497826 0.2518932907040243
Ni 5.984549749793276 3.0533075452335536 6.967503148874673 -2.710618932126751 0.31410267435323325 -1.4514029040545393
Ni 0.32672594717230014 1.7031620309960558 12.61940496046417 0.2534467512340732 -0.05110813152972489 0.34569818977132727
P 7.035737840789305 7.193050265362816 4.557393380452375 0.49095060598564483 0.558561106045767 0.2221849650063141
Ni 3.4044280629893735 8.151815341557088 8.425318284528627 1.0213691881589249 -0.05195762401421374 0.2924771256636576
P 1.2850711289532826 7.491462010842521 9.057608980247547 0.9578421141395569 -1.0121445842368633 -1.1329733201911778
Ni 1.2511558687433313 0.5853772062482474 2.311685223118703 1.019977450017721 0.3359046007196731 -0.22247575677385553
P 2.5105154014643625 5.5327563093798835 5.159917816705872 -0.5909636907461887 -0.34346878622017624 0.12442185262221152
P 4.87909909221645 6.667488590579482 7.15480750303881 -1.023572366457831 0.806708556554114 -0.9594503391669411
P 8.23727402831464 4.45780811380808 6.88128883714871 2.4284393317343596 -2.4969450899152417 0.16919015797683765
Ni 1.3975732356328154 3.0361048225745653 7.131754929798203 -0.6624881811487364 0.2417898837214352 -1.2468906737376397
