# total energy = -381165.36499255634 ev
CRYSTAL
PRIMVEC
9.21646317616122 0.00000000000000 0.00000000000000

0.00000000000000 9.21646317616122 0.00000000000000

0.00000000000000 0.00000000000000 13.48922547268417

PRIMCOORD
 96 1
Ni 7.342313685393548 1.0291379084620382 1.6505818893385589 -0.32202578585505187 -0.19550642727386328 -0.212183373708912
Ni 5.73748784828671 1.327603846397027 8.359461897133142 0.4266195480077427 -1.0799666860871595 -0.8954054449708901
Ni 9.009479678262252 8.496150338305327 3.997060190995907 -1.3776731784705563 2.495072555482877 1.046972747659642
Ni 3.4973619998225125 7.901900453169634 12.687088045062117 0.2966294572691343 2.3479810291772916 0.2180395753793729
Ni 3.392902608130468 2.9266325282740877 2.2456723159002543 0.4951703004939472 0.8430323306858125 -1.8087924141208656
Ni 7.564706937690092 2.3460414413109394 4.348588993032517 0.48198002705591825 -0.04956366986074045 -1.1084650506371683
Ni 5.685967820092028 4.442694610185401 4.297882778521124 1.4604225910546462 1.1578705976534898 -0.3951348471359001
Ni 7.0513499483441535 5.477214933042018 1.0856763007626247 1.6855080175372068 0.5718205421588346 -0.47894998198034283
Ni 0.7948323777322874 3.4580353521826717 9.545623450740306 -0.5433998249242964 -0.3277220649088808 -1.1093945044299733
Ni 5.2712822836713595 2.2716922342543198 10.788520628956352 0.5995619739381609 0.6959847702442852 -0.7181620776722728
Ni 1.1978729131468757 8.588176721404414 7.661704680933761 -0.9020306635968918 -0.2281761495927425 -3.077634652428932
Ni 5.776574867888435 5.259227150061585 6.6083173366608055 0.020048434010442893 -1.5201094653923173 0.10452279970543935
Ni 5.050612509956642 7.3985433261834865 2.993164331410362 0.42903098566271275 -1.7797399768395996 0.12118071997709452
Ni 1.6377562594216144 2.093408973896908 7.016083152657758 1.000145502893458 -0.24377477536194792 1.2561782696871526
Ni 2.8773521005894787 2.310917500801112 4.356305015859814 0.6703963802522197 -1.5531967348645896 0.6563329601806182
Ni 3.1450442685527245 8.193269714591223 1.8215445131315635 -0.0921586217131316 -0.6057308217530342 -1.0683555842107921
Ni 6.242743566651767 5.214932828862365 9.939063196643195 2.5132600250251813 0.18348986242896143 0.24593527334837645
Ni 8.534085300031501 7.741174554835633 0.4531191087953798 -0.1922095016901464 1.093430524901549 -1.0016236301008814
Ni 2.768745300545447 4.436086406211236 7.686929218530546 -0.428269682016656 -0.7592966429290535 1.3137645527420534
Ni 5.164841352433367 1.231494570186983 12.815168309788177 1.416678098978844 0.21486631985771382 2.8530817014110736
Ni 2.1920988597481883 9.132012553905954 5.3879203095774395 0.7410181563348399 -0.9216651499983676 1.1725407980711549
Ni 5.209190972410613 7.127671478483717 11.313817546124511 -1.5161062577701954 -1.5205972036620135 -0.5635462179651842
Ni 4.64397294573883 0.8428676612650001 5.72423365284006 -0.8982691396719304 1.9035707328450313 0.0878103720467649
Ni 0.7867053006549939 7.553610316232776 2.3499713411360217 0.46958088206061704 -1.5692969828605616 -2.175885781738517
P 1.6112220624319025 8.073898085758033 0.19714198695704657 -1.304555889659592 1.047080733992416 1.843305874516703
Ni 4.103537988085919 3.5062558866217732 6.047192341209282 -0.17926425438338806 -0.6623585975494076 -0.2527438116297776
P 6.3371201478169805 3.1333485770001213 0.05895218396144275 -0.6275749142113193 0.6393335974091441 -0.8672310394192031
Ni 6.448934276986548 0.16154892848029467 3.8445102169931236 -0.7751508363524908 0.7217238268816022 1.0927250141940923
P 8.950909055869191 1.2290429910278087 2.954922461466141 -0.02540532744698205 0.3960607013842791 1.72859096476961
P 4.112376576107153 8.984632094002347 3.816438713974275 -1.2395761423540974 1.710791474694344 1.0825835548847162
P 8.882375436968358 3.2502501937481263 6.211869337233276 -0.9494410345600552 0.12783319229660564 0.6906720997821202
Ni 2.718460278393357 5.53787769253708 1.6920615027362311 -0.8733952592483862 -0.121787500323158 0.5751241526107709
Ni 2.287341788435817 5.99012031570074 6.178280859459984 0.0864875394702833 1.2675543727345782 0.07322013293741583
Ni 0.3412469159088842 6.561246095158355 4.985037375680227 -0.039507571176319055 1.5771000238447483 1.215004366552004
Ni 1.8552924357148315 0.403981536287339 3.2185556991222417 0.4872183926367222 0.5342783222390024 -1.334439821703218
Ni 0.7808703579268985 0.9904471967695024 9.138585735320705 0.45085656617823644 0.5031142379313722 2.089607530065563
Ni 9.087008565055394 8.649272654660685 11.727329826804716 -0.38542173361319426 0.9782065367285218 -0.37064457530401973
Ni 2.952927097225685 1.116546843595914 0.5568927956398956 -0.5308690394471374 -0.19937670886254696 0.45735502941838657
Ni 3.3708107463088846 1.0164744882939714 11.749209709977197 -2.2124116445786934 -0.3336176044577093 -1.1014793633479545
Ni 6.4075154922447055 2.9273145465364148 6.128424402837599 -0.27183399549200926 0.27084617765744323 1.727603146935044
Ni 2.434141611170146 6.959019421965919 3.902149976622738 0.8924874999931468 0.5424063506627755 -0.33190216442849935
Ni 7.13984642611255 6.3815619324242725 7.8815790738911975 1.3772378907053506 0.5965913213456112 1.267937724215926
Ni 0.5650078913152834 1.6163095500103397 5.032101244012274 -0.8847063133858312 -0.8362736718057404 -0.5666112300437531
Ni 5.4796665122011925 8.066994954967727 6.017030544381033 -0.05014551050613944 -0.3176042597485885 1.1147079462230869
Ni 7.9968023727260995 8.660986779139296 8.71420171488049 -0.06950283198682869 1.0026615844470925 -0.8748677300288545
Ni 1.5473427573482994 3.787192111922364 5.264493437022307 0.1326483542970619 0.6544622255204664 2.3668950924729755
Ni 7.230656236095055 7.890831481101331 2.3078180042927268 0.5431236884447743 -1.516963206453852 -0.22956377396888852
Ni 5.12521056151438 2.3973679237825287 3.7339928441682773 0.43915470436027587 -1.9161339142220226 0.20714144040963034
Ni 5.615655423831343 4.9291303110954425 12.192316975010883 -0.947784987013871 -1.66609875977266 1.5230307528041707
Ni 4.364373107573879 6.27823616568177 5.1103121490677434 -0.3426869137488292 -0.4963483799624484 -1.5115708317936871
Ni 1.3066640424509952 3.3486359363202607 0.2244715647040396 1.8149568910603644 0.7080049346336129 -0.4022043523881718
Ni 4.211610233275693 0.06045631072376334 9.880560776076369 -0.1773593240511913 1.4330868793541707 0.5084518480942017
Ni 5.030594352311051 3.625480052046891 8.634183461429856 1.9106001288879872 -0.7896379742250723 -1.944103145741439
Ni 0.9840417549814336 5.023193532518506 3.6490244284379707 1.675521081527824 1.5646517707790666 -0.7386977357317794
Ni 1.464809331143759 6.943793825082625 11.923624820811657 -0.5449250033195713 -2.091898897202901 -0.5334177740109199
Ni 1.155901140624768 2.882688432669035 2.7746797810739907 0.29305922341937274 -1.9513145758882133 0.011599274801825184
P 3.672594610925463 1.8850523947560887 8.026142982700655 -0.059241302159820555 -1.2307739706814351 -2.969719796322808
Ni 7.952065661302667 3.9055591462880708 8.344462103593456 -1.0098056516910414 0.7608907268890508 -0.5327595716016309
P 0.7303134501161778 4.555983373435676 11.64549132191071 0.667288173640541 -0.29619596927614145 0.14407202275297123
Ni 3.1280767601615955 7.262923073073513 10.241100513992397 0.7490245715790842 -0.5379791681293574 -0.19266124451558433
P 1.927097898982232 8.87232027583054 10.59257586054358 0.5754051741862993 3.7712784332448663 2.0270690452117086
P 7.835735465260935 5.527241894229984 3.486964907907231 -0.18660012592316896 -0.36194704753002177 -0.8001229329167963
P 6.982742597739285 7.326267823302861 9.940426311521549 0.3596806200933483 -1.2967037406050248 1.2620959207231683
Ni 5.30369658405789 7.0453961132433 0.46771429960917205 0.6089349305126287 0.8442664602032299 -0.4038668276922593
Ni 9.156288717459585 4.453413356659537 1.9421244202646308 -2.3674165121940844 1.4932707479329184 -1.7113023528924913
Ni 5.121791253739743 5.156629483896433 1.946535419458544 -2.243887346589471 -1.0807591000814678 0.5249958684958119
Ni 7.289853577972415 3.4777770159381296 11.284492604137062 0.9741436795130578 1.3567755090859406 -0.8298194315399644
Ni 8.70474654548426 5.404902564309374 10.020929350926217 -0.954001657347544 1.2382792779195448 0.6530548036499785
Ni 8.249600736474209 1.7171007894266268 7.737068620567166 0.9702746834759548 0.2752877583685646 -0.01252075817483005
Ni 0.41271782156922443 0.779216002817606 1.0580665425402973 1.8225696704106158 -0.7311502624018247 -1.6518684751058907
Ni 7.469832667522639 1.4793529097647267 12.242362369124857 0.9274892128793124 -1.10372573617997 0.685335003839923
Ni 7.1274594998346155 0.6013696028066035 6.209832498909299 -0.3694940066393443 -1.1158626286528202 -1.030397102689148
Ni 3.2880008262142115 4.431717802747142 11.172572485642943 -1.0941455486907028 1.1750815622151374 0.5664394803525793
Ni 7.206942276784694 6.517007072737161 12.156516546116531 1.853237017587486 0.8971309123024291 -0.10191904353400513
Ni 9.096234244522813 5.639148188029597 13.398118811280456 1.2600804329550364 -1.4483751729718088 -0.8343844252028275
Ni 6.9896733779186055 7.080354157419049 4.723723921762336 0.6233984142361264 -0.6335565857160508 -0.46594148553581693
Ni 8.113178651082853 5.365603566058548 6.072417800452367 -1.351269491666047 -2.677575628518537 -0.8512542043749727
Ni 8.436317060480661 2.7851598211563116 0.5922877001620526 -0.6382573336258298 0.17037209410008078 -1.0633193073384655
Ni 4.215895888572747 5.458901821052245 9.435456303509628 -1.7883727128139328 1.7726640438294246 -1.6342960134397657
Ni 0.7840454294319196 7.665949783793595 9.556724680429125 -2.473694089807101 -2.1254857320194107 0.12984019542430542
Ni 5.494846026769465 7.964212959542487 8.430617599758731 0.7812939731357512 -0.09317729278563308 0.713771661914061
Ni 3.2399461881091898 2.818753828807406 9.728510334368423 -1.5891829231512116 -0.7487039550148719 0.3886029595546533
Ni 1.706345177100474 5.590107388383103 9.525443083345838 1.2417309839135713 -0.9130671239167114 0.4115670245499944
Ni 5.222269133413879 0.3306406102834029 1.6759686366842212 -1.8993641509628516 -0.11970027877682611 0.26575565050841327
Ni 3.8254865157057103 3.211494966814559 12.99810957054802 0.41527532663951705 -0.36522828938445484 1.0754826821738768
Ni 3.4520446512298015 5.719626342984153 12.993456178377091 0.10773205067135641 -0.4782002482985119 0.6880542025432989
Ni 1.7081792532383526 2.4715696674310768 11.3444788752476 -1.2029309803272379 0.14019839873017792 1.6868203085907272
Ni 6.8223024097584215 3.2779733144654077 2.24526771317436 -0.7459420759990185 0.9319621610490014 0.10032907333906592
P 4.285074659883889 6.5888678347825875 7.235998098052415 -1.7153469552755105 0.1737240412914492 1.1467860577045539
Ni 6.17948176458946 9.091773476428676 11.092756072732106 1.5803776661547557 0.8782952676531649 -0.4094795458933464
P 3.4567726967510666 4.805555975132241 3.6204404900760765 0.24493459999800396 -0.2159765222027571 0.02155381491137578
Ni 0.35247441114086303 5.956664554994712 7.630449811593187 0.7933367632328983 0.4683500949773095 0.729853397967272
P 8.841168630875618 8.50759718535681 6.171779566456669 0.40466078434846436 -0.3952297208425516 0.3190916429273924
P 7.344516420051603 1.8715779258436336 9.668941569031986 0.31369181206805974 0.38373688971160363 1.5610655960897049
P 6.589135112209715 8.950319202236908 0.013975844499895532 0.6741874718635357 -1.605415840070306 -0.5562059755500292
Ni 3.3928657422784503 8.660489090137057 7.930112968072449 -0.36553630754317695 0.31407490643909136 -2.0287042668222868
