# total energy = -340889.98644928803 ev
CRYSTAL
PRIMVEC
9.08526943164733 0.00000000000000 0.00000000000000
0.00000000000000 9.08526943164733 0.00000000000000
0.00000000000000 0.00000000000000 13.29721016632209
PRIMCOORD
 96 1
Ni 5.94589089396542 2.3005719151688644 11.45948286566431 1.284926802574755 -0.8251544219641274 0.08025210008353276
Ni 4.5943207930251475 0.5541123972061135 6.0951882173394765 0.011725515967044322 -0.30412756541839236 -0.03091417308035321
Ni 2.620973025509063 1.7135544892827153 4.799401670459454 0.7254511551345183 -0.47633774116847644 0.3826673107965087
Ni 3.8154224776027594 4.102571501972189 4.906684165535199 -1.0494047541399023 0.4640879772668459 -0.23296997143696008
Ni 5.256437055696645 4.268822846556642 2.7649818135706643 0.014767388117161665 0.37154574696205045 0.18136407433521023
Ni 7.2660804744294545 5.980151444838581 2.6972593070038045 -0.1198997963821419 1.3252609834174274 -0.6414622137163728
Ni 5.014287370620443 4.820680279899928 11.343265008142597 -0.05497764178746016 -0.8944600503384854 0.6967149635420905
Ni 5.689359227443393 7.607677518258671 12.467995919984247 -1.7515532299927385 1.1218116471474033 0.33173170028890614
Ni 1.7229849989104906 6.588301207328011 0.6433152061939263 1.9754158398117914 -1.5857296744952882 -3.3070539304001563
Ni 2.6828982216775765 1.7401198169817664 0.3260512393744123 0.44227910892187056 -1.6064347682531237 0.3550364364531176
Ni 0.9285417875602379 9.145595579676113 4.517248635728091 -0.8302647466074992 -1.0750839040735616 -0.15290607610483345
Ni 8.443985650962285 2.37101000875667 1.366035666864497 1.734403200576013 0.4096564377908429 -0.9765926552741827
Ni 7.068366841944246 0.6862676342933808 4.8033773843449215 -0.46629372666891306 -0.022124085592548994 -0.12353893579662596
Ni 0.6919077695312642 7.310234883669329 2.3178629998736637 -1.0608446205457278 0.7845610739227972 2.5888538004010964
Ni 7.791826843543237 3.845767277368433 3.784917777095805 -0.025921090741136004 -0.537406583455339 0.190775083236465
Ni 7.565458271399065 3.9805563340521286 12.794349698829377 0.8569471409946919 -1.0936891778795745 -0.7787799484646458
Ni 8.035384745375032 8.723966397782279 6.913273116698782 -0.06424775423547645 0.5898190356187841 0.47092814011713086
Ni 6.7534804901243355 0.7093487611810141 0.27788750075232593 -0.20792665531508706 -0.651320337457375 0.32445213590835736
Ni 1.7190329067254402 6.727732836670467 9.230963496454018 0.023551562067694924 -1.1354647191544638 -1.2650107803771182
Ni 0.09657732215242297 4.8608825969547516 1.5587387732806142 0.28821449373256164 -0.30094685369756563 -0.3112487498442059
Ni 6.680789249727581 1.9510434311613745 7.05709565673787 0.2589180587612896 -0.25756411583655636 0.970086992945181
Ni 3.6002832984257642 4.160508264878089 0.42463004637365503 -0.8366364544617979 0.19534341933343777 0.4789990900507234
Ni 6.27408716544303 5.4686507781297635 4.908784679818379 -0.28687392054426725 1.0813933912313571 0.09187657169633853
Ni 5.330509257040818 3.0452823618732188 9.144225521051963 0.7159419300925025 0.0925820824037954 0.06838928720767577
P 0.3165980165731596 5.310539834919575 12.616007677739487 -0.4129909014807146 2.6080748534142377 -0.7415696579629357
P 3.845222161204978 6.0338998985552665 12.835411482368581 0.05929863776031723 1.4280405751795147 -0.19622376505586206
P 2.245769570202832 8.635566726608623 1.168961637344408 -0.0837724545319654 0.7582054667474039 0.06892253400332647
P 6.326945262759405 7.800857601317812 5.891249358267608 0.14251342001659972 0.12102002602951414 -0.5988832027035815
P 4.699737173767996 0.8286728723074844 12.746333141571425 -0.3481268538174779 0.5535032319068856 -1.1929345312361583
P 3.9649115001609636 6.224972199115713 8.276369698915317 -0.7059513945386939 0.2155047247726611 -0.9300775424317789
P 4.706024180186514 1.2018448613779056 3.8806310901291514 0.4362282747421003 0.4429149427336565 -0.1802901245447411
P 0.384415009941685 5.675649555932493 3.7105466703886694 -1.3459578496451465 -0.17110588694231177 -0.8201957924072713
Ni 1.4529526220735545 1.244936294099041 2.448840786047868 -0.3488243941051347 0.2588041588912446 -0.40581212434408814
Ni 2.057713579080171 6.654387456877567 4.570437436850296 -0.13798493601862688 -0.5519808817250881 0.5734447080258189
Ni 5.825829058964408 5.5643731764325 9.22077709241292 0.9339143996793657 1.0271546844924504 -0.09101242392383035
Ni 8.611926855653449 2.34899640102247 10.288649662825375 0.04317062185020307 0.011524455699831765 0.8121626376901497
Ni 2.4168361075644724 5.1619139129535085 6.845350734205323 -0.6971101420979801 0.3896910504125095 0.9382647062282616
Ni 0.5496388105580243 0.17336056788284768 9.582049195635113 -0.73593559960561 -0.08398071388802957 -1.2358048482371233
Ni 1.3813516140037108 1.2279831814155835 11.658860919501937 0.4746485263915116 -1.610088305845311 -1.1856984184990353
Ni 4.197221838486798 7.018706759453475 1.784365987442488 0.8812296676911404 -0.4658219292388171 -0.8022602909747731
Ni 5.602985571343912 8.134641313470837 7.95731684255273 0.6835609426586357 -0.5812071255800572 0.684029397654622
Ni 5.802679792556343 2.9150813662319384 5.1284946580259465 -0.38449125137912493 -0.272529221786821 -1.2193855263388353
Ni 0.8682201414392218 7.432231881050608 6.899589792469118 0.6474384859044657 -0.2292660402228116 -0.43488795866412205
Ni 5.111045489633745 4.680676278585846 6.974347023125366 0.48525021316675787 0.17380348837913293 0.4557056667404217
Ni 7.934656363637896 7.445759847173688 9.454595585457646 0.593899376335745 -0.24934558458150605 -1.5108354962895592
Ni 4.672417768709499 0.14984516511832838 10.557532753084358 -0.5930761091035012 0.35465797006777633 -0.15765850318815428
Ni 8.286619699842152 7.452219473710633 4.613413486650167 -0.37379571933849176 -0.5131045163748648 0.33586654839288604
Ni 7.387196200679815 6.330806502250546 7.093463081582785 -0.5287219111971475 -0.9814103883778001 0.6152590729584436
Ni 2.5773728177020363 5.186780295276457 2.7368719900751564 -0.2500438962001113 -0.18809110864639866 -1.3354268682068358
Ni 2.2561722036554364 5.339776231819558 11.428061461475812 -0.31831722665521306 -0.8047056671914721 1.276163711670144
Ni 1.1159890656337075 3.565014282650211 3.6870903218751914 -0.2761997286598727 -1.0291285203893696 0.12578556573895755
Ni 3.4450796414206706 2.7626759721992484 2.770859074339651 0.18672688130902035 -0.2774598263192189 -0.8872820445328073
Ni 1.1833835939755553 3.253116984459914 8.176866920019018 -0.20694269413526295 0.035995187147686396 -0.5612815903007237
Ni 3.614710706218546 2.8968108894867974 7.070339253929014 -0.22170082628104398 -1.133933113001286 0.20479299478211183
Ni 4.025337626879975 6.724789209387809 5.940621437718686 1.7455193650938325 0.6274234762351194 0.5124550557163239
Ni 0.6092127390081676 7.275620007289922 11.298200254909753 0.38698162190114643 -0.6382987283867265 0.9748803005687663
P 0.20280592597882066 5.634111704277206 8.025637159845513 0.7487358366940718 0.173505754633056 0.8751590360170284
P 8.696492543144135 1.4721316257577874 7.955574287883552 -0.11710552146645639 0.24228662085219563 1.5743229753202435
P 1.7391931195038925 3.0530411819330645 10.41549183437283 0.801949958823206 0.7972234998818141 -0.35766538943553244
P 4.246682045050969 5.9874014898125365 3.8376414124251945 0.40059201359572943 0.5376999463260418 -0.2677418277005066
P 6.953638060075703 3.9848718370128156 10.584512369067635 0.07548810303598612 0.5413259731144032 -0.7843633560896943
P 6.0413225636476495 7.579276966142655 10.35439158066501 0.6819236641655287 -0.1752016542782402 -0.709284572676985
P 2.6535346310061216 8.38767515127736 5.649293189429434 -0.6745805935368963 1.7025372051053516 1.2021131124116329
P 7.020587410217395 4.090460837874093 1.563086983211109 -0.6435530348071303 -0.4710854916306016 0.8317608715370514
Ni 5.338749596378383 2.695871986367811 0.5084988937020586 0.2598338857073397 0.5522819579052747 0.4636089807478983
Ni 1.7240479754292282 0.7663815397825168 7.148220908728801 -1.0005339965811284 1.0257953422510786 -0.6500574115845514
Ni 6.929507584573418 0.8797584335656908 9.408454227801979 -0.45230204037551136 -0.5558804738898103 -0.5757340182806278
Ni 2.8318875544192803 1.6857626502158896 9.222173498318304 0.45127565599352604 -0.9222765583301213 0.45718019440341906
Ni 6.553232067479059 1.9539052910195145 2.5494610530792503 -1.6455276204895275 -0.24204056627966056 1.4617230550336244
Ni 3.7953349469794344 6.765518472067305 10.529980765129451 1.6937851699443343 0.7382804456887028 -0.6280415694350925
Ni 7.735207444699021 6.964531298075416 0.08373075123366151 2.04219844465398 0.859778954016532 2.480241146896999
Ni 7.87092319886059 3.920121122063726 8.547140708153735 -1.026419863208955 -0.10040594932358836 -1.0501015230966109
Ni 2.9070954144373196 8.183192993095915 12.330742029714795 0.48682861339747124 0.47163802169996194 1.073709649433854
Ni 0.3402760456597763 4.699582724188351 10.17602230376695 -0.5931128758787075 0.9587103756771229 0.3119771433697982
Ni 9.109890470969797 1.776815220051694 5.864042610549558 -0.4445907877741827 1.7547429405746295 -0.8831145434186791
Ni 3.636379073715891 2.680999400374874 11.627133341734964 -0.5302653444248674 0.17590999319917447 -0.6491631819050562
Ni 1.0992994257625868 3.3300873867397915 12.49907208393589 -0.9519159784631089 0.4718210842450455 0.8381518626650598
Ni 3.208208497860594 8.551845969171293 8.140019792950262 1.1004439801049046 -1.6687621655374356 0.39252440609624656
Ni 5.358655421613889 8.1412826453956 3.9535131211831147 0.24242366065069215 -0.9184975509036633 -0.7616844264349398
Ni 2.9409380429184977 8.455769245362308 3.224985356317868 0.06480799761432064 0.6031615183639613 0.8806714811948252
Ni 3.45888925089487 4.396661672156283 9.401486734706083 -1.0318135234207004 -0.11546772875271727 -0.26432123205473185
Ni 7.386460293859151 6.059620296200962 11.409963604849098 -0.11824014929153184 -1.3037056258441548 -1.488372796410669
Ni 0.21351745859071583 8.959747309015444 0.09423423117650459 1.1920919807302053 -0.7981976908696254 1.6104240919181747
Ni 4.424898689423263 0.548037077564405 1.5998141847239045 0.6246507985859887 -0.6220385577741222 0.5305455946694475
Ni 5.882911806547561 5.520009805996636 0.3088473732557654 -0.9265589877555591 -0.3965972906140396 1.0098915265366284
Ni 7.92175528110279 8.721195390618048 11.513482072816187 -1.2153692060905907 1.0347602647538503 -0.55418431713431
Ni 0.03893583050172847 5.1629496336640734 5.827408987311489 0.08782862687921002 -1.0949611026134627 -0.27763517555481865
Ni 8.113072883936791 8.883067635356078 2.4330042529725544 -0.5603616495896157 0.26734613492398474 0.01746936042935701
P 8.595037339855729 1.6033320010320689 3.483775620810479 0.14495262558571165 0.799506639489036 1.162327604983579
P 1.7355590117475244 3.3497569949711337 1.332620046044692 0.32233071868998037 0.0002002889362641712 1.7391664262926112
P 4.820126078467083 1.1194051269246936 8.423144042979514 0.3824783347141542 -0.20592273751118081 -1.0703800708399889
P 8.437925776278542 1.6354665988677544 12.54242062978079 -0.07717628937168644 0.3487202644271027 -1.100274544406576
P 6.360415395195555 7.966990837400183 1.5619031726094719 -0.7809065078893453 -0.8913294751293037 0.11281974960690891
P 1.7318794776442015 3.3993898216537324 5.796147483864271 0.49526671686249535 -0.20421912455651278 1.0060965782705706
P 7.2278587461018535 4.012109474646795 6.439971465144089 -0.8756514022724144 0.38801237715850595 -1.0566274971405867
P 2.3960671817368286 8.480190449485104 10.2370698629123 0.05796500655055824 1.3462650964729201 0.6149991344288376
