# total energy = -340887.7959275807 ev
CRYSTAL
PRIMVEC
9.18575273788428 0.00000000000000 0.00000000000000
0.00000000000000 9.18575273788428 0.00000000000000
0.00000000000000 0.00000000000000 13.44427764201384
PRIMCOORD
 96 1
Ni 6.469378678727844 2.389067314149196 10.987820135748855 -0.4008272695349871 0.08299598137725707 0.8519820836799327
Ni 5.008935851500559 0.5319937881825952 5.823052581987163 -0.4576856732849279 0.11014888764296514 0.09063472886943745
Ni 3.0284691904787557 1.7915800275462734 4.61754470612089 -0.16073637078252964 -0.6289591961533556 2.0691551757484814
Ni 3.6422611881850706 4.584012115764307 4.730396271338204 0.8394363858044381 0.16393148068105962 0.02096194696364777
Ni 3.712008608696655 2.966327573231177 2.789042545459074 0.7761815916098503 1.1233733352075685 -1.032428788407196
Ni 5.510606551331938 4.738525662508065 2.7592228363576976 0.11354891446344961 -0.8764936956680517 -0.3916309477476997
Ni 5.373996036667342 2.8132102609030327 0.808524444221958 2.100659674114666 0.7308437869049994 0.18305586021533637
Ni 5.8265137736174495 8.183127823356344 12.469500423297854 -0.5482144727041204 0.5224054820608165 0.13083572656835532
Ni 1.781953358680721 7.016133052979194 0.13684566993459446 1.1414114236562019 -0.5675561104555258 -0.25466853945631623
Ni 0.9701900180446469 0.17156781527027046 0.22836424300175678 -2.110011033422579 0.09690127860443958 0.8912520849241489
Ni 8.194334441692197 0.09934942727315807 7.0121987950830915 -0.14007678555064906 0.6078609807221597 0.020330226916919825
Ni 9.241234680821032 2.5067551781811224 1.2405478482465562 -1.4053300209558766 -0.09591808875556385 0.1830797714747363
Ni 7.266049827621453 0.6985158694759115 4.715781738737923 -0.6735094719599046 0.36459348401393343 -0.2555774244238308
Ni 0.9945873773069631 7.6815949098159795 2.315494946199047 1.3195166247344823 -0.5552315274519019 -0.1744930582469898
Ni 7.919946821765747 4.2321702287821905 3.8210655394594273 0.48253898488318187 0.13055984719914934 -1.324664744594325
Ni 7.936692449000386 4.151712220582406 12.59537922304296 -0.2433795968060583 -0.15402013510461862 0.06919224272494535
Ni 8.505134385457433 7.806631376035351 8.992675560432902 0.17964991985758091 -0.7892188844097828 0.1142323136837194
Ni 7.402246983413005 0.7339232719655667 0.43223100203639336 0.907887893708617 -0.09085224419688225 -1.0049843190429983
Ni 2.442170150706218 6.648170169948371 9.404204631531991 -0.85482006734936 -0.23245703635628354 -0.28783268491311076
Ni 0.3074857241787 5.270527717868121 1.2087357493771083 -0.21716514319421953 -1.5202429056463882 1.3412925829589932
Ni 6.545941927768282 2.3849153539132897 6.851687870379105 1.7086392042380316 -1.4524897093608145 -0.4567073685320586
Ni 3.8457990972718195 4.45151681832468 0.36455496876639526 -1.1390688915659544 0.9612729941979768 0.41584354043816124
Ni 6.399034184288529 6.014803333165251 4.730113350153988 -0.8698191118613535 1.3548836913798665 -0.018298541198871712
Ni 6.1317655227311665 3.5931817113256748 8.657644519529839 -2.3294660010922397 -0.457016158021729 2.3088889482718367
P 0.4614958916726183 5.632529047374379 12.55250564073086 -0.02515824443318248 1.2850802974334836 -1.5070467186710885
P 4.213807909066314 6.343533866267853 12.646534680020308 0.13777616244193044 0.6339787608551339 -0.8639757657066991
P 2.811216952559689 9.11368131835246 1.4303631613235253 0.06357566786911631 -0.8596578550576356 -0.29015567661933256
P 6.580076184928963 8.022239364214977 6.01479506598779 0.8996788755352634 -0.15521852628809396 -2.6607068777876566
P 5.122067582176271 1.5185794562827044 12.50656585415605 0.33459745187247536 -1.2242611092635818 0.42825065585326244
P 4.41862263778313 6.473751097029373 8.243842893204285 -2.117718686479482 -0.1329391460646033 -0.2979273501449514
P 4.942559602242466 1.1618783061041407 3.404816828605453 0.8869084632434725 0.042235768740759516 0.14764996991221668
P 0.2791623741977414 6.019965726201931 3.5706123168574857 0.27341290994335493 -0.24450651132164988 0.4455495521430262
Ni 1.1520862936893708 -0.046388969883517844 4.321568730118275 0.43591280038421054 0.023596299262701296 0.8688688321329424
Ni 2.0850280843964075 6.809288272908095 4.674561591918001 0.4306476953305292 -0.3194017179686435 0.10344602170149281
Ni 6.240965751236594 6.12940478427845 9.16535393320875 2.0799093289411923 -0.8164957178478648 0.4270057277025678
Ni 8.77962304866396 2.7418277764047425 10.448933358714436 0.805161009561336 0.1624960337861137 -0.5662235076870313
Ni 2.553767860675299 5.365177714042409 6.915924757825378 0.7291391455090669 0.9204377053491696 0.970156926951168
Ni 0.5957144363252014 0.6463251781654061 9.049128441012126 0.3542224251922545 0.30560749239802854 0.27901585795242917
Ni 1.7386700917966722 1.3758236730388578 11.776031206374169 -0.35573629073361956 0.9086975340941059 -2.236717054093277
Ni 4.184725815909501 7.327722971479582 1.1458197731740274 0.10405974402609176 -0.15495730220690732 0.6963568088717232
Ni 5.982487855045964 8.356949822347612 7.933589501726738 -1.127181396099749 0.5228590246584672 1.8743136357521268
Ni 5.679826488203321 2.775897733296283 4.72132074763671 -0.3037673538654962 0.5277670034830458 -1.0282993396198548
Ni 0.8548298237555937 7.7225082524945785 6.837248785656049 0.6682983600726102 0.4763071450408571 -0.08207501222488445
Ni 5.484895629428617 5.017359186757918 6.935768739457299 -1.486381219901937 -0.04506192533564497 -0.3876092281828163
Ni 0.8111047221650245 7.476982267659317 11.230502211537573 0.7508135451587069 0.15844886029993357 0.3729133167335384
Ni 4.729450138806571 0.44523802790817046 10.113484366061963 -0.27253924908914995 0.6939533416365533 0.4940613837004845
Ni 8.535833171095485 7.869278209683316 4.852644861602713 -0.8093974162401867 -2.0472378068501 0.18335436529236165
Ni 7.567213916768403 6.301582533530278 7.043981499543789 1.0937560265617678 0.19050640295611063 -0.4558691889014794
Ni 2.611233929781117 5.58269633879077 2.2699179968572416 -0.3816437546280008 -0.24397069342283786 0.5696901260793931
Ni 2.7297301400536615 5.23647613248205 11.575012030687168 -0.9718759665248038 0.40917487016873405 0.10047228378514954
Ni 1.3718370563521691 3.8710415457856917 3.9272482481916358 0.07699399815755127 -0.594481731201776 -1.2688345249985824
Ni 1.8525550541965956 1.4315260776196883 2.568811367928272 -0.558198837610342 0.5663705747878568 -0.45212283448516977
Ni 1.2975702454953064 3.5575134334583653 8.301074725615377 -0.07319133658200944 0.4315925757423019 -0.695594476784402
Ni 4.185919963764961 2.852231338518364 6.6754472626928925 -0.9411314862530954 0.9303400520645462 -0.12606941552796352
Ni 4.406368843635566 7.371768655840578 6.160114592819781 -0.42882529740980985 -1.0381998865630184 -0.6794916576852684
Ni 8.45842483280349 7.217016279525728 0.2699757028881622 -0.027990057455022765 1.2399376394585742 -0.5815349412331211
P 0.6130562189122973 6.0045612188665 8.049196792764345 -0.17729504647215918 -0.6421368711858941 0.38135939061836255
P 8.654476353411777 2.268063393380185 7.711194160851733 0.03131217984972027 -1.4814997234399194 1.0463826794841269
P 1.7924251167978298 3.4514455466353358 10.44726614459316 1.4796837532771032 -0.4989791327170761 -0.012809493059842456
P 4.284042174472816 6.329819537435535 3.523462766647567 -0.3349388943722941 1.3666022653683754 0.6123154169490874
P 7.2082806286754035 4.484245655317011 10.397709927166852 -0.4673111121898339 0.2270736605571831 0.9341211163735332
P 6.719424053908382 8.240143790578179 10.18098862575583 -0.8345278927592273 0.2906647550452672 0.5082374180905506
P 2.6907917342129393 8.858583779168054 5.936508569734395 0.18050044078333427 -0.11288197030341204 -0.4961311217453198
P 7.237739337694323 4.160365199658123 1.435862671485554 0.28811087827516185 -0.4665125275479385 0.27439995644697257
Ni 3.2327695170424517 2.1155707122379743 0.37161330116743585 -1.1585380560341598 -1.7216718690522737 -0.4559072412282664
Ni 1.234390638188751 1.2618652246170596 6.636202971286118 1.0811542786373571 0.22281848482525496 0.34132731439714126
Ni 7.103030273845728 1.0237245849801813 9.218203242990306 0.3724883133809779 0.11528466620763371 -1.1085383270772649
Ni 2.9441347946250938 1.9416844129775652 8.685702401256778 -0.32525483431531077 -0.6204480733585509 1.279900553004757
Ni 6.954368051593722 2.1187306111785755 2.5202913034103953 0.5036559693674552 -0.1519552821557899 0.4475722390000098
Ni 4.605791535497346 7.213920680854267 10.424612241199814 -0.6954479239042087 -0.12091666768243048 1.2689900767398403
Ni 7.519098943946109 6.700051301391731 11.466153512183455 0.39249329574799496 -1.4033759825532992 -0.4054506272396114
Ni 8.225878316581802 4.3253505045189895 8.429051551285 0.5217845606473659 0.8699708069478695 -1.0204145375551392
Ni 2.957619479639055 8.89812844468924 12.691680817558876 2.7218248281448996 -1.002632273871054 -1.1080037947300336
Ni 0.38575844180299335 5.2885042359691585 10.236580801303848 -0.08625588307545146 -0.4327930238083062 0.5354065223061747
Ni 8.747188155759126 2.5913100321004072 5.509344428906245 -0.1687947223106319 0.4648215129987608 -0.4282041188860432
Ni 3.852697597575283 2.8140645359073235 11.389723456557665 -1.4200588425256189 -0.42505297485157123 -0.7921304016296229
Ni 1.2186095149912135 3.5604528743333432 12.76562428991949 0.3225315218468768 0.2193184420917965 -0.25532339943149573
Ni 3.2498642028809948 8.53430833614159 8.144678099561085 0.13536678166948946 0.8867706521140277 -0.3245878901552733
Ni 5.829315428201412 8.1080894092698 3.33930312152911 0.1410309219338023 0.36040901361894057 0.22533636615110225
Ni 3.5018018431248 8.614150898908175 3.695012210412369 -0.18200170791920914 -0.08710768955278546 -0.416082910142477
Ni 3.659337502518145 4.456734325877766 9.458372096830919 0.4258960395781569 -0.1565308173416143 -0.9135893149687684
Ni 5.381491610898536 4.37714896418774 11.949542726923017 0.7547928415214292 0.505435172755065 -1.4110985480085376
Ni 8.246316616415633 8.750449097979805 2.6392330226905543 -1.0374735499199552 1.5420875123253055 -0.6067235246836067
Ni 5.188094772830461 0.43401854951848934 1.180811979640092 -1.0847995886994286 -0.08657881363250897 0.48289019757501356
Ni 6.070762938822641 5.680285775840036 0.2409312713175606 0.9025024610269877 1.3499314895809138 1.2705494508071602
Ni 8.44989126851332 0.07021221959994 11.321655191645911 -0.48819438339674626 0.1359653344854368 -0.1266427715329303
Ni 0.4611670417247302 5.134532648636723 5.694995840268753 -1.2119236707441514 0.34847575251646434 0.8038631166855189
Ni 7.5401618749658725 6.454277301232644 2.4040786712675986 0.3008468377845916 -2.2448160290513277 1.209835163646239
P 9.037081326301085 1.480835198297442 3.534890761624317 -1.1155391838751305 1.1110443813285704 -0.46197324491668823
P 1.9545995813219992 3.5125675453294067 1.5076952578678255 0.6550579501229363 0.9759161980324483 0.4120210813682775
P 4.916738451306332 1.4648979173034213 8.115113754385723 1.3456796562830955 -0.7618541192435847 0.3714143635905087
P 8.892341420466627 1.8546494058200174 12.438752953170312 -0.8133574293291993 -0.12444422121971471 1.6313736975866484
P 6.514039808522038 7.799604275193607 1.1985772254282394 -0.13390999461830486 1.2794305553468739 -0.8140865941857399
P 2.126850816595702 3.448671449309576 6.024797432140176 -0.332323311126318 -0.7767374641133203 -0.4046394441922257
P 7.147158629981333 4.298592406803957 5.823307945913177 0.8752431110904023 0.03243060972487963 0.2844095181641747
P 2.3475660832956025 8.956118101700913 10.22271950042778 0.37250245444836494 -0.36783975886537296 -0.029670787591555354
