# total energy = -381171.1787685299 ev
CRYSTAL
PRIMVEC
9.23188728689036 0.00000000000000 0.00000000000000

0.00000000000000 9.23188728689036 0.00000000000000

0.00000000000000 0.00000000000000 13.51180021782911

PRIMCOORD
 96 1
Ni 1.7967745610052692 3.5103328884309146 11.949755130404418 -1.2657975379444717 -0.5218771203611722 0.64936681327543
Ni 2.598342421753488 7.963389196899204 9.519320431426555 0.5053107313620588 0.9265006237137979 0.5351974916191622
Ni 3.0070011521324136 7.155894464400584 3.437982586393693 -0.13047011569882047 0.5830704040410409 0.3593448340204844
Ni 9.004422986516056 2.890282398954337 2.7647850439889434 -0.5282354584790321 1.010078445736454 0.770308420658525
Ni 8.641037432249231 0.78066317477998 1.2933172710372898 -1.9677827487465656 -1.2463180890636214 0.07096424702370359
Ni 0.6261269178038585 8.924770261496642 8.755606078837483 -1.0483747702134913 0.25211286291399804 -1.103979761172305
Ni 6.887375785690028 5.892898404542451 8.534404516123045 0.2698344485634772 0.973680109613078 0.3210487666537632
Ni 3.9233859972416028 2.3081657350578206 12.175956683368103 -0.08116561303673764 0.8449508878647642 0.39206752106448606
Ni -0.037014329588877834 8.476469806357244 11.001848005557308 0.5375222830975969 -1.1530613491903043 1.2621583985299876
Ni 8.004738820840089 2.288086379828657 6.05782699723419 1.290765520743719 -0.8103759781033721 0.28400894029164636
Ni 2.986506361967474 4.186180905725914 10.235675201337187 0.961173749615951 1.0316451161636362 -1.321005550575183
Ni 3.1326656042608634 0.48006553351756337 11.183838972655733 0.14938109367071045 -1.5908340856013894 -0.41628936972632824
Ni 4.9553540733710815 9.05272422171559 9.226290168316481 0.2883119385423744 -1.2417543809523388 0.27435907590670816
Ni 5.1535257696236005 4.998226958743144 11.079189989145062 1.7487463566715624 -1.4085197315377678 -0.5616052921887296
Ni 4.442688898848818 8.497536973544808 5.1960303026859425 -0.6472055439580531 -0.1358645472415144 0.768696853197031
Ni 2.3338026865389185 0.4790250998006315 4.174200685366886 0.5185300582658101 -0.5999892912835667 1.172760884501761
Ni 3.614542434098409 4.864669242834954 7.55747418347389 0.1575381755602061 1.709189934535179 1.5498270470614082
Ni 9.314789811090428 0.31927005684241977 5.186558386150254 -0.6975605993718373 0.6364753020247426 0.29864005994125986
Ni 9.19379669401759 4.541331616376916 7.928562824638745 -1.0278046593716235 -0.18576657427828006 -0.0040530870234510834
Ni 3.2351210913106376 1.7205560981216022 0.9118455260442784 -1.20896973032215 0.37373067042851116 -1.1439776417214815
Ni 7.279444814300307 8.494832030518534 9.253326673936773 0.8638248419511316 0.0653355879830165 -0.30438030485914674
Ni 7.825243232922557 7.922851979054947 3.0808257865972664 0.26295931871019873 0.23734701745873316 -1.0303755054225932
Ni 0.47709286575490095 7.1813744737948335 0.9382754966583349 -0.9602162707986882 0.2433407731483228 1.1580477466613024
Ni 6.762726841182364 1.6466363752158943 9.273621132143791 -2.8357954035268 -0.5168860949044841 -1.3984021834877916
P 8.144685002871764 7.911035163103992 12.851154775785801 -0.10082169670476829 -0.2740723979042248 0.4054935646624049
Ni 4.282589506488285 2.1803964125881072 9.670597832128703 0.5096597523593739 0.43473394958476097 0.9265764712570559
P 5.514594120137543 0.29220216280476086 11.210362185333151 -0.059601770823032835 1.1668242073023516 0.9882533794415627
Ni 2.3766109486987497 3.588093076520683 2.7157101766201213 -2.523561149840873 -3.5982434476006415 -0.24996470622274367
P 8.059927044086038 0.2804130425161897 7.270578509582106 -0.3505809717849253 0.2491704924562225 -0.35769212890840985
P 4.823134981144835 6.762948406481445 1.821471706342768 -0.11451642058304148 1.7304491010242715 -2.1391979393991805
P 3.264220000589867 6.101834481575294 5.255482734750444 0.47006013568988075 0.7646334817609348 0.7775733297510543
Ni 4.136504119294589 2.085566464581684 3.3362388778672143 0.08113167447500867 -1.253321259854332 0.10134388775682546
Ni 1.3482802362291746 9.0952001359268 -0.0505722795151077 0.5902725782164351 -1.740819645625318 1.3936692967884965
Ni 5.517880672073902 0.8390511702201499 6.929742763629191 0.27965940507369896 -1.018386194271201 0.3387564683461714
Ni 6.869124344178278 4.13700264121752 7.015029709566471 0.38000004837699075 -0.4379557989561683 -0.7687937837862114
Ni 5.429753074364663 8.57993156914034 2.95058508785406 -1.388873675172066 -0.1368017143438031 0.4239026632972118
Ni 3.241648035746049 8.926718189751059 1.9013404575287849 -0.2902682909377969 -0.7276581900881662 0.08909155275203366
Ni 4.18687329728554 8.58079936656174 13.230755217190328 0.0671628709997424 -0.32546129389916206 -0.9103497249855483
Ni 8.892938713528753 2.2389358109826483 8.39700264227581 0.32853607616974384 -0.48957506579435683 -1.384093223064287
Ni 8.835248648780688 4.57889616645851 5.3202176528205225 -1.1276534506401612 -0.4614477114305214 0.30667552865122666
Ni 8.351959340161503 5.465683580365539 3.1530052987164465 1.1529903867430529 -1.1189212129734858 1.473056734878889
Ni 8.873607141183987 6.700919354626386 9.368933907864461 0.024305666624900076 0.18512765514270052 0.3021768694499248
Ni 1.6095241876199227 8.369306056702008 6.5832330996423245 0.48851217174748124 -0.8602489516744152 -0.34513511817900566
Ni 3.200270716142779 5.445059543776135 1.797353400349117 -1.0344949269076056 1.7403761303299963 -1.648749984081567
Ni 2.146339979741953 6.514472155450206 13.193854439817228 1.5220025686499725 -0.21416312314310212 0.42723764120771585
Ni 1.3416240453693002 2.7065955341292005 4.770192876118314 -0.7300999667604394 -0.11412921244695182 -0.08940471311707827
Ni 6.1669654476174784 6.142547105281323 3.2481555932177906 -0.24517525525390035 0.43192064850568196 0.48998875629300775
Ni 4.703055820930706 2.8885837316613867 7.460324262148346 -0.18687909061616848 -0.5953687617924198 -0.48948302030118285
Ni 6.102979235620543 2.7693262094313464 11.503176422276622 0.1697393456120883 -1.0810609475926027 0.7550170417170933
Ni 5.456442461016392 1.2987696237721607 0.44369005054103416 0.7000435136946911 0.518709521266468 -0.13718249472198954
Ni 1.6941159724313377 5.06358872197187 6.1966875093003715 -1.27611151827597 0.8795782481306464 1.3112117044132126
Ni 5.92593932976782 2.389387880945721 5.136538173505355 -1.1843380478163992 0.6400419363300783 0.19195110582243716
Ni 5.288043601827805 5.739492130591639 6.000239406436948 -0.7523999158092203 0.04850000448291648 -0.028271336140867437
Ni 4.2212713099677766 4.617993209858745 3.760644438689536 1.7377764879236202 0.7757545313747607 -0.2517840188196696
Ni 3.799992589428727 4.555511795518064 13.050980826271454 -0.2896293718022174 -0.19469473000584533 0.0907681691235082
Ni 1.0963420273998046 6.161241677391233 11.257288792489641 0.2448744361840299 -0.5834370433518403 -1.4098250806127528
P 5.530048299748403 4.30426597824832 8.808680199854706 -0.9464408142811507 -0.18404522071179916 1.2583516231893876
Ni 3.6373175004663847 6.61686301928775 11.339562450359427 -1.463321766979312 0.7899079400570074 1.8959376417798057
P 6.953466868028228 4.503139297947928 12.979989458068593 0.38881764666862073 -0.6358327833447371 -1.0394131901448294
Ni 8.47179847130163 3.1658727034605425 11.746956412156102 1.2356490393855493 0.5340505224989125 1.1378105936788212
P 4.053934117837283 3.4969928110487802 1.6131061599550562 2.4352771805917994 -0.4899409337742079 -1.6958122276766925
P 3.804137706899024 1.5264925917895322 5.52277264923985 0.0042873145214442285 -0.8635890717912419 0.6168169043638667
P 0.8312216064638952 5.012813340932606 1.7640059764600202 -0.6296917034440059 -0.2896759087694366 -1.0070985371725236
Ni 6.492638741603322 8.455642668243684 0.74875500214616 0.7677008078323488 -0.8006366393284212 -0.1775974082039264
Ni 1.4536806953792265 5.115416538181767 3.8453230032430907 -0.39317566652700026 1.8783718649819006 1.4234838090467676
Ni 6.083896924237241 7.733542894765645 7.317829155988499 0.4358534079011848 0.44202199860574193 -0.7874880177616049
Ni 1.281986052366818 1.2436183280760573 2.2486200609299556 2.2156980286394483 0.2697370037536645 0.6804187974852282
Ni 1.7703344353150048 1.618903785280994 9.601026328217449 -0.7018795384621653 -0.3929877188859102 2.113006368605477
Ni 6.068313498201918 7.346182128760825 11.164895139584354 -0.4675481679013045 1.73476135524638 -0.11290691000407653
Ni 9.12403132046964 6.596063576836574 7.014854303704698 -0.2747169734667591 1.2572064538413508 -0.9186944974058178
Ni 7.8435131382092305 5.921748052860215 11.323686373491567 0.19065347005693617 -0.41525707180707194 0.9562264329130049
Ni 7.306568099662736 6.694152381116972 5.28510047610502 0.571983292988944 0.15627782079054375 0.48124186333831315
Ni 3.707636787262036 7.365587556205286 7.402467100237223 -0.5213217620783344 0.19542209509017314 -0.8853223497032754
Ni 7.498932938701856 2.7783088359315657 0.8500057278821846 0.36132355501341 0.2818052477721082 -1.671951876119327
Ni 3.3642567331246807 3.6838646770481978 5.58462998798812 0.2649166995468857 -1.7127997633736245 0.31750578649751127
Ni 7.866731335175367 0.9796509698841125 12.47964793011893 -0.9606531012257907 -1.300560909567586 1.413900793344023
Ni 5.97773021842787 4.463700674711611 1.431048723266907 -1.5706177585545142 0.9853673161430192 -0.11195688738598139
Ni 0.7884318080789876 2.970138225497908 0.586220237873235 0.38028544082789345 -1.208883598366247 0.17072407812286083
Ni 7.741094578709302 5.9959908918270814 1.123944447721495 -1.2804448555440011 1.0473509569346673 -1.5869995423466476
Ni 0.03418752564811004 4.93293905061411 13.118391145327926 0.39450081309632706 0.9690930044630278 0.3220586959755163
Ni 5.573890533303943 6.20993988375162 13.156913042139298 -0.44744008429751975 0.7593997441658211 0.746504890481024
Ni 1.4772404721814454 1.456681058804274 6.830904330086905 -0.43590225886124934 -0.3902124701336183 -0.9328553622872322
Ni 1.9260302173563142 3.222187216976818 8.102175853865692 1.1888673031453203 1.8632730616672493 -0.4939909354738654
Ni 6.800125217289648 9.17905336974128 5.098745595803457 0.7701798655004607 -0.19090260995326477 -0.13964586866081755
Ni 6.500808962006913 2.8649131722096275 2.91059070499255 0.2576163092307305 -0.7041189693156453 0.8606546717532662
Ni 3.291795648437919 0.736950187648904 8.11274174906559 -0.7878873100825527 -0.20189227619554906 -1.6491032536559276
Ni 0.29541209007518854 7.366898484224845 4.445301523000474 1.3360938123668733 -1.2394365314524396 1.326397925235348
Ni 7.4632239980000605 3.730771897241017 9.838684653521085 0.2472287953488194 1.7853748065278736 -1.4054765738360697
P 1.3825397705994857 1.34250107467816 12.207330329717891 -0.3006570903712887 2.8785687899385843 -2.324499915336216
Ni 4.611078526149942 6.593755604971153 9.398997549383436 0.5842996484624517 -0.819749191788156 -2.211835460360249
P 0.7505589129561732 4.145625224106733 9.905758008685208 0.010974496733632712 0.22051940437843312 0.6353784694161381
Ni 1.7149061829950512 6.089066781215784 8.75787619996431 0.8691727365266063 -1.2887832002063675 -0.8460929718890073
P 0.9091488917167203 8.430864282296522 2.7061163991699386 0.6917115967902282 0.23076987846184774 -0.050512406927254935
P 6.547586935775269 4.503582428546088 4.613496357476158 0.8552448135916045 -0.7091670732625142 0.6765731984868929
P 7.032417969600553 0.6889323713944444 2.9568276901556514 0.5599209625077711 1.5436800536234059 -0.3849129122975758
Ni 8.532645841561594 1.293664390005849 10.381075582481227 1.9172001507030079 0.19924995347669555 0.2356292634366781
