# total energy = -340870.2095223029 ev
CRYSTAL
PRIMVEC
9.28729041264938 0.00000000000000 0.00000000000000
0.00000000000000 9.28729041264938 0.00000000000000
0.00000000000000 0.00000000000000 13.59288829261396
PRIMCOORD
 96 1
Ni 1.8017528731263126 3.2996627601122737 1.614454234231286 -0.12798257339027636 0.7428891481053076 0.6345624012727459
Ni 5.6658042586129955 6.2432136648459675 5.759917942570443 0.840161951116553 -0.33518803426862276 0.49557602057279815
Ni 0.9396230112720921 5.533293202058082 7.848655512668444 -0.573827031065902 0.8104202010777461 1.823806885251827
Ni 0.09926534383066137 2.2281788025991767 11.369431006560156 0.8549596782510179 -0.2520372724810563 0.11597860695086479
Ni 1.2330270832291155 5.8899622948485835 5.615955657200545 -0.1974689503168728 -0.455778428959886 -1.1662935316098624
Ni 7.919755291513537 0.33066375150514904 1.4290204832081561 1.0306099900309025 0.7111640490878849 -1.832412881753283
Ni 8.055201131771236 6.330532767294053 11.766874089509967 -2.5730623418947944 -0.600121960206689 -1.5237095240387502
Ni 5.280456013688937 0.5699860751771593 9.38901574569458 -0.3455189838809856 0.33494892167462315 -0.7691293127487592
Ni 1.0294125329130297 1.5608034162114919 0.18652407889245592 -1.4905692898413554 1.7568962394722067 0.6225430082143665
Ni 5.8529245815362065 6.9448405774864215 3.408919370738686 1.167354625884525 1.3540455117492876 -0.0026346094093696562
Ni 1.0444858049055041 5.519919504171968 3.198202829607662 0.3237443112080553 1.9854074038068645 -1.1626245673987075
Ni 4.192589276265351 3.1300025427625995 11.102684243660434 -1.0463376851788044 0.09192336577387394 0.09241058982293764
Ni 7.996551894166507 3.0415503909102735 9.44424354559011 -0.9920318726473882 -0.5778333240118178 -0.1575425464355803
Ni 2.955977299019541 7.502189436890224 9.606243605983904 -1.495137368828012 1.2567300284255647 1.0077104597249096
Ni 8.578985724396972 8.275504942574369 6.78643934204462 -1.0152039398884773 0.8196113806587111 -0.8856666204165713
Ni 6.451128230524047 1.7806985862458815 11.668230065393598 -0.16594079780160453 0.3029649125688589 -0.6847541916357884
Ni 5.019232402270376 4.955112950738618 3.5646672273707223 -1.3653557945557842 -1.412412895944587 0.6423397312253195
Ni 2.9366875972768614 3.931179919042816 4.3289266963821245 -0.30036938392754076 0.5206715300888453 -0.6122100017194747
Ni 1.477162080682087 8.853388000607474 13.199278861266526 -0.285281893466799 -2.923013650515521 0.19996600570711368
Ni 3.5773898862139077 5.31511618071045 9.53657964220353 -1.113838656244256 -1.620623658158996 -0.343294465425841
Ni 2.0785326956276804 0.2653118765640251 8.49801541352871 -0.19577947842959184 -0.5083608310422921 0.12887628884913932
Ni 5.05189580189917 5.857252458768796 1.1686215831592381 1.3204702468970033 -1.6448370221804058 -1.209405275197672
Ni 3.2593373460695605 6.853045001162567 2.132887490244535 -1.433149614271306 1.9563909619698565 3.474314989675081
Ni 6.538558780454517 8.880469738826855 12.97445214013663 0.25437029148960705 -0.21231604263203435 0.4155314085143812
P 8.389655026406471 0.7692792493637944 12.680601349521051 -0.023629209383165758 0.5405921802721722 1.0041757070987738
P 1.6071377070127577 2.695682416620848 5.368674125828257 -0.77975593922467 0.8424844286021427 1.9224930236708313
P 9.531174439307891 3.679290034273938 13.373294817719385 0.8000218885625576 -1.6518797879598002 -0.2722134903186151
P 5.629100887747771 2.9278739588783043 9.637629074481358 2.532626088256619 -0.7794216958137028 -0.3270468932187271
P 6.266561912405474 7.691297239915955 1.4739180302156847 0.8866528955892407 0.6577851192461123 -1.634275958835108
P 1.2915927352220564 7.745785771511671 6.691098807051926 1.0676505877239677 -0.41771813175305483 0.8538844429089683
P 5.861831092836751 5.090066564615786 12.620779127164228 0.5109260206663072 0.7818526738526986 -0.7525225574300137
P 3.5954629529405593 9.276656251412785 2.7347670486930165 -0.2978838985015257 -1.434751411540787 0.9299083638437662
Ni 4.836932182960285 9.179641217997265 11.458165492034523 -1.0748738449452844 -0.1505756281994439 -0.08103885765088624
Ni 5.643579773167529 0.5551041213627779 2.1813457843142414 0.5547792704058316 -0.9640014488727334 -0.851172957515076
Ni 8.213112927019568 7.5320852240398075 0.03377508826557696 1.2722610341816283 -0.458175725547469 1.829237826459411
Ni 3.993609083758412 2.883294965924591 8.248517934715014 -0.8911394706056847 0.3182778887768454 0.6429341702762089
Ni 2.5917947884582992 5.425783530718043 0.6599111912549978 -0.5375677916235516 -1.01782440823046 -0.49841683245570284
Ni 7.131152906162348 4.128014747513857 4.90425946452667 0.9415071244249592 0.19887225842230266 -0.3126116916300035
Ni 1.150342338590176 3.8035911262932087 9.619999011497184 0.1690657165838314 -1.958291264316363 -0.6087834925364289
Ni 7.943112826363244 4.767286793760306 0.5155718419030328 -1.8720564642868338 1.5279593004540395 1.6596185513649546
Ni 6.577333217034048 4.3868608126415545 7.672953913044522 0.16321260023716405 0.7039765302005102 1.189734279131306
Ni 1.8195380338568046 8.11240155210497 4.591405949435549 0.05827251048864804 -1.4529553361433234 -0.2215136499709024
Ni 5.167327531778691 7.226199034055744 9.019506045475367 0.4689190801069021 0.6408713742099091 -0.6820205947547093
Ni 4.5354760304009964 2.2343734251617033 3.364307872269277 -0.8629388398017526 0.2701445236047283 0.20327887213043055
Ni 4.557096841983547 8.576506017913921 4.694630465077912 -0.06021600736826404 0.28972064596444297 -0.05646322519405115
Ni 8.213837335655064 6.516984405322959 4.732894100696516 0.15552988688092567 -0.900405726398959 0.36184728872736394
Ni 3.459329853208157 1.426546349099225 1.200191868731646 -0.1611688303342579 0.8016758792262129 -0.7427307681505726
Ni 4.921010021129028 6.9372249995234965 11.383961900805026 0.22044895615181387 -1.185863740432306 1.1057653923178181
Ni 1.2039114284562216 0.6727917340315613 6.145317267590593 -1.0107675013836788 -0.8912798528382908 0.6990515820950671
Ni 0.5633382328529367 5.652235527632708 12.852279695030902 1.5855599816866437 1.065006208122585 0.26828510179848636
Ni 7.776387392716356 3.8254626947111245 11.942167977094167 -0.8766091381999935 1.2076211867140556 -1.11246697270771
Ni 8.848846515700314 8.493226886702265 11.460191050026856 -0.2594335649451274 -0.18935737695333196 0.7952668903760756
Ni 2.3164359213573307 1.0044111476981554 4.250781579192305 1.306323780193292 1.1780509292561065 -2.374736700004581
Ni 8.251348700767576 5.2150920652705555 9.745734061123134 1.5035998977730687 0.9710192749514631 -0.3146310360528775
Ni 1.2584185346323349 8.926646145694743 2.2997810238440195 1.1009180915278458 0.8533337126118207 -0.09082164806926295
Ni 4.930334460488512 3.325054211515493 13.47083736921819 -0.20506476038625976 -0.18154353733586798 0.5183873620403588
P 0.47674818268544783 1.704227038749866 2.3479950621815 -1.0685211632543792 -0.4830904865112777 0.8212885112508178
P 3.951017570907218 8.849069410665082 7.808230724620604 1.4827400236049237 -0.007648517684193278 -0.2730357291095943
P 3.934291161259377 3.763748651340827 1.8964386541599996 0.414039397349887 0.6743754195046258 -0.07269357100998448
P 6.012935304369442 2.1555893424062136 4.8305044494137706 0.7561298151652979 -0.3990043573936354 0.7170909560952812
P 2.3010933179490944 2.0148868958960557 10.320617324422063 0.5019873234157806 2.5988628478976663 -0.8572561875946784
P 4.600997862752757 5.437086162889849 7.661685643846451 0.2819497437697725 0.017700245493240483 -0.49360938376473057
P 2.8765245313697454 7.933899834486143 11.868657217713492 1.0593646935660916 -0.4341757630884458 -0.3437449226996983
P 3.2024898427633772 6.225075587087924 4.408621862306106 0.07189035838239877 -0.5781225731174625 -1.2299093086882948
Ni 3.080984225093912 1.1642454120176153 12.336293639985007 0.2866952288745579 0.6591799427111099 0.5304502067421638
Ni 8.28514514980061 7.760097485707853 2.4605709503249242 0.35616977872661243 -2.698366082901327 1.933569850310283
Ni 2.813779598787394 5.600208127939645 11.851557458999666 0.656291051199089 0.8468028534718385 -0.5362339033034764
Ni 3.485594309890053 7.0271166813566195 6.362735517328992 -0.6722393469982294 0.4268236935987488 1.4258741636558154
Ni 0.3297768152911741 8.096743180829977 9.406183301626857 -0.2262228825211136 -1.3085966353878689 -2.0507915856396295
Ni 4.080380236084775 1.3170677722370638 6.233032008601143 0.07359011468232488 -0.38959206294079995 0.2890850692629731
Ni 2.7985112937007472 4.514737511387321 6.81388328458175 0.28996567209571356 -0.9322706934283559 0.05892968445667271
Ni 7.620546663182332 1.7561244163801473 3.1415336422732936 -1.0168041944960617 2.0162071627965403 0.31150971681507644
Ni 7.3236134209498065 6.78693806952829 8.216356977485969 0.447038735094043 -0.4362485864570745 -1.1428532983090511
Ni 6.127521890840883 2.0815603522324535 7.6659949464986425 1.2668257220986698 -0.30846758755464293 -0.6198394932402744
Ni 1.571353777877204 0.24093459725050284 10.86338142329784 -0.28846929005584515 -2.316379343111611 -0.054416884187983704
Ni 1.692980130319252 2.3492664922097006 7.717308153575427 0.6846274362499369 0.9385963785360673 -0.17519342674812408
Ni 5.0916082547887695 3.650973086458131 6.073573879534731 -1.6110326720364512 0.314967850567006 -0.8653721318335934
Ni 0.2585042928483851 3.4901265075070143 3.6846107228287677 -0.6897945822731733 -1.3332637991172456 1.0530423508924898
Ni 5.805290070107125 5.072430000528474 10.16646038060106 1.00490384351405 -0.5546070064940255 0.643616026834582
Ni 9.013426585311306 3.3227602508364167 7.17227331224607 -0.4506123113779143 -0.19568383339199202 0.01056132045561407
Ni 6.231158762168067 9.084752974037245 7.219155553169058 -0.4262189701352143 -0.9972298719085598 -0.9385521555616932
Ni 7.673354195252085 0.7840757601083478 9.725085628824385 0.8310972698111235 -1.4929868981439125 -0.49538061673254047
Ni 2.3800352846379615 3.414128611811132 12.702649376452742 -0.7772239168314357 0.08994515900158058 0.3559296376913483
Ni 4.294108645427235 8.110358348261258 0.5163909808985574 0.15813647126583735 1.3613158201584556 -1.1921025222531665
Ni 7.9892242221997405 1.78134869655979 5.603871963923028 -0.14918800382329792 0.1525515209788921 1.1526314607417374
Ni 7.522695773648932 2.363773239500055 0.274410634771682 -0.3455948314242435 0.1530516005437622 0.3340413222586892
Ni -0.35496951868414134 0.2678287322078702 4.171209005498946 0.7987471356151922 -1.9128071638416344 -0.12542843950985497
Ni 6.411406490344248 3.6240306575917307 2.1360544562022885 -0.24961914995786688 0.2281992895211941 -0.042870831221597135
P 8.304026210774547 5.256318346462542 6.784794562950433 0.42286136651689105 1.4591049006844872 -1.3485266388135873
P 7.337117140898702 7.734464564759468 10.100086903738081 -0.8726018168128133 -0.11752872504680403 0.17819750368177054
P 1.215436955592796 5.6843788390103756 10.326190627270297 -0.26003571730550057 2.301871893524055 0.37732301576545985
P 9.090000292999507 0.8858319551702979 7.904032837936174 -0.7153729449629099 0.7470674478527134 0.5557087241986366
P 7.955288463813726 5.064795847985151 3.0006435925011217 0.4875935165879538 -0.1474576513957525 -0.3941244035935148
P 6.831061985262267 8.102649897396345 5.088809994251904 -0.30978707769701486 1.2632197499149664 0.7361628851250677
P 5.075987032674573 1.0614258222279152 13.325991862550396 -0.3500960617287067 1.1298095777512156 0.3291559691419299
P 0.7756261834855793 7.16169880362584 1.2670845051167328 0.6868049035172301 -1.652866577353102 -0.9165733372977569
