# total energy = -381178.1080160003 ev
CRYSTAL
PRIMVEC
9.15710979926574 0.00000000000000 0.00000000000000

0.00000000000000 9.15710979926574 0.00000000000000

0.00000000000000 0.00000000000000 13.40235580606992

PRIMCOORD
 96 1
Ni 0.5572339495244679 6.530365496322683 8.055257810891606 -0.02000523947733329 0.014326443925001134 0.9410918912644115
Ni 0.16175027461448235 2.945933845086596 2.561525694672685 -1.3229043102597926 -1.8696601961405157 0.7353910399560497
Ni 5.478277661740189 5.319969544759501 2.0544470678186606 1.8297849572121325 1.0326753572003635 -1.0004247246967737
Ni 2.000004386265156 4.296845648979061 2.2795260834913935 1.5029098136845795 0.5163574760945236 0.7238002497946567
Ni 7.561300406898619 8.634202352419168 5.135206537105676 -0.6408939999177284 0.1842642787011407 -0.21598963482887965
Ni 8.893824733992309 4.642398350412613 9.552261231367725 -0.612030795829133 -0.048184530125026694 0.7740316351463831
Ni 3.0674670084697335 8.488897331581041 4.811995352551433 -0.5907634018099245 -0.2233594449303895 0.19680123482588688
Ni 3.6503079002850853 2.3924048622517615 11.534215122480617 -0.15995346986991807 -0.5559126126793266 0.5733927717419609
Ni 7.499471600451742 2.542874493107075 10.307483802460595 0.936392171795897 -0.715811060941593 2.249564085259274
Ni 7.502823102696937 7.014804084512718 3.1552095203911388 -0.4223741424678274 0.21740708400169653 0.17023222608810684
Ni 3.281349625794926 0.10555950076970018 7.061473295421561 -0.3639162554412506 0.467995025630736 0.2704887943180245
Ni 4.831831484145808 6.478957481009774 9.978456021660046 -0.9097259753586203 0.7685865528714119 -1.0412546142289423
Ni 7.668182194346478 0.6503983862529221 8.783206845680954 1.2385034781152089 -0.8708166998879324 0.6146391799862575
Ni 3.948417615018212 4.985048247988987 11.648001370837976 0.13214981739408854 -0.7127272798099468 0.9471941475074075
Ni 8.752503055986585 2.8478978258596612 6.714177995962708 1.2963353015220127 -0.6250727166147557 -0.4453793451137491
Ni 3.7288209610782603 5.293413925876808 0.7977500211670093 -1.2602632383898038 0.7610555346016893 -1.6089331091949453
Ni 0.5558970114703737 3.95231854386098 0.5127999891567511 0.5511537578381024 -0.14199739961212965 -2.3171252201386996
Ni 2.9093145623583583 6.574942307605769 2.847919802923564 0.9192082038174427 0.4828290053197749 -0.1745917886083832
Ni 0.6689442810539974 8.33145914004651 12.664771148017484 0.8181301681274942 -0.9672150707140246 0.1837811684171351
Ni 6.038088422007274 9.029258390294043 3.034453795643567 0.7295667199647887 0.5783879109637071 -0.1910558477016774
Ni 5.376615426969273 2.1232957147605274 9.759729293166252 -0.5858183990998233 -0.005873170951325369 0.4609761711107416
Ni 7.886908922840273 4.189881447541566 11.97154770561674 1.623090888752566 1.000483088738535 -0.18347340736872916
Ni 6.617119956079453 8.148033070446779 10.168635459854945 -0.13238121667860428 -0.23652477866775395 0.03638830882104701
Ni 6.481933541746628 6.19440944612674 5.594331210523533 -0.1735872586032688 -0.5341104292025705 -0.869242156311961
P 5.900402116655492 5.258168209642503 13.033630525720081 -0.3674147555128124 0.13502225384587713 0.1870207584003553
Ni 7.197479271095767 1.0181973706222025 0.7709343403614652 0.08922525011642052 0.6261374104338442 2.1738330129745465
P 2.818439403119791 3.585475561771476 -0.08764544655583392 -0.4807806074311784 -0.10601918174530772 -1.5235172055222859
Ni 3.679226053537342 3.870966778980344 9.50878418899078 0.039567734990293146 0.37798404638822647 -0.19306876436664813
P 0.4620366343849937 5.6730127621399635 12.229502577466246 0.745331181887897 0.018447150961594036 -0.8817428598821331
P 3.0435577943653507 7.684234608105568 8.844657463486502 0.03882879994173958 0.9875926059291121 0.2853880800273601
P 1.308459442119995 5.4340488206355655 4.182794760143871 0.2977741123965388 0.6506670201440923 -0.11485400642811833
Ni 8.602418023749573 0.24146657965634255 3.2009382961071364 -3.6455016092566574 -1.9156942555814427 -2.7148154867066023
Ni 8.87086785932372 5.1974931990505295 2.5515810732566147 1.1681043595663558 1.003490508106291 -0.42824242832314635
Ni 4.213296177708134 4.507898719326753 3.836102914231352 -0.299176134950388 -2.7888506593461453 -0.7619852455048103
Ni 7.651049241612162 8.806703989837159 12.447330993473008 -1.7083206445563484 -0.18335436529236165 -1.6887589203743367
Ni 2.7859866054231484 1.6702110710719893 9.015979665141701 0.9286181842774329 0.03094168388417897 1.5325785443936057
Ni 1.264725084953188 4.777245951676935 6.36398813404564 0.7108627157973822 0.44289977322500496 0.6588274444676976
Ni 6.467300480031268 3.5890926202054985 6.0753954036934745 0.1812645726428685 0.45805102704414663 -1.279276803377829
Ni 4.384735590370815 9.254907893917256 10.541073436129734 -0.4462992858248572 -1.1795871633949748 0.4666099723577512
Ni 1.7886949168385973 7.321631367927336 6.3602621060031 1.6842654033793574 1.262890648710322 0.5430247009730648
Ni 1.2991924468409315 6.331656210200465 0.8093667308616935 -0.3560031712417611 -0.17053458781987402 -0.012398887884985098
Ni 8.580679044705603 4.5347015801783535 4.9078757880938895 -0.28102748906581926 -0.005783953671628749 0.06378804099023852
Ni 6.137195823099476 4.527293478221078 10.317522742109247 0.07811911290092999 -0.0067638010863948035 -0.6551057726417362
Ni 1.4651925361876406 3.439144944617879 11.079057309097236 0.052529951577915984 1.3135946028230927 0.05118192219045379
Ni 6.956015438572413 4.300709949381991 3.3616327559432824 -0.9325666274022198 -1.3006840654090115 0.9526903947352883
Ni 1.363786700495592 1.5292098919148496 12.338463944585918 1.5045792309672024 -0.46080519275051607 -0.2901767596652551
Ni 5.5369747365809 2.2164418372690626 4.3641156101639025 0.8062305884764308 0.26845273772460215 -1.2853482063828896
Ni 8.933987818274893 6.820728296030031 5.7680525749881335 -0.9765420045419052 -0.7805941188552492 -1.1949603034169354
Ni 1.240605257319735 1.0018427722344476 3.7132969125638366 4.375565580572839 0.26485910683607294 0.15083068163304347
Ni 5.071244124038224 0.7234840279730729 0.691116391399054 -1.2154406827584745 0.19016341779439505 -0.10659870839786158
Ni 5.047911807861293 7.220033232926137 12.353661999985782 -0.4518389846961638 0.36565303562669926 -0.38835947608527954
Ni 2.5340195677761908 1.9013090551211342 1.1802599026863054 0.3598436280337738 -0.122835224861382 0.3009815635902429
Ni 4.72861254068177 2.630782748718748 7.570615934860468 -0.3280403674802479 -0.3544000884206993 -0.21820438309201126
Ni -0.11646836586451122 7.567920997399373 10.099050581272332 -0.36074968478781094 0.20008633333506187 0.5504783290376326
Ni 3.5120538541158104 6.073663794200123 5.313403896918505 -0.5546612567707286 0.9943075560554424 0.9667574143513158
Ni 5.885915568699484 3.0969803738693606 12.392903879006436 -0.5106668534676495 -0.4508889620780686 0.35140218213464
P 3.8526525590612453 8.086717062157637 1.2467945479413944 0.466517412643945 -0.9087029334107447 1.2368471734587088
Ni 2.0408725680146245 -0.40097427804173136 10.697934729736811 0.07410536375584656 0.3805358662758027 -0.8014192831307165
P 6.9308059148537735 2.126967715854307 2.706056024008235 0.3763426541300615 -0.2812357484218834 -0.6962675915920267
Ni 7.371189647028417 7.567609655660749 7.230464096881059 -0.8233546497512272 1.0332278872697238 2.4639059000720853
P 1.6191693401574616 4.019083032576053 8.59164743101515 0.3583009661370023 -0.3640280984287666 0.22981805607153968
P 5.772861889138889 1.0173823878358026 11.910110823476131 -0.1056430293528116 -0.7030110809634473 0.1915703254442507
P 5.208811386960533 6.398200928276508 3.8531772614619273 0.619130897209024 1.6745178370742901 0.0008314947623598583
Ni 1.2255601256561959 2.890212830982738 4.91010096581406 0.5356194096479292 0.534189362069622 -1.0314404563519977
Ni 5.476354668648684 5.1154363367030085 7.7149988347256695 0.09743503962072253 -0.49148745232572133 0.7833171742133671
Ni 4.716424427325609 7.276898885774938 7.273981430541825 -0.08587561691789726 0.5896529423545651 -0.4514540905529193
Ni 3.219529976458009 9.113925028980036 12.978492819520646 -1.0538897864944494 0.15702626892079408 -1.944777546100644
Ni 0.9406732777046584 7.6611953194473426 3.8924466118124585 -0.1185093437925185 -0.11618609497598054 -0.013855417825853557
Ni 3.638806570175891 2.0286844546584644 5.536232094963181 -0.8147771924948614 -0.11626425651208365 -1.5667654746879598
Ni 2.5563903874073697 6.939331184226114 12.092892232534709 0.1531421033750395 -0.6693476272727312 0.5774283752639152
Ni 0.31738634690897366 0.9301517583611363 0.9818363183948242 -0.9024525816256586 1.793412075010053 -0.22770615193485946
Ni 3.7903384257865125 0.5115564536242443 3.0516224611067253 -0.3316345125894095 0.6097882796518596 -0.8586818642976115
Ni 7.942895493132957 5.962423222411518 0.3673896615540884 0.803863630906151 0.3377406254871474 2.4357204387768054
Ni 0.33532146247574685 2.2314411833828047 9.212953678926585 0.8338866596308026 -0.07639236001781037 -0.8811561341407277
Ni 7.1780295695416845 2.945549246468295 8.173198640037613 -1.4115001543223304 1.2726634118263696 1.4955256054053665
Ni 2.974513185270349 5.714888225984983 7.971587465769212 0.4286502052845263 -0.43441796100623886 -1.0827625036647417
Ni 2.0097658654820356 2.4254803434256536 6.978124364858748 -1.0774094668829446 -0.10168301626379908 1.920635144526486
Ni 7.4067009194515485 6.368705877096801 11.716956240255374 -0.6311145519334614 1.8019324537762387 -2.7593865884487574
Ni 8.12362021529462 2.0178607506862773 4.57127599306779 -0.8646689351189817 0.36040721384672764 0.6929177012831872
Ni 8.40256409888241 2.1599333117086843 12.573728413666657 -0.581131020926483 -1.2427095457767565 -0.646303600969074
Ni 1.7093760303689816 8.607445277117366 1.5597928077577523 1.718307323455415 -1.7149582044775238 1.54287221301013
Ni 1.9463070934623594 5.787943649242267 10.102964330069042 -0.31847663505121276 0.36639505599904637 0.6714667304982629
Ni 5.070676383220731 2.9891920325355064 1.6607526921947706 -0.7408338082381757 -0.4839327799069149 0.5132942637881677
Ni 5.384875140152786 0.07981703325141526 8.386095036620162 -0.3706144933970327 0.15449424652755975 -0.2547042777902581
Ni 7.354212365163413 3.6896010591215114 0.897712696329433 -0.6048594748916745 -0.6439057901608588 1.198168268831272
Ni 0.42198160399993334 0.3462449789464932 6.017886006014517 0.4316054312581083 0.33953808370720234 -0.030171638487373843
Ni 1.2043522589898796 9.109905057707794 8.422991779780173 -0.3196760546759527 -0.7214453764092349 -0.4991678516891145
Ni 5.243306220178155 0.09194013112686254 5.2742160448466135 -0.3169907945343057 -0.835265285145884 0.9317227913446857
P 4.2768831492672446 4.192756780068865 6.0345986474016895 0.3324395249892081 -0.7563527298093812 0.847345870459502
Ni 7.989862310115484 5.137111215977262 7.282746616195106 -0.673712074889014 -0.14319450524402436 0.23190682027976836
P 7.2486583586596876 6.151032216248355 9.22750890520729 -0.2910388505552343 0.7652353770109918 -0.1418027671028203
Ni 6.696603670528341 1.2023376947987787 6.822576200819868 0.19753039968242755 -0.4261518643427048 -2.1823389935630284
P 9.084146107391582 0.599919817600907 10.78759657190574 -0.07435347521091065 -0.030831383558559806 -0.22059088104631686
P -0.8036004987201654 8.06046362790361 1.0937123936146216 0.14826652045029304 0.37638173489811305 1.0401901775201698
P 2.9754472104862235 2.5715545615003834 3.250393099865674 0.3063189166427563 -0.5125843822053365 0.8324190739463405
Ni 6.065898564954426 7.412982696883799 1.0664644972189867 0.10276622202564882 0.9454018314936751 0.12456866261272094
