# total energy = -340897.0060254914 ev
CRYSTAL
PRIMVEC
9.02720598328205 0.00000000000000 0.00000000000000

0.00000000000000 9.02720598328205 0.00000000000000

0.00000000000000 0.00000000000000 13.21222844050475

PRIMCOORD
 96 1
Ni 6.29533872281062 2.062319362721327 11.292636544807248 0.6203822531176219 -0.15440374369628246 0.13255630880388783
Ni 4.643585713942677 0.4839755926461924 5.989169297617737 -0.31699670807157665 -0.8532527228622402 0.23510655816398865
Ni 2.778709399779675 1.5734239428318886 4.650004057373774 0.14187192977785887 0.06449535146990827 0.7169482598698298
Ni 3.560682088071391 4.061890616877872 5.060639920712981 -0.2392645461964202 0.7000062326988524 -1.3647934942944109
Ni 4.99637794971023 4.498085208425892 2.70349923339966 -0.08007932195109435 -0.028478052835034826 -0.39943553139378307
Ni 7.37897355236393 6.32476741421059 2.702323891184851 -0.650906389848408 -0.3364812991587495 -0.1859946311286861
Ni 5.178826809184092 4.58357284878102 11.736118799719438 0.7060668370706357 -0.4715896849605298 -1.2975833149965006
Ni 5.55346488335285 7.9319801889167385 12.459911145657534 -0.3962329652960853 -0.18722953197705175 -0.808970098894781
Ni 1.9521784229142622 6.336042394443278 0.48601303302931304 -0.7987821026181856 0.41072935914004743 -0.7670276930247242
Ni 2.4847384379882578 1.4615407522762973 0.29800160924849906 1.311753435849296 0.39397013740383763 0.09849613389538521
Ni 0.6213976515575059 9.417361792109393 4.717003077220841 -0.3029679978926524 -0.7096162449847908 0.3736370822734404
Ni 8.558540499557571 2.268699345171055 1.2049008979742775 0.4185701953407049 0.0274732657196043 0.5753619796531897
Ni 6.825876643751611 0.7377484063382029 4.776234186347148 0.5942737289560281 -0.8499843365236136 -0.5302357767385126
Ni 0.7317814232046507 7.454811109557533 2.810716261199225 0.09558435956522893 0.06287812758145946 -1.2683056490783062
Ni 7.5023754577128825 4.097674461267284 3.771298538273881 0.5177929229894696 -1.2585773660469486 0.14955798556820693
Ni 7.618718088008224 3.7595333807580587 12.584529015648076 -0.5261523506977583 0.9141135629033548 -0.3311984534932554
Ni 7.806808951201407 8.72709648907298 6.951852205517169 0.43380423868164003 0.49035256739032973 -0.16655503434683575
Ni 6.7897407383301145 0.7629252837352938 0.21705465348667996 -0.09430317885996017 -0.37170284136520504 0.4416093365483556
Ni 1.9361370779394933 6.448006829852427 9.369742377997742 -1.0095480271542807 0.07331552086469954 -0.9288848076752583
Ni 0.09115582297170437 4.786766227530076 1.4836935156798332 -0.7734783337460743 -0.38413515359128686 -0.6167282013048024
Ni 6.522093109091554 1.9611604928354187 7.150669194821225 -0.5155228960083702 -0.3672304074161482 -0.18446533896835327
Ni 3.5913565338925864 4.276043023651335 0.34285328201560045 -0.7387833534670503 -0.057960892785500186 1.0361013521627769
Ni 5.861707857752658 5.513853503640253 4.765756308399926 0.2356295205469942 0.41791456403457705 0.2981093842487705
Ni 5.356762065682499 3.018914322927466 9.142954591054789 -0.3721270733868172 -0.2874843004347565 -0.02913496969274337
P 0.047657328376644534 5.610941103642301 12.468036533733947 0.7699399815755127 -0.7943963148456641 0.6764585272858995
P 3.925191637163227 6.166231623300691 12.46215711449812 0.07671606190581627 0.8847741905092891 1.191530194689464
P 2.308554459444327 8.337933640529208 1.4326545959539772 -0.12107376208558505 0.530574391024854 -0.5611764321814271
P 6.368982668958153 7.688272709859994 5.532659881797787 0.48882044701651944 -0.18583188029857672 1.3029229820418595
P 4.755532094939925 1.06035366540591 12.567695984711412 -0.5262482528456744 0.08938645828463315 0.43006251225102055
P 3.9365298078375712 6.0667337593097495 8.20153075316975 0.464416050030226 0.3087403816000554 -0.818011383161443
P 4.725967995450691 0.9803455390629856 3.7401573859050234 0.7476937685828027 0.07001628128813747 -0.1251438183899006
P 0.18350684801130937 5.453642039947677 3.594082750089762 0.7384663364472637 0.877495911680321 0.966014365537704
Ni 1.4001828334279551 0.9923968590074519 2.557147462361705 -0.06933930982577091 0.6859893495944702 -0.7643689152456384
Ni 1.8509383081747952 6.433283456946492 4.772904050071857 0.41948833627960014 -0.4946056862397288 0.4178106914668611
Ni 5.992927323455101 5.767608262920362 9.120837033754462 0.032970027168117415 -0.9355146542869501 -0.11550192442476238
Ni 8.535701668501765 2.533070098649435 10.19485969441124 0.4535212574945931 -0.7309877686820314 -0.09851001785245615
Ni 2.4291850125663514 5.1304319580812585 6.931227748081124 -0.8014874173644907 0.03179529013372588 0.5291533423076114
Ni 0.6540644017320676 -0.03028176236233101 8.975793304858795 -0.3396648390930537 -0.306560343229601 0.41383756575172603
Ni 1.3173672460342976 1.0375509431739087 11.324874502699142 0.21343292984529694 0.28924370632802443 -0.30218663964193765
Ni 3.9117230458844676 6.849789712315575 1.7258338717834998 0.9429148034057632 -0.452327237186492 0.1552851178599713
Ni 5.651825319393978 7.8409949801375065 7.752037281814849 -0.7971556227583562 0.8072718852567518 0.8195884978405756
Ni 5.524270899307605 2.7010483469839874 5.037677416935648 -1.1169969993675795 0.4592162509968413 -0.9946124888903709
Ni 0.7826759076352919 7.422033324749775 6.783805350417391 0.19618494139812664 -0.06780101880437356 0.7173506375145711
Ni 5.081621855504682 4.502562702577545 7.052845877534177 0.29041818625209986 0.23493120892838895 0.17397832339410035
Ni 8.24777893469746 7.092549334747474 9.348034655847586 0.1080369835062849 0.05862757983522162 -0.5514517486944955
Ni 4.6360570241796175 0.5085196629061244 10.316055350625792 -0.47667558412386934 -1.253795628387589 0.27880065661782955
Ni 8.437458586138002 7.4265288733133294 4.770235607992769 -1.1990164757641801 -0.9024656942517812 0.3140916186096397
Ni 7.336690119689862 6.226533359052777 6.980535249705595 0.008810399202778376 -0.5136323638538767 -0.14494079851116973
Ni 2.1999752262667696 5.0761062326686766 2.625269466629065 1.0141659855422662 -0.13235190610256561 0.40333898021324727
Ni 2.2555737877184305 5.120186079326975 11.490753925650107 0.3522668441277804 0.16200649574420486 0.7471016435247585
Ni 0.9265072827717523 3.1841753822707943 3.748071537362187 0.301915388258422 0.5642735830495121 -0.5215742444087728
Ni 3.67492137938017 2.4258359191585632 2.5411476425343102 -0.05234843169472919 0.9450231079980176 -0.7689994720391143
Ni 0.9776825133074668 3.387088917635372 8.209497262421431 0.486350388209472 -0.036714838922530316 -0.2977622853219969
Ni 3.644978137240998 2.559059424582108 7.013328380763469 -0.20981153104262576 0.3630310246228199 0.12058885202936649
Ni 4.304171797394373 6.897742230326814 5.91766479928057 -1.3397519779447506 0.33637742659103353 0.22008694482670482
Ni 0.8562756204736646 7.349599024199666 11.505538683556509 0.7491932359464646 -0.07671451924391949 -0.20499148394616307
P 0.320365609271286 5.661818436381635 8.036945831552147 -0.20301044896039228 -0.7315644671211078 -0.1445618179051962
P 8.54170476045912 1.5899978929577614 7.951727201934356 0.237154698942269 0.30626055260099516 0.7489466671532973
P 1.8174383468909643 3.104790133138483 10.572319673160255 -0.6634508021723219 0.3470876139196861 -0.7822576226006012
P 3.8418614990303674 6.051902059932402 3.8800483856439114 0.1824588500612858 -0.447506675869397 -0.45858067429537147
P 6.916591036352317 4.0250866982160085 10.354463403785134 -0.3053182432923839 0.606608339261981 -0.07124655415081278
P 6.197944197806241 7.680419040682701 10.132207274229538 0.45604865190213717 0.6187899689298376 0.500220718433661
P 2.3702193032950007 8.503176645460632 5.691576620798814 0.6465121174354542 -0.1549130792325332 1.117291904900179
P 6.908042272316804 4.199492317187609 1.623598056227647 0.2388457134914467 0.061465820614965104 -0.1647416352871808
Ni 5.597084342507653 2.9778946990865265 0.46156284571127054 -1.2534881244494993 -0.47704839408225586 -0.5990166429576521
Ni 1.5673937692566802 1.1014545341004078 6.997724855277319 -0.3409169663326 0.44909278940959424 -0.7337169946877364
Ni 6.984963094224517 0.5350433994310911 9.243882364468355 -0.23241769847791585 0.17255804600780605 -0.15721910165789052
Ni 2.6223943015336997 1.6662236200072538 9.093540568400098 0.6836851269413257 -0.6360631541879884 0.931465423918241
Ni 6.4528273578302136 2.0213087660863387 2.4753510465199056 -0.6640830364396821 0.10661079258271962 1.0784083404611042
Ni 4.065799397054617 6.738511344558694 10.297214669085646 0.6738498860184589 1.1725636808892903 1.1277128431231866
Ni 8.167572209823614 7.163891343377523 0.5487367681380281 0.017739583371608157 -0.13612551421238492 -0.8395348590555154
Ni 7.607731978365965 3.9215717275769117 8.186389420628288 0.14349995229958512 0.5285339635560574 -0.05826119763473837
Ni 3.11645328322706 8.434506689792054 12.268055937582822 0.11040985461383566 -0.4994226480123979 0.7906597306213673
Ni 0.2651191088517106 4.874862730405018 10.25484276979326 -0.9320428936882657 -0.18148054530841648 -0.3152676411956119
Ni 8.614455013217514 2.2844969555851495 5.789334039482419 -0.13032613392178843 0.7962721917121384 0.08496930305354398
Ni 3.7752316919066935 2.6716467372018706 11.459560415486735 -0.478716268702982 -0.16595853841341743 -0.04629271241895253
Ni 0.887979167773264 3.378070738890412 12.682972501983949 1.1597940399284477 -0.006290975215034326 -0.7783662579659949
Ni 2.981018112345542 8.129242693356046 7.962494853192603 0.7946824786275152 0.8036707981690545 -0.40110572000735434
Ni 5.445634908269218 7.849697206674184 3.5902642419725264 -0.36202135241138295 0.1316404818578378 -0.20063680652189317
Ni 2.922684307490755 8.315356598445979 3.6004776227853874 1.1121121604714523 0.0589368835455243 -0.11851551444010557
Ni 3.3481184695452892 4.349957785977394 9.512791094378258 0.4415409452042654 -0.49730997254476933 -0.8961508077773469
Ni 7.230412824029787 6.067798969611957 11.331520331720203 -0.3038241752453606 -0.38150671482950427 0.7645429789296575
Ni 0.5834057525925018 0.016751786083105576 0.2622367219915847 -0.4460401186261996 -0.4934947125637373 0.0788891582977351
Ni 4.503989001117789 0.25859875799336757 1.529262851320032 -0.08092830021495094 0.14267745639828977 -0.3331758889346004
Ni 5.957865655541762 5.870906580616636 0.456840714278349 -0.16897649930413478 -0.7335673564837496 0.38908889805213637
Ni 7.9560196383640145 -0.4892014421711748 11.37554330698101 -0.9637538516383014 1.1339038024252472 0.22462674167858737
Ni 9.063314774714662 4.886345336374576 5.835418828582416 0.1414816363179757 -0.5225294092331904 -0.17519728340286603
Ni 7.854346217738904 8.93039819429345 2.280166604890497 0.6590223340873231 0.09692596119478791 0.808420397038898
P 8.406179317518093 1.6987305886364845 3.489706584002948 -0.7470031702736812 -0.11828771470001564 -0.3274711252403393
P 1.8905406606814417 3.2156713038335227 1.457929869895933 -0.5038161490944033 -0.09576407967620282 0.48324166737716134
P 4.72328691528327 1.0368377939037867 8.223885725986587 0.23932188179691685 -0.06274031645201453 -0.6978192523498628
P 8.418104256579248 1.5511086897212367 12.229978280161284 -0.36855272577199755 0.1861884923070471 0.2477355597819088
P 6.190677297015758 7.831254624916474 1.467561898645555 0.0929788036215818 -0.487179826089303 -0.5505642038832195
P 1.6992270849637847 3.159332511493887 5.8246638154125 0.5121110421133439 0.2353963214902656 1.2675926821716814
P 6.947084938054494 3.9531488939931982 5.999540654534739 0.5892528787026691 0.724574666066836 0.4658419838434752
P 2.4143352587771028 8.464070789281287 10.240864141378275 -0.050552259026254875 0.09679894869862038 -1.0468961287854357
