# total energy = -381169.7107815825 ev
CRYSTAL
PRIMVEC
9.27677610004735 0.00000000000000 0.00000000000000

0.00000000000000 9.27677610004735 0.00000000000000

0.00000000000000 0.00000000000000 13.57749953331595

PRIMCOORD
 96 1
Ni 4.46102530846951 5.455848210662886 10.751383527994173 -2.148027364765352 2.382882211929851 2.839670827321806
Ni 5.123062426049382 7.8306100929479205 8.204190499919129 0.738894682233934 -0.30066531790140477 0.488555623390907
Ni 3.4451812319128456 1.18686144168782 0.06439845115291411 -0.7397778561698356 -0.9491864953470879 -0.8278949608237419
Ni 9.1460569264493 4.504190147089269 13.366925986110626 -0.7209969760179066 -0.8721372184715689 -1.7613751011791667
Ni 8.697051692399228 1.4671313974970137 3.558567553966117 0.8238326178289102 -0.4754208857811619 -0.010531495658943152
Ni 4.370363376848854 2.545129873097819 9.177425416737039 0.9047287792543451 -0.9529873571504168 -0.4615585259767728
Ni 8.378941767380923 6.8326701940263606 -0.1729135381408011 0.16479100046787748 0.6069783210068902 1.5803010472805494
Ni 3.652749094392347 3.0235332102181722 1.4613194973475876 -0.12877781559806206 1.4212132678450362 0.293941626024326
Ni 7.1265306266414745 6.165911197474328 8.727779157466975 -0.45333382407413536 -1.0323084607792479 1.0205870585772616
Ni 3.857070085279991 5.8643974246784065 0.8965632910477731 -1.079399757840096 0.5396781530983351 0.020797396361325472
Ni 0.22116204999581288 9.119914971746853 13.567859098411565 0.1574237614695289 0.17078321349557038 -1.0410571535061555
Ni 3.9431771198960686 3.403342972257759 6.886181420892975 -1.272250492658667 0.15050415153156016 -0.1209248952125466
Ni 5.799998045847895 2.037532521978673 13.513536153646985 -0.2356639733293554 -0.6416439907098755 -0.11795964193663555
Ni 0.41342230443610006 6.1394445556126955 9.388514743377312 0.09022720901837364 0.603292901735503 0.2612585339690081
Ni 0.5785145927509138 1.8648175068437738 5.705210731950384 -0.6337923558759408 0.6446146433024253 -2.0960676838686094
Ni 4.237232364806694 0.143085920342797 9.93188612569555 -0.4504001953671082 1.4044820711332844 -1.6221755760271481
Ni 1.4911582472767637 6.215198708238734 -0.20273651755081684 0.3800159892165907 0.4752185399623687 0.253826246060679
Ni 8.263529397454331 7.7178787112786065 7.447828979562985 1.6170876199812796 -0.5520695847841525 -0.3711292282499221
Ni 8.565525562601042 8.484854718707332 2.084472080743367 0.2097642227444581 0.12533228025162285 0.7566152394421486
Ni 0.1174987168437596 6.389834016000819 2.159718793723478 1.0154355962833093 1.3628451123187884 0.31522033289744417
Ni 7.506906272015643 6.206339387180951 3.7601936414325183 -3.6380338401247023 -0.6193322145865527 -1.2372186978655144
Ni 9.403403968819974 4.408787782944501 3.3554757358953915 -0.16197050029994686 -0.45638135265120755 1.5923808612632189
Ni 1.157955007744306 9.164545540970936 3.8737423070653834 -0.5215755299603534 0.22641648658915844 2.026189985040865
Ni 0.3728280604394944 2.123825092114285 9.1673916558406 0.22734696882322783 0.3440753094559235 0.237710571445739
P 5.406950324489503 1.8064109252942344 2.086155815583145 0.717806236994751 -0.3878995057297255 0.6333593821035802
Ni 4.27992408785164 8.316657493473107 1.204010489758417 0.12348519974055508 0.1866417777943818 -1.0924445068391961
P 4.0564280010200795 4.672507970411194 8.954835670918406 0.03540254786901 -0.07929462126626989 -3.267168149948812
Ni 5.112236428484529 0.09109608473636698 12.068360101854116 0.4154247077331878 0.3757782969861593 0.9428947488011052
P 0.8586778656363748 5.312058183023455 11.259182185152016 1.1215123707394297 -1.4948329502137156 1.9254593053880062
P 2.4482803319006794 1.477614154350727 9.733913232608787 -0.3139188404772013 0.39330550723664526 -0.5590442163297726
P 7.812177139082143 8.233333491650049 11.856089841632006 0.1565768400882013 0.26842856935488607 0.49221378896878454
Ni 2.255536757432004 7.855137888630415 2.2831379489955914 -0.6305085429183463 -0.9939337176557913 -1.0328597052970279
Ni 7.40488956659946 3.3662822522306928 2.957858274690859 -2.1323122680229405 -0.7159779255367605 0.3791420712520696
Ni 2.535695391929477 5.313106458708826 3.3103163904406334 1.0260815060329296 0.31375917497088546 0.7638138140731168
Ni 5.134027575253886 4.915420349362066 2.597511188650467 0.02111312782953138 -0.8724989726863619 1.0728935812904619
Ni 7.227016664021495 2.0982490207464197 6.604693424398036 0.24989965731276315 0.5864930565693447 0.2808788793030969
Ni 7.574060853311245 1.1777330941267103 1.293630639436885 -0.4648305118598252 0.7888177923166221 1.0029541759868468
Ni 1.8733799710703025 1.9635595103401677 7.485478774864574 2.273853039713626 -1.1112320718593445 0.12289333179282705
Ni 6.203890318323092 4.224244878439261 7.080040991511652 -0.10438601701725894 -0.07971062575776595 2.0674469348081232
Ni 0.9202598876027513 2.2620768844956043 12.282368829894267 0.4536076465608123 -0.4248354595241263 -0.6392464370119765
Ni 6.123182367325475 6.422710910062377 12.591677877543441 -1.2872400240889637 0.7497514224427797 0.2307472527540284
Ni 3.9008193607862847 0.5719067452226836 3.21467654083086 0.10073556474886522 -1.2909385559864734 -1.2164390421160018
Ni 0.9978749614897234 7.574571075989966 11.440319585196194 -1.86406264744808 -0.9156544250279134 0.22218573633726252
Ni 6.54894927755382 8.680446263400867 0.3553914323136185 0.2912993033054725 -0.4087717211930444 -1.3890569948274658
Ni 7.919435222925182 8.384962394989824 9.607981926402175 -1.9575369026488416 -1.2578787973180272 0.2303258489458936
Ni 4.110372453324808 2.8059185993558637 3.8437495626549936 0.581632900263566 1.2330645664878248 0.1505871981636697
Ni 0.9486709417091078 8.51056994171485 9.176162847526607 1.5779592865212502 0.4014253081303022 -1.228839986883516
Ni 0.015382749924626135 6.366521477971276 4.686830384841679 3.7768443573684185 0.34884187760663143 2.2819790112548697
Ni 2.358072962302884 0.07418359445317683 11.414848341396866 0.335520477907377 1.141263328114112 0.2980672181569254
Ni 3.9836980773624577 5.959196798384687 7.022295844089254 0.3535174287054299 -0.6055158775287507 -0.13010759015307913
Ni 8.031628551587847 3.7853420534278563 8.782782089910649 0.26660565721353435 0.672380500561784 -1.260225700283649
Ni 1.6114780316950492 6.5503129636224005 6.7367613179132615 -0.8431279757234125 -0.43025251677463966 0.648319088737206
Ni 6.2034914169560915 6.722740398702021 1.603380333944955 -1.1158024648388463 0.14088051239886704 -0.9740763166102322
Ni 8.377605911640272 8.555117019955144 5.206278817271107 0.5174129139422314 0.3946121418632107 -1.4111129461862406
Ni 6.1441942649127865 4.005999446810534 4.853453341192655 -1.0961687497683186 0.5013448047357753 -1.1226691100516923
Ni 1.5115114937697258 8.926206612576598 6.514987000702984 1.9794910383224296 -1.0927998332960858 -0.8043606251472276
P 3.870623454982004 4.7592736561216205 5.034604656400799 0.22622031141795235 0.5735928035679089 -0.6242872445989829
Ni 2.9027124798971427 1.201453810299228 5.191017593111777 -0.10016580828832426 0.46946621085962376 1.2566999465185777
P 1.6594389634947821 2.5041914607124762 0.6319738696720589 1.8396862754862444 0.5193690092273379 -0.5532754321667955
Ni 1.7068711190638408 2.566958126971082 3.5743714695200874 -0.05518101604751787 0.03573730550060942 -0.20029587824270667
P 2.2568355060687475 8.220577924682035 13.325772352522623 0.42067515749884965 1.1902667545960082 1.8342134252971316
P 5.172284999381951 7.735161344923268 10.627000515698079 0.4957858225907591 -2.4150991629820275 0.10382191698367281
P 6.109703211831276 7.609284771694917 4.645446687209453 -0.12030423090941217 0.1096943166040498 1.3497761949499723
Ni 3.6577492766438087 7.074914645106906 12.139954548132184 -0.03295665743167873 0.6378163894336693 1.5592455121618307
Ni 8.368208537575835 3.896329401213544 5.573916521551618 0.994048903077417 1.1584179855165273 0.608197538125972
Ni 5.253605217594032 4.271871846303831 0.0027514917547003448 0.13575527535715973 0.7739264770270865 -0.04735766334835714
Ni 6.252240874713848 8.605860984547897 2.8128372188793147 0.13663742085179695 1.7587363780047387 -0.07868964069241932
Ni 2.5782850704386786 3.651264810236069 10.131149418320677 -2.1084326331918657 0.7399218379468676 0.957384714887164
Ni 2.742261362603491 4.362626545684255 12.483152586101982 -0.29966130211692266 -0.019648370358546805 0.48581122787655046
Ni 8.44796098064785 3.157406364338471 11.000028026821072 0.4793235632696778 1.1167113498063606 0.9124503162683189
Ni 7.674481953259428 5.164037945538631 1.5889067080660493 -0.12020472921707039 -1.8632401515467847 -1.0765242360645138
Ni 6.690577816390672 1.8390558999563738 10.226857916072676 -0.948348829937141 -0.6096638382588533 -0.49747863691214966
Ni 1.3987522817724813 4.094119541813564 7.9453350537746354 -0.1932726528473381 1.3018289776467322 -0.11790950542499049
Ni 6.79556309011941 6.339201372719785 6.426895663705483 -0.696130294683214 0.21040314188003767 -1.777821676770964
Ni 6.524300883783629 9.153691713078155 6.425904904031167 -0.7178620299333508 -0.29051923060633833 0.8400241399871081
Ni 2.36018806722558 7.408878580269457 4.644998618929776 -0.4205540585399531 -0.45317981499477444 0.7768220534073266
Ni 9.180074863955996 2.7425396658827927 1.6259729941587016 -0.240529786062089 0.32195816584191006 -0.052970638659760386
Ni 9.082557394888532 0.5692934774300367 7.370409645649122 -1.8616825772516776 1.0668422328900593 1.178735614027957
Ni 7.729882859392505 1.1496430164691491 12.361145356133527 -0.9110819751658825 0.3169838525557702 1.1878375763292253
Ni 6.009411986746767 4.288440168198285 10.18229599499082 3.463246647676061 -2.294255771739694 -2.260574577437165
Ni 6.580388271338983 1.313099809179264 4.365410506154873 -0.6043064306016818 -0.35422499629541576 -1.1511767305730818
Ni 1.4601088780826232 0.7136818571199677 1.884217100766327 0.06665636367696907 0.9481009755923929 -1.321075741691486
Ni 4.177016811941691 0.6717304207979652 7.5047188082403276 -0.47201931629878063 1.0105805821838532 -0.12612083759118925
Ni 1.388019051967396 4.659928662186739 1.5384531065613667 2.01529005029891 -1.5830600980829252 -1.5623375208235932
Ni 1.7210089256523888 4.404288546595783 5.483843665205485 -0.05552348698860115 -0.40078767454630326 -0.14045345216377747
Ni 7.995606830470174 5.906708799908305 11.315610030385717 0.3208471921659184 -0.959538013784741 -1.5069605867151854
Ni 2.8326357141688674 7.059264724034151 9.89386989774288 0.14548921481547203 0.07003736433406003 -0.26581864253586474
Ni 9.063066888561405 0.6028345886515288 10.67496979659619 1.4159913573244645 0.4428154410413148 1.5526454903468099
P 7.223268846526893 0.869994604650397 8.394289265556836 -0.3921037736190602 -0.14612633417883863 0.30128032577758435
Ni 4.452954513369748 2.8526735502786207 11.5593944262784 0.5723918412812723 -0.5474482839620572 0.7450864128669427
P 2.9491241901087606 7.850082045723092 7.943869323170311 -0.1926537883164166 0.9545287334956077 -1.3152218540138705
Ni 4.232677467802116 7.229354411567632 3.391224719799347 1.542622044672537 -0.5173761471670251 -0.22840600621536147
P 9.054485870782923 5.527817438690415 7.525274288449582 -1.7144956630188086 -0.9844432616668529 -2.002383626649887
P 6.762175973379132 3.901236815705238 12.095433444864627 0.062027092435073816 -0.0010148144177595426 1.2319983300068393
P 5.175810174253111 2.133408001698255 5.6656601252511605 -0.6387931515246418 -0.859698478487584 1.3410426717317163
Ni 4.322838453520028 8.567529346212018 5.679291419871379 -0.14786465702618404 -1.369356431074745 -0.9536051932400736
