# total energy = -340864.66714437254 ev
CRYSTAL
PRIMVEC
9.29368209230732 0.00000000000000 0.00000000000000
0.00000000000000 9.29368209230732 0.00000000000000
0.00000000000000 0.00000000000000 13.60224316187682
PRIMCOORD
 96 1
Ni 0.33919058733733093 6.490661131314036 9.578849472672736 2.452659380623989 -1.1349677249133872 0.7832035314536382
Ni 0.8635652260644016 1.2906415184658742 7.793799864140377 1.5056508667648265 -0.33693021377071003 0.41505935397396904
Ni 0.2662193833557182 4.06944318171055 12.85983246171759 1.8440705205968695 -1.7145103183068275 1.3302085572306899
Ni 2.694331386363379 5.705568039684107 8.766373476014415 0.1500341538736771 -1.5105781288631146 -1.9541559019917505
Ni 3.9434022646609135 1.6122772696274892 9.022394901968676 -0.7435375803225839 1.6227874985795343 1.1670489217186482
Ni 8.983068686034779 6.095465886091968 1.7353200448219266 0.04688766569047409 0.2857287511962305 -0.3490041142161086
Ni 3.991469188638256 1.137918440020462 4.493269473471095 -0.9306539837605392 0.5350781924324786 1.5380783911659124
Ni 0.06940243004361976 5.1330958078286635 7.457266340524067 1.4280757992928244 0.28607379324047505 -1.385514014671214
Ni 8.351107594863988 5.007361582289324 11.299110964339118 -1.786631818863426 1.6717965814883853 -2.1522856258210736
Ni 3.0866362964429586 5.491311491854707 12.279560971818492 0.595507087142497 -1.8331795847159784 -1.4050207172455738
Ni 8.01801273363585 0.7043505106510517 8.527668038605125 -2.4188558018109827 0.5679152935671573 -0.18871614382490726
Ni 7.55966691833914 5.0400195812948105 13.52105099360243 -0.872337250297517 0.9659284906921171 -0.29247815410492206
Ni 8.523170825822326 3.693959836286614 1.6831685475483653 1.6017831284137252 -0.8288771222313531 0.21443951673294037
Ni 1.4719984315544015 0.5225028911460503 5.372967602345293 1.1643250950295818 -0.6526717092789469 0.19594762857633996
Ni 5.443681370937483 4.5430863977935525 5.910555998325068 0.16122230928001266 -0.3356675450082025 -1.4631669865690027
Ni 7.498923411936218 8.709629970400327 13.479047267846822 0.16449995159001993 -0.7184716384928916 -0.11382787915644912
Ni 7.48435091835608 7.871209730707368 2.589649209585345 -1.1491141916170984 0.9412402439168178 -0.9256961255346314
Ni 8.45242731744732 2.5446938103851906 11.149609076120027 2.6527503419447407 -0.8133214338849413 1.8693285238327095
Ni 8.578765632325123 1.3204928254680441 6.072598781210635 -1.0527297047480773 -0.0008489782638566024 -0.6320728020816727
Ni 1.0371842194113328 6.5902801100675426 12.560978313561709 -0.5344343882008925 -2.5143044071292957 0.41750781551446164
Ni 3.2632627253272197 3.951682935438913 4.474403298746809 -0.12833147208926285 -1.6421836437179589 1.0780776965945627
Ni 4.971515850313181 4.540251824743844 13.40690134283837 -0.6803133822556154 1.2231529638010676 1.603545619630787
Ni 3.2463017554396227 7.670159505184968 12.325278452953324 0.4978856425425813 2.2710914178080888 0.1069028699018417
Ni 3.0287459504540055 7.515596277677779 7.202156624786778 -2.4375927160988535 -1.3895686443565618 -0.7781299735854729
P 1.5899259641043824 2.0984855439505083 11.94883599953355 0.514872664018881 0.5437368965487409 -0.04304978000162263
P 2.765474523069984 5.326246403540402 6.527063554849777 -0.3587370252331564 -0.5026133870355538 -0.2915173328535496
P 9.07075457693312 9.322771355257483 1.5548311616443589 -0.4399440330307907 -0.7817104918478794 -0.1880150039928246
P 1.2865430046464603 4.8909860946550845 1.0396591269626023 0.9764358179813443 -0.46948600835396564 0.7714643886398391
P 8.363161500586845 6.386255906263482 3.817456143169005 1.7851392934783 0.07702459428517057 0.6940459013503595
P 3.0985972653445137 1.2265336991318236 7.098888017060745 -1.5739337103016249 -0.591226200378956 -1.2229089661110617
P 7.534109292481117 2.8562273290712885 13.624959006659019 0.67652357619588 -1.2343981976975837 -1.1139083331399267
P 5.9085606447717165 1.6764873194649716 8.184891019333755 1.027917530800404 0.2790585382649065 -0.000764646080166425
Ni 1.480641555935478 3.039489446996505 6.097885960918668 0.01112593470983245 0.14792584928142263 -0.6354118937572347
Ni 2.356292286241979 5.799480697609677 3.289566633860296 -1.164289099585324 1.1408987456858415 -1.5729520631146459
Ni 7.123189137094767 1.0480392401393945 1.697777286488811 -0.6007559942462621 0.7093511642488621 -0.058854608244363164
Ni 7.739192976048019 2.707296072934994 4.122214567582195 -0.3810719412849308 0.11236415012672907 -1.0863167966749032
Ni 4.16042832976511 2.0182717734848388 2.501058114047522 1.0683638117409084 0.43101896262701894 -0.19662999935534525
Ni 1.0646191690596536 8.779778683119002 12.38297920782682 -0.4888464151584484 0.8590464467258817 -1.6425371704026357
Ni 7.07640474125139 3.0234113769112767 9.633475877497569 -1.3195814165341468 -0.653395731929165 -1.1064698745840107
Ni 7.039806221022702 3.6496010914792176 7.326236574906945 2.1617693969417933 -2.0179058906552023 -1.9550969257487811
Ni 5.774573629500767 1.9381416461583407 6.05286178847075 0.10447240608347814 0.7323458253718226 -1.132286064316166
Ni 4.800697972760289 2.255781114003974 0.31384206932723774 -0.8553288886649785 -0.6658373001266275 -0.04226945019217236
Ni 5.227501030907133 6.526162997051363 7.225810904544538 -3.8924347277419287 -0.8465434291628645 -0.5052459395623944
Ni 0.5447147914372044 7.974732055955554 7.724645575409633 -0.7818238774972922 0.9823863791378241 0.3471971429143569
Ni 1.0143403487353257 6.9757448700993026 5.718505774577544 0.6613525248823965 -0.6174607085954528 -1.439191706700328
Ni 0.3781896656602472 4.330502712747586 3.5338631504391094 0.23752519490781027 0.11570067069912979 1.2861552756652173
Ni 6.217194534633196 3.5988389996841197 1.562176888000061 0.04627394336587514 -0.1695519121916306 1.6917784239269509
Ni 5.649991820545571 6.544583075033398 12.605456946868586 0.7986301504213535 0.42960459877799556 0.3706507459516068
Ni 5.867436101345626 0.24572588489043629 9.985270556539863 0.4309834814033932 0.3390261770677903 -0.2494800532768413
Ni 4.021487781918769 6.076172201989693 4.859496311493362 0.1644099629793749 0.818077717623004 0.4023797016237715
Ni 1.3813385623743981 4.432194182616126 10.648761393705533 -0.20675577493543748 -0.6467977669966732 -0.3342434109671663
Ni 7.7124643462415925 7.429601836927131 9.441738850837831 -1.7338555556026591 2.5769125688788197 0.8885467701778439
Ni 6.65817975171071 5.259935981541497 3.3731791038809766 -0.6559089852693221 -0.8416912432768859 -0.2116825228130935
Ni 2.693541423382313 3.6511624300770897 13.564156950058678 0.2425969530037628 -0.5767287780937294 -1.1688759476250579
Ni 5.151404361625138 4.287909767544926 8.326137329716595 -0.4296112836462149 0.9617162523829822 1.5951142010339818
Ni 4.467723929399842 8.990745267474315 7.846236677455335 1.0774053531178864 0.27496225670834584 1.784647955664178
P 8.547789789785199 8.367473769095254 5.59196392806109 0.18798903585089557 1.1404243771525842 0.3846326620529956
P 3.0059206671422585 7.949100080640491 4.464106828314772 -3.761197137749464 -0.22311647568164802 -2.7114648250668143
P 6.034350632403838 4.757668224497509 10.612687966517202 -0.252372801443604 0.7550697493318996 -0.630583619130656
P 1.9169148761729868 7.978049900476033 0.6338616491664127 0.5550050132633925 -0.1279072400676507 0.3739178467386528
P 1.7276955080023186 2.558048831606273 3.937318620338491 0.23566603021188448 -0.9941954559576104 0.11051347007123548
P 5.148123691833182 8.143979301228445 11.365163951343016 0.11062659861033206 1.3378627313418379 -0.3782547835511099
P 8.746813992603219 3.567008138388219 5.783946307929064 -0.8082195938820017 0.8807195608239413 0.3116920080292116
P -0.014120820628610666 3.5369988387898355 8.878197847509501 -0.5207772024287741 -0.5949347595787948 1.5602731820953968
Ni 4.996534442607652 0.14942753876204667 13.153668021523169 -1.1715069574900019 -2.6872733154222748 0.7312250815038182
Ni 6.041004908809055 7.221702167674781 4.804829014467158 1.762256218232539 0.5856919008242881 0.13888919300045113
Ni 4.430716487157425 8.545131796695966 5.64989609561963 1.834188742706783 0.8940605009072216 0.8918274978116447
Ni 2.0744334945975766 3.275567560467591 8.353110383363045 -0.16574796506450812 0.7053934651526947 1.4908569962851033
Ni 7.600642762851147 5.634722300805668 5.634539215267703 0.9017277876444921 -0.5764279590238588 1.6421846721592233
Ni 0.037733278816784364 1.3146378057260246 13.258677335912184 -2.145142072797757 0.9670842015631151 0.9526682832481012
Ni 7.518542374913049 5.236515902573418 8.81051288992354 -0.6773041631156463 0.7271036031362769 1.4467522926564051
Ni 6.499982694490616 1.4711341191162937 12.295204097580028 1.5804686832066652 1.0281643567038872 -0.9744067033664573
Ni 4.3585231643701094 4.644508350880316 2.6321018201878403 0.34190992637348855 0.4125098480792379 -1.1267826179994336
Ni 2.5082532827527153 8.617464524715233 9.349719315962181 -0.6927454373713811 -0.15930735164548693 0.29878481304924026
Ni 3.4603910169906795 0.7845373294385439 11.311952044938401 -0.30637625224325304 0.515778463662602 0.1439162139013973
Ni 4.7335046509590155 6.779025500449571 9.730745413408563 0.29361586725379113 -0.3380854104210758 0.0095948427772867
Ni 3.789322308624494 3.2404095609690824 6.824571977833206 -0.039137332321093884 -0.2283687252195228 -0.5302823137057319
Ni 5.007584630660448 7.2608471568071415 2.658191044663709 -0.6019132477791569 0.4124324578740833 -0.19798317094913
Ni 0.23348889362961514 1.0813756779403862 3.3707172074846894 -0.7284991979322227 0.45772321139108263 -0.033033533416201175
Ni 6.520921360329935 9.140550129730848 6.749433487178833 1.5711286367526618 -1.0441987844589307 -0.3809138184405117
Ni 6.5528265710828775 0.5329796590114135 4.132416242456504 -0.3331949150979939 -0.27307660964985875 -0.014162664653627224
Ni 2.0051769753634012 2.599173375032364 1.800746637650251 -1.2755638733026162 0.10503727744801265 1.2828431805728489
Ni 2.5693871238051047 9.239797361199146 2.469691007489918 0.723834959687334 -0.37531858374092136 0.62598494401638
Ni 2.3038852127098375 0.899050363173893 0.13985318743152497 2.080478571181101 0.35268439128117324 0.12388192095834147
Ni 3.6964040746868543 3.855614143259139 10.125441587900239 0.8157657816603757 -0.39905243702275145 1.306629484359169
Ni 0.5524759453841261 7.891246909380058 3.2681298266588 0.8287894476135532 0.4361925364081585 0.15658069674294323
Ni 3.6186810110320753 6.333653665406607 0.8153765548511535 -0.6306504678128493 0.37096596319918046 0.7892926750705116
Ni 8.177687486314644 -0.035824356507243346 11.131504983330418 0.031171026286165672 -0.060501399819166767 0.06042529516559271
P 2.4615897047770314 6.6532541001817105 10.513963039984619 -0.9143192511562576 0.5652788843855748 1.6815793719067622
P 4.957621795528547 0.02927323997367242 1.7501871481255913 0.24477981958769454 0.40770471338111075 0.4001346143433367
P 7.017185398717819 7.049127784199283 7.46750890759975 4.199024381547569 0.6829762737997591 0.20399003926484224
P 0.33781791048670184 0.06760317318321499 9.558187758560898 2.0358123386219775 -1.4964604585148098 0.7239565728668629
P 8.321618741464896 7.119722593660206 12.044337877103382 -0.7351467851557275 0.7443737030706341 -0.34299750301071247
P 5.142008448991516 3.1387366784648036 11.981508868430447 -1.0780668979612853 -1.1791061099934983 -3.0897949419405495
P 5.6138486907412615 3.1705024839857936 4.030535181472509 -1.0097871397482803 -0.04924459595842487 -0.39681660571369726
P 6.192938024273399 5.958095970525629 1.2861944915665782 -1.1203088373496317 0.4608195909282192 0.25089673111870986
