# total energy = -381167.9470426754 ev
CRYSTAL
PRIMVEC
9.15082574874046 0.00000000000000 0.00000000000000

0.00000000000000 9.15082574874046 0.00000000000000

0.00000000000000 0.00000000000000 13.39315846292187

PRIMCOORD
 96 1
Ni 3.2883033716978116 0.12564815410290475 0.7407529146824852 2.0090191296885336 1.1401865501101653 0.5317601838028391
Ni 8.146723675933027 7.8088477478049105 10.300409794380698 1.6409824243210063 -0.15439628749711476 0.3271538511102366
Ni 9.00378998767583 2.5751795442995995 4.464287846481846 -0.48586779214609876 1.1702427460655975 -0.3466039894150482
Ni 0.7759579703576603 6.420530264502976 2.0699258678468233 2.3004858118098057 1.6241661240946157 2.3864725003842704
Ni 2.1258557130034745 4.590337721822051 11.536049415362497 -0.648916870222205 0.4584194661271589 1.5012907900239176
Ni 5.241519611742288 0.25793614715307167 7.615027774256976 1.3329290414856463 -0.11568318719763303 1.0785901174546069
Ni 5.655612765051976 2.528537786975736 3.1959559864937237 0.9240634750272151 0.8283533885173993 -1.89369126894779
Ni 3.6372426477962154 2.84321637258551 12.059627619780946 0.5414517000589901 -0.19496443872746422 0.7269603926901931
Ni 7.235795605585506 3.6841955331854135 8.666565598319826 0.007103700924316799 2.032711845319783 0.0893689747831364
Ni 8.151784082407444 5.477455344346011 1.4016877543684234 -1.7821719833198597 -1.4589696606582034 -0.13157260473437984
Ni 0.753463411233956 6.3407808206973115 10.960679369056347 -1.9702898314391357 -0.36919113068694487 -0.49104367992008335
Ni 4.66477053604067 2.288127300726463 8.607380804550244 0.05457140748797698 1.179995197466671 -1.4613217058301478
Ni 2.5157906871224607 2.0863973536586644 4.51701673289573 0.8216433234870754 0.5176394281307408 -0.24404834073830872
Ni 4.6785699808208125 8.025539294485132 12.154424680958272 -0.27235130144805997 0.9662889593553293 0.29077248426772506
Ni 4.236603413187311 0.7484643152900622 10.20940392018773 -1.2697243838027035 0.4832632646437161 -0.6583391919773695
Ni 6.94803874845264 8.680180196425857 12.721330213722226 -0.7037145347883752 0.03493923507934628 -0.3845496154208861
Ni 4.88483873731232 8.899498030010522 5.372638129299815 -0.5921685096875672 0.3429687066553061 -0.7277890592390757
Ni 2.476222517872238 6.3106013983598395 6.737347398020654 1.4786995349869632 -0.6352733112968414 -1.2194184364592997
Ni 1.528389168480741 1.9431320303974502 11.00369831458415 -0.248015810026489 0.6639292844706371 1.4384687124913742
Ni 0.9391126127366725 3.7941427009794535 9.607340916040949 0.33141365482785506 2.650029086358836 -0.5428267260296458
Ni 3.7502736437672497 2.826250742199314 2.1592049812771825 -0.9707333682799283 -0.19994209444771374 -1.1792750314711946
Ni 0.009579999164675836 3.0806528405632 1.8237192487568723 0.3694392421420089 0.017030987340357764 0.549701341662292
Ni 2.5066764649732423 6.09186921760404 9.292293552165498 -0.6083129806579136 -1.8183751727132942 0.03851589668701109
Ni 3.2785119884652167 3.548561998350353 9.889293404590228 -0.8977868007188732 -0.6483046905595029 -2.0221608092768144
P 1.892262591715214 6.230174793470799 4.509717119433449 0.3288186404071692 -0.02193870905462028 -0.2664015116225283
Ni 6.4825637102354605 1.3003688998921532 4.755320699126177 1.1194107510153948 0.1603440204401174 1.5100721357609734
P 6.522561968281881 5.762274786509098 7.43010880862525 0.15752969091977387 -1.3466062818624227 -1.5247935011315483
Ni 1.6904228347420027 4.048233671278005 5.445001941883958 0.009902860936008753 1.2182902363921277 2.4668289872561515
P 8.089805541627666 5.501293244645926 9.504293470636979 1.2894650567647405 0.7933868997445432 1.1788382010440923
P 2.9998419010052175 0.5892481881851702 11.918437703732023 1.6583211727097695 0.31600966156795895 0.3246645090294796
P 8.028980004854716 0.7500254461120066 11.389032253666363 0.6352573704572414 1.0191791224861415 -1.2664125458206512
Ni 2.1713261646696074 1.3116152643714603 8.858314740068193 1.7044385358931227 1.481214588099333 -1.7590742209601316
Ni 4.477206066771055 4.88367658248004 6.378558173406771 -0.510705677125385 -1.497726469711427 -0.2652630271427109
Ni 8.197519908011657 8.945892715047208 8.048551790329364 0.1053704924177153 -0.006074231218537926 0.5221157187345394
Ni 3.274183648026883 1.1471474785402263 6.348558107248137 0.3958187605768022 0.27013346786113474 2.2365085376268965
Ni 8.534965747343575 1.0220648454501948 0.18720392674684536 -0.8400884175661403 1.7127866507475018 -0.03245657786680862
Ni 7.087533931628033 6.6143996525083475 5.0975432693435305 -0.3510211446461374 -2.1826637238922992 1.8483393231755523
Ni 0.7746530626483445 0.410964486087982 4.478391098666962 0.3240525864770935 1.4575203298061865 -0.10882528373553517
Ni 2.701964230923521 7.23951084071862 11.316843221848332 1.934673367787107 -1.394970017877791 2.2374981552336757
Ni 4.3541457661057 5.191528652303351 10.942745581337432 0.02836286741340922 1.9236780451178679 0.28652167941117107
Ni 6.319953541970785 6.505880013484666 11.41395727202986 -0.33067189156582405 0.49311598906807985 -1.3279285029472614
Ni 4.492487945274263 6.587496225682339 4.668024569571054 -1.434357518536478 1.4320072731367466 -0.2089586961240272
Ni 4.224533474417412 7.556705903327426 9.443757099948284 -0.45386012889125066 0.3696462159464924 0.6938862358440436
Ni 1.9721950520298988 2.1592653767251595 0.19038932908634643 -0.28291313612430635 -0.9873604353136479 1.3475511622741954
Ni 0.20214173421309506 7.450766797080934 5.637327585635742 2.344238531415724 -2.05076433194612 3.282472641516366
Ni 3.2106769193967843 6.085280623279303 2.449608257130483 0.9413803690391077 1.0449179220131424 -0.25171099948988906
Ni 4.432623245173671 0.5357103688014159 3.0889444035043723 0.40597256118135244 0.7899202813521814 -0.3907495735840109
Ni 6.031318205594622 0.9080812485497088 1.1263952365823966 -0.7920494118800424 -0.5550803465860183 0.5257160344912881
Ni 0.5351631494394447 5.242013756316644 7.438975043404747 -0.17398629381390035 -0.4460298342135544 1.0540008581510172
Ni 2.053143253969647 4.270809198723234 3.2896814860107355 -1.3326223088785047 -0.5851288292319664 -2.314341229635659
Ni 2.5804138164575843 8.596065808880054 3.0388939637000028 -1.1391745639058832 -1.124801840123979 -1.0181900190999946
Ni 9.016784159816282 5.189744241340401 3.9203518006825058 -0.6601891007019146 0.2571745937076216 0.8015702068862841
Ni 4.930089569167627 7.171529358442973 6.813622273402566 -0.05313236104860527 -0.2600532008069973 1.4144576942887574
Ni 0.5152610191660151 2.790352053954951 7.217197467938846 1.051293486522183 0.6946069160601521 0.0360221837308799
Ni 7.210685740547898 8.57759029229444 6.038425651722431 -0.19658320527780984 1.2977301249870101 0.4394352117151722
Ni 2.119239666202385 7.438037998878562 0.43426797818155677 0.5229793522864155 -2.5730862531541945 -0.37686098852737676
P 0.8765722112742019 5.558449300413015 0.13970382199567588 0.09594431400780896 -0.9123068487119191 -1.4687627354892254
Ni 1.1115141642339432 7.428713307743969 8.062560789012336 -1.1820214838680803 1.9440383539417743 1.0188651907901485
P 7.386839130480088 3.943063234369399 3.1314948267690834 0.6192841349574367 -0.29846188249218275 -1.0353336207588169
Ni 4.65080637640241 5.234500928621354 8.569933796639567 0.48023681911256644 -0.4739463581181645 1.0167170340988942
P 4.584261573722572 2.6325094657502577 5.500810996144657 0.4790299432886589 -0.3096171277780539 -0.23474223284603446
P 7.763651820902308 8.327489081892534 1.7543962554701036 -0.02583855832965873 0.07036749397996914 -0.2995147492367293
P 8.38642039779712 1.422422609757896 6.214881018894504 -0.8147828489218161 -0.8542066021350773 -0.5702069178148115
Ni 6.062687235240728 5.876513691439667 3.260764877585503 0.18212692064316374 -0.5662931845827022 -2.325781096041485
Ni 6.833992010856543 2.5708603546867166 13.07363790866915 0.7989926759670949 1.843904170222334 -0.3099328592462598
Ni 1.7412465192969837 8.72967701129044 10.197202209531337 -1.7577040800854824 0.40334463664020215 -0.7596514551653111
Ni 6.102831906494364 3.9952046377893278 4.897207908074467 3.099843584425803 0.3971585624341483 1.3575481255859072
Ni 4.164924997429448 4.4190983251570595 4.114967896044679 -1.8918827549841415 -0.7941698006571548 -1.5730834464861876
Ni 5.313435948961877 1.1645340468971699 12.24126601448848 -0.8289311153977401 -0.11740274099190104 0.04405096757262736
Ni 8.461420563193704 8.074862243666145 3.935445172181423 -1.5087022519966402 -0.005210340556345865 -4.6499328840096625
Ni 1.2388479003849264 0.08966710842948285 12.797121925520322 -0.8269981600410853 -1.1106170639831645 -2.8477194086578956
Ni 1.0342354433000551 0.427032420497433 6.958026874432432 0.0902097255168769 -0.5587120298013345 -0.5165040289747169
Ni 3.997629606533849 6.010921015664291 13.04852529838391 0.29984693576516747 -0.7804146558545915 1.2009705141667575
Ni 8.029135568887384 3.3639715473523193 10.842016040020209 -0.06963678646153168 -0.4526419402134334 0.49225184129557165
Ni 6.072698238284146 4.425137869954735 1.3238316163485757 -1.3885808265219957 -0.9963610961503615 -0.5460411192018854
Ni 6.144257693311145 8.814349599188754 10.402773673123477 -0.20446286513620274 0.916849473777279 1.5670102437089142
Ni 7.911153976347346 4.179081324402181 6.327061903181139 0.13341351459786058 1.1984372062219424 -0.03513926690529432
Ni 8.051765560227762 5.278809225455207 12.234087191922152 0.2777796715524829 0.38438069394318963 0.2200928583639758
Ni -0.017123939666499086 1.9193856383520458 9.247292537845002 -0.959163661164458 -2.682347595985884 0.1376280668998404
Ni 6.983937436697003 1.4525288254917614 9.279087995957127 -1.600079001238425 0.0800284141085009 0.694360604377301
Ni 0.20231376973157433 3.4980768943370597 12.839953279126378 0.6266935400476304 -0.46542340824881784 0.24973767781360215
Ni 6.566348668065026 2.3207316918084575 7.081899768397839 -0.6898629736172636 -1.2872639353483637 -1.6459935043823524
Ni 6.35328999908886 7.408133101304619 8.797336384510212 1.8567607144700282 -1.7255542348258153 -1.584477290145426
Ni 0.7995808262594758 9.053762645463864 1.5511957707523252 -0.3631636935459423 0.460073456790814 2.9423421756408037
Ni 8.713059112271383 7.420779542077933 13.361496339964521 0.7328618457762927 -0.26715304507657217 -0.02782679240428111
Ni 6.221975653866682 6.837862810022325 0.4210770632939073 0.47141305017334934 -1.0926417104516666 0.5952402066343555
Ni 2.6314388191724882 4.250695684381886 0.592091349652803 -0.3997134676455181 1.502059292758826 0.42135727116753885
Ni 6.217985893970036 8.342560491410367 3.5534723312873715 0.2910558198360988 -0.8192223727504084 -1.291871352213388
P 2.7692227979885393 3.7010055995389424 7.609202358774855 -0.23542511784567197 0.4751475775151172 0.4949628124688314
Ni 5.599408395131793 3.3348261682908116 10.651605664035323 0.7429945633349203 -1.3890032587713952 -0.42209363511293113
P 3.239721639378331 8.71895224386184 7.919267098192223 -1.3848732957634213 -0.698965450139164 -0.04858819332134858
Ni 7.815189269842469 1.2049806953906907 2.6077821052165038 0.41131197111639484 -0.12665948370347863 0.6863261641085986
P 4.872192296539006 7.484222214929874 1.862640454647708 -1.6596946560185286 0.6910012009867648 1.0918361838312356
P 1.9068215550077916 1.797020800420968 2.6192865229735296 -1.5965630176653665 -0.8964845369676818 -2.530147801919455
P 5.959511678280444 4.541051375942842 12.470021094360783 -0.3386158290032491 0.26302565317175997 0.3532047825610175
Ni 2.537414087663228 8.310624110586298 5.231836208250016 0.269218155135717 -1.1631778687990162 1.3878930564263516
