# total energy = -340864.83711742464 ev
CRYSTAL
PRIMVEC
9.25864636892261 0.00000000000000 0.00000000000000

0.00000000000000 9.25864636892261 0.00000000000000

0.00000000000000 0.00000000000000 13.55096483923606

PRIMCOORD
 96 1
Ni 1.3856304977798692 3.4927965654757 5.887474156355775 -0.4029877675214157 -0.6480439806989484 -1.1245547571101793
Ni 0.18520255497995614 5.439584360826966 6.582706837811762 0.7358972901685068 2.821464331616109 -1.2793742481876416
Ni 3.714754094797733 0.9208529312802434 8.184118421923186 0.40318317136167336 0.03468469586637898 2.1189448455770994
Ni 6.177544769395465 8.565821858043016 12.283746113356322 -0.5585593062735542 -0.546948204397187 0.5275960251228203
Ni 0.9631769814112161 2.4740677058710077 10.511551390114693 -0.031651822577326134 0.2652260032571884 0.3192052856871212
Ni 7.538945389636613 8.084659265070224 0.9022412003561558 1.2640612719796551 -1.6141763598717556 0.18299158263630422
Ni 5.394059596647413 5.351414271487554 9.904942471670033 -0.5922633833942187 -0.6724661182970548 -0.8001720409871768
Ni 0.6417408520788529 6.202107958203347 11.269348448521448 0.579519453464989 -0.5057187654337548 -0.8104572249632687
Ni 0.7520224406685412 0.7279277393667575 12.274911512994287 1.4678211975115623 0.46262939044344836 -0.20937701460836844
Ni 4.92286856581035 2.011672389081246 3.700605957286491 -0.7056395197252299 1.03874701731574 -0.0640891171704251
Ni 9.16945782513969 5.132030645855152 13.246637002594841 -0.31814264875056175 0.4967985801259895 0.9016761084709504
Ni 7.957288067018949 9.112378270295894 11.04745110040079 0.946591480926402 1.7106084121492602 -2.4369129164230094
Ni 7.6287172247972705 6.88692373663342 11.173407577287406 -0.6061545395540141 -1.4913776446752638 -0.12706160423790375
Ni 3.5990858257525504 2.4271819206757144 10.310061950313047 0.843920903938353 3.0528625876905746 -0.1435112651534948
Ni 0.28698933552922545 0.05087441004958522 5.31888957266991 0.0642086734674249 0.4536906931929219 1.2439256775720449
Ni 2.2175569083126327 4.582270741959784 12.246386549406573 -0.2652717688934593 -0.23529630557729153 0.8043907070542146
Ni 2.284358041840288 0.8983479395594298 6.633264602155644 -1.5415007865839 -0.9809889845696653 -1.3629980929568848
Ni 8.849469748098903 4.798682342108834 4.07503302322761 -0.3621483649075505 -0.8687528753803683 1.5526110375644488
Ni 2.157357189643636 7.604283657038506 5.717464114197098 -1.049899948608766 0.052010845849652355 -2.6465087319104033
Ni 5.268910473723877 0.6189664337488009 5.676092778777143 -1.6182137631659226 0.874612676595255 -0.859248535434359
Ni 5.617637389083422 1.1446371915302052 10.137328014393619 0.9541106721215826 -0.3417682585893017 -0.16963701570626913
Ni 7.353540996165887 7.798428212678338 3.2042341859289625 2.9957712419942215 -2.1336929504205515 0.7891499788450602
Ni 6.156055451180955 5.20751638967372 12.0566046679342 0.7800963532832242 -0.16757370541933722 2.267620942760985
Ni 2.4512358839334896 7.676519615982756 12.420719453553339 -1.5300202967481265 -0.6865051128886241 0.3972164122552772
P 0.2135238283476267 1.8197128739836896 6.907265908563236 -0.7798744670804053 0.687280557602068 -1.6034245206718902
P 7.550370559251738 5.588713377837351 9.325543789029172 0.877205891243728 1.192058042168476 0.9269793631224293
P 3.9306472107503114 3.9840047897551445 0.14763930081016433 -0.3896756237935418 -0.9610446802372544 -1.2325362047881805
P 4.957181109241186 7.099983706798132 11.472368342567323 -0.015849822548063025 0.1100362733245008 -2.144335517736062
P 7.761476955033312 2.781195523110005 3.886863997952123 -1.5481314045265402 1.3862544923816642 -0.3339737022455474
P 9.228907593453075 7.9231792138081545 12.370662581977834 -6.967689567084774e-05 0.08414140783560993 0.37733098618525984
P 2.56847812286082 0.06551510754747579 0.22778862480307477 -0.029160680724356233 2.982711837707102 -2.0437886719592346
P 5.27560447504619 3.333779314146875 11.531762559002516 0.2734779588533354 -1.2705612778817021 -0.14335005698528214
Ni 7.870071618255191 0.6234429892665584 13.214250257608045 0.22691785170560919 2.5817531848005726 0.4256433001374024
Ni 3.83057976083113 8.289636436957784 9.603691117279268 0.5576141687514655 -0.6062339866416978 0.6314737350450931
Ni 6.6191173905090395 4.352054500079654 7.880007997534731 -0.07469311793851652 3.014967355306698 -0.8961153265537212
Ni 8.199012806331494 3.62017702217334 6.248620619950108 -0.25965982202332055 -1.4563551058534918 -1.3730997001672611
Ni 0.07066106319746478 7.168664345538 4.46539514542853 0.6647597507917326 -0.08703235623015979 -0.5948404000927756
Ni 9.035263004716983 4.269911789524234 8.411259867345306 1.0183589405776914 -0.4823608074341047 2.1217681739585075
Ni 3.1703642057944004 7.878182192471439 1.4732339579617075 0.5047515164244791 -3.0632519013446986 0.14357682828410756
Ni 0.6461275987268643 1.6255590596974916 1.192724749023751 0.8590893841486753 1.7955566321568819 -0.447834491522461
Ni 1.3333098871679803 4.218563336780731 2.7216031716425904 1.0240745029052298 -0.13043771979898827 -0.2784759262885591
Ni 5.744925259317405 7.652113824163089 5.997088196542505 -2.239660452992317 0.9130794652118855 -1.324444658163719
Ni 5.863778502712347 9.189086155434717 3.344446200624659 -4.02269427009184 0.6023246242849628 -1.6827800770830825
Ni 3.379591096363762 7.761495472326042 7.396848314540884 2.366754710240369 0.43236930600732637 1.9799142419027773
Ni 3.721873993852863 4.229488539492115 4.156798906875951 -0.7568391825274966 -1.2500598154942406 0.3091427592447966
Ni 1.4597459619363315 8.194781604942424 10.176192108377773 0.057303975927791635 0.8029089803023657 0.48354582888114145
Ni 3.875215694959588 5.328184327756316 1.8045416560490515 -2.740318773184029 1.039962892000712 1.9477685104081683
Ni 0.08102056261591147 0.8802343238098105 8.704679332775427 0.7018502278861268 -1.757285247380509 1.79465288939569
Ni 3.1141549637089683 6.21255171130372 10.590376727677329 -0.1047950795302195 -0.05444362366086107 -0.3624340144687693
Ni 7.555944264363817 2.3620936367256915 8.22296955380243 -0.12545363632083556 -1.8165807998170327 -0.18337056324227774
Ni 4.1514474092766465 0.7446636685371787 1.5067993286308423 -0.9925748896350517 1.5644679369030345 1.8273010144480142
Ni 4.067175210057144 6.1222336160074935 13.084974555999372 -0.11349286441453359 -0.34826595049850345 0.9139970919301483
Ni 5.927015057389254 3.0208555842830256 5.95104217057257 -1.020965782072919 -0.9460440930633642 -1.391855126397893
Ni 7.3558556577572825 6.764450362509537 7.1670107512971075 1.3927131035228144 -1.4686673475619416 2.2135313600054327
Ni 8.838424182984767 7.627995050380755 9.007190788936546 -1.369372629024661 -0.5173807751527154 -0.7555523453952728
Ni 5.562307718402719 6.929707941488762 1.8345165236576146 -0.6173115846120981 0.6385545531512744 -0.3095762472377894
P 5.0749696083040865 6.16339755774886 7.547683700076447 -0.4838443339581667 -0.3179359320563944 0.819847150818601
P 2.5430168453554773 0.7661465056992324 10.329669911586073 -3.1022074566722897 -0.9218209588499414 -1.6717994097018627
P 1.7117200227755724 4.540393884448268 10.117976517624921 -0.09396816411804461 -0.4834288436873029 -1.3205748907956676
P 4.022826293966019 8.494761747187193 4.304423393851931 0.0997487753555637 1.273180460672104 0.1717725739920332
P 3.388960846485728 3.2934486505784113 6.433252842313944 2.8140598116219215 -0.4552238420079967 0.4049757444857219
P 1.6147357020961293 5.4662585210062 4.77675601578587 0.12939719434961586 0.5525169567342162 -0.7641218322318389
P 6.111345447881573 0.3021503689528616 1.0298938612569442 0.29167931235271055 -0.14524316024293696 0.913654363878749
P 0.6268649849632766 8.95817551507717 3.021051867585976 -0.4547335326351394 -0.13959778903170153 1.128310624608186
Ni 0.7090354714577929 8.595930976023878 0.9044836445058992 -0.7917205677857139 -2.0064074030972994 -0.27052453265196635
Ni 5.7341574535942375 5.304121105852175 5.44794862195363 0.7375757063121943 -1.3344596191975597 1.5688539817858722
Ni 3.4559378942943284 4.301131945068968 8.501102994082979 0.4456439116290454 2.247660440478658 0.9034781946766955
Ni 2.3155874560313867 7.31803408735389 3.4998618385172735 -1.360355256017399 -0.1640538651915368 -1.5823522733826232
Ni 0.47003092244745537 1.9550465079093626 3.7977800802164285 -0.4034747344601632 0.45360636100923163 -0.7073282202815625
Ni 9.163606360636644 6.136723397569626 2.010936326695182 -1.2627366396309607 0.8659583433543667 0.031099549618281926
Ni 3.1711511907354746 5.536707561201893 6.3863531691491024 0.2902731760338033 -0.6110913147339992 -0.16005837087889851
Ni 7.16003528712528 3.1307464579960866 13.094635953481854 -1.6864307864617925 -0.835330848276497 -2.1456367530459883
Ni 7.366391997321311 0.762511561136106 4.679229138429403 1.3782069394868395 1.707402246507137 -0.5091295908875166
Ni 2.314976385371258 0.7235595100114772 4.325834013572333 2.1511995918457467 -0.8652073241209551 -1.2254502444756765
Ni 1.5782010835375533 6.333099286983563 8.451330362950898 0.9431680570671498 -1.6367385614429875 0.9772503434628396
Ni 7.546630066120044 9.144320600257142 6.736455919358573 0.26944261244169726 0.29437768512048007 1.9605972867417205
Ni 5.679790682135555 4.1822509257349285 1.370313919097291 1.4988222738787669 -0.8607852837938594 -0.942298509978003
Ni 5.198868813968269 1.2615738951274718 13.011081299355682 0.7925116962284415 3.2485453926413017 -0.8676652987431445
Ni 3.8621702622304865 0.09441597217763162 11.68644676383225 0.7419908046607543 -0.5767087234890713 1.1958954136366953
Ni 8.036486528030114 3.728919823737069 1.4083651039305491 1.6053947570243836 0.20108443558227304 2.762418433296546
Ni 6.830279338168807 5.298065951129086 3.099580002600273 -0.5278251104144909 0.16753488176160178 0.27450074369089494
Ni 2.0507901699758184 2.669508472002022 8.107745699782797 -2.0495908804633087 -0.46859409266731555 1.0472098033711126
Ni 8.377389887210745 4.154104640783568 11.18006084056571 0.061882082216777295 -0.465173754131857 -1.1483168925267837
Ni 2.846144927364544 2.222899147265572 12.82555469175293 -0.06139614371929426 -0.3455912318798177 0.4409539623525438
Ni 4.364803656125057 6.459822379789247 4.215217261984211 0.2596996741223205 0.4886011319168617 -1.29141498140226
Ni 7.765772966946941 1.1452482621903333 2.1472995220967075 0.09518635279586186 0.19481274364094836 0.8802403071946776
Ni 5.2092199806049875 2.811786090701879 8.22833586523592 -1.483104348922878 -1.8547346851789348 0.44439538393392497
Ni 6.129520170697204 7.497688861431591 9.195738492848387 0.09908697340184872 1.1056653764048443 -0.28392332255637553
P 7.12790778423672 6.079366083334861 0.5640978436571047 0.0830304341596183 -2.6824231864188257 0.1748923505679375
P 5.644996689093708 0.4821393801643601 7.690429806282402 2.1125240296524197 -0.26600427618410966 1.9579901881361763
P 2.500936297623919 2.4314594152966116 2.84671896343921 1.218738893893772 -0.5256594702217399 0.29626847438528975
P 0.05308259720777589 2.9869781972313705 12.987990235319929 0.8662326800616759 -1.0268052715728315 0.17203919738985857
P 1.7343851890785107 5.705724150605543 1.1372728642110232 0.8926448515066174 0.555543659375682 -1.0214380937236471
P 1.0488379775855559 8.020654242744973 7.367375265565336 -1.5682842253253313 1.8492109271472283 1.045054961811639
P 7.43900756076655 6.568685543755729 5.101680803068783 0.2083488304541702 -0.8505672056102771 -1.7504476556333854
P 7.806714701175532 1.8958744989869452 10.3268923176764 0.46617622725444235 0.651438351092478 0.024517525525390032
