# total energy = -340889.4805359195 ev
CRYSTAL
PRIMVEC
9.06300403702417 0.00000000000000 0.00000000000000

0.00000000000000 9.06300403702417 0.00000000000000

0.00000000000000 0.00000000000000 13.26462251067422

PRIMCOORD
 96 1
Ni 6.483772561985047 1.9637897743759098 11.530047601437525 0.5338597466443451 0.16383069343713721 -0.26627604178825753
Ni 4.868319335998657 0.2592798485301532 5.877686906395488 -1.2138738524919868 -1.13772831837766 0.3062451259820274
Ni 2.582584480097031 1.423734445067125 4.979380102615796 1.985791012398528 -0.8591179233937656 -0.0914428265930296
Ni 3.279928239152144 4.290072508968696 5.009251762912188 0.4135763416705393 0.39592854668178906 -0.5385152431384854
Ni 5.528115070597473 4.393291058457658 2.357176701710002 -1.314159474187627 -0.005097983348197672 0.4437150700374487
Ni 7.547814514988082 6.144480891318766 2.6352559388787498 1.046038922991463 0.653615561249455 -0.9082460483789841
Ni 5.125608948909549 4.922706421386598 11.643499188438822 0.9306069325726877 0.020718463494273996 -0.06581972670828665
Ni 5.693161431537282 7.96120530415658 12.34472010048993 -0.6980822762032624 0.20276902237354755 0.3362272741664145
Ni 1.7561563589055333 6.849827282668088 0.5867696757383136 2.1043916303532724 -0.7846914288530744 -0.8354928277756578
Ni 2.8424661120749026 1.6653903765425555 0.551515497526257 -0.7287177417009321 0.8283739573426896 0.6340227267191919
Ni 0.7176068227962158 -0.013772140469174332 4.907936444206674 -2.367310582743839 -0.6069176429722838 -1.0150681856415615
Ni 9.006804044567636 2.2846472954539427 1.263274870315424 0.1052743331594832 0.21538362581376455 0.1247542962609658
Ni 6.942387739769745 0.4777616794661795 4.750206646178661 -0.07759537918697604 1.052557183725955 -0.8420787085232917
Ni 0.8450743450670433 7.427086242291404 2.7618135355750146 -0.38393692153755166 0.2710729489562686 0.16133749470163827
Ni 7.554493948737609 3.6376812484178633 3.891906659767404 1.7696764219560102 0.028393977761660777 -0.8369737831965586
Ni 7.66699301404681 4.025686564136666 12.315671360932285 0.9109133107985021 -1.210285106699464 -0.8985972124353104
Ni 7.641245020447886 8.791820533071661 6.777001516190035 -0.2414445845668745 -0.7714487049105553 0.49246909951270024
Ni 6.952320791858594 0.6621176761546216 0.3266732505720242 0.3073064773670062 0.2508753909624712 -0.009857095299737863
Ni 1.8942855987651581 6.396994301263578 9.478832467873774 -0.980448538685163 0.6793289068551591 -2.1992537670404966
Ni 0.14633941493926755 4.9524330736232995 1.1045871127930755 0.4906963238829936 -0.12707317420212952 0.34210815842722375
Ni 6.391719633092309 1.9320420723072615 6.846918964770907 -0.6777888160615488 0.9086795363719771 0.17722382691459157
Ni 3.5303299692277017 4.404674191143419 0.5568980154419207 0.7089829822761661 1.01364173760768 -0.3666745349126782
Ni 6.235781590901856 5.6125460133526905 4.299011349548287 -1.7912014405119794 -0.3307158574298821 2.5210260421238453
Ni 5.164788314037373 2.855661845506804 8.898863670134979 0.3955259119267317 0.004937546510933432 0.4256458712405637
P 0.19655117450847429 5.760599242297434 12.202258744847029 1.2034624273506758 -0.7963210426722027 0.9095184873335045
P 3.983498281770249 6.401525803128928 12.712136990633697 -0.6026110451771299 0.4917543328338628 -0.22565852537721134
P 2.513651273721314 8.704770382238271 1.3579261623777537 -0.31850774539946436 -0.17641470074973487 0.6535091175785777
P 6.09195172169562 7.374348623582451 5.767391057293222 0.6002404880624244 0.7247721267896228 -0.17996487999483846
P 4.652502028159458 1.4524551038897187 12.633172851728837 0.6985838984300292 -1.612088366994475 -0.0655448757803452
P 3.8627881350810327 6.18469343887189 8.228589290622725 -1.0745102909582784 -0.4190250234899364 0.3425971822485003
P 4.715852424237063 0.9086023760177699 3.7721662544773733 -0.07070250872188469 0.24422137598106325 -0.991221460930951
P 0.25927350442754166 5.309062270426413 3.6222768609767897 -0.39280465634082673 0.6305013438294947 0.8616304054029742
Ni 1.399726548184496 0.973257844632596 2.7534175689188927 0.571997434056331 -0.18346132318387115 -0.4449317160533692
Ni 1.4941539840546774 6.453275554431235 5.040450246954756 0.5623334286040058 0.28406601878182686 -0.8237428863285813
Ni 5.972972608718967 5.5423349234509445 9.164899081645997 -0.12867574280255903 -0.06407651876493482 1.0010546449712887
Ni 8.498668614398383 2.2911545321325866 10.115282811162675 -0.1502311003758316 -0.012416371386481842 0.7429341424106302
Ni 2.104030694104788 5.155444357191019 6.93352412212112 0.016755879302100173 -0.29926123846502656 1.7442734085018736
Ni 0.1944213686317594 9.08874266129691 9.193431229990992 0.9165196012416861 -0.3873449187778361 0.43021549288911715
Ni 1.782511573754414 1.3516835654080464 11.697406840929409 -0.7625272340512094 -0.4443712155642089 -1.6294458844363164
Ni 4.544026936506689 6.598319866137386 1.5317319164232859 0.27172086695291264 0.5180844860879593 0.4027239723370677
Ni 5.4409742897267765 7.635580643116198 7.9763486770902094 -0.5187830548168807 0.810775784644952 -0.9693987086289046
Ni 5.336196903596134 2.8275484079341675 4.679227919860924 -1.0507772090073968 -0.5894050880098172 -0.3055162182358029
Ni 0.5094024380908053 7.634746846772973 7.1351732362281135 1.1426442676220385 -1.2813995061477867 0.34226268172721697
Ni 4.841791924078893 4.683914399090069 6.991105916324132 0.21408701848952805 -0.33439150650925636 -0.2705232471003857
Ni 8.3404195062566 6.835734311866847 9.310478110572259 -1.1841045916493542 2.1388734661802262 0.01026590070238232
Ni 4.870150062752259 0.6820535654610461 10.41136208004097 -1.4601950484248722 -0.6896994514562057 -0.05835350023822854
Ni 8.26279487930314 7.079456608192879 5.1042401987133 -1.0342653273953026 -0.22903386960734748 -0.9626847869438389
Ni 6.987068348162105 5.86799583650625 7.0595642213043615 0.9843956962583691 0.5592666167532239 -0.7617890703336041
Ni 2.241761161800262 5.333396435443347 2.6715877082343873 0.20598572953863237 0.7148430406013688 0.2947016441188021
Ni 2.4312323177943123 5.471761313399971 11.456057238980076 -1.085438764945324 -0.7303740463574325 2.0342516790030776
Ni 1.265430958902958 3.077904822991072 4.073831052554899 -1.7084713112015997 1.4477563084408873 -1.027617997282114
Ni 3.440080578077374 2.833638746441199 2.9880415157996723 0.5409274521244039 -0.5130865186527357 -0.532167960764219
Ni 0.8120179452596817 3.1462670601317546 8.354257806653008 0.9867084035519457 0.8790599137333314 -0.7634155501934337
Ni 3.6581001958231343 2.676993789959751 6.8458314043232225 0.3723456171555265 -1.0960491934713188 0.8681075284868855
Ni 3.6883615652799477 6.776199440359869 5.9786043592372256 1.2958475632523165 0.5298295424390295 0.03066709006655364
Ni 0.88722728171891 7.72240421885632 11.617103190073154 0.4057409047865206 0.13314123477308037 -1.2267975025321904
P 0.21909448998822176 5.498080276233928 8.066548221720018 0.18029423830979915 -0.6224242232483151 -0.8351295308989682
P 8.270652503537658 1.4768345839253065 7.945481898984185 0.3219471100983165 1.1247653304590888 0.928722313955465
P 1.7395529360708877 3.2897978502148777 10.39145156714499 0.118492374511654 1.0866834359857027 0.6545154473559051
P 4.001642415239114 5.970172140566181 3.798642913576245 0.8825982659038929 -0.11880964864175668 -0.27268785885187236
P 6.641187873783605 3.7738891314865795 10.293054535640763 0.53984784590698 0.24011172468806385 -0.16245746723869442
P 6.182708641054867 7.590347191496265 10.07347245605183 0.2296509343660561 0.9975682290845852 0.24469163074926245
P 2.3314123947043632 8.496665690573899 5.99888554898579 0.8476456610881078 -0.2948651662798599 -0.006460153803046939
P 7.458090778054134 3.792921439321053 1.5706375788384421 -1.3548718643053248 -0.26437522522111884 -0.4267936116917618
Ni 5.618844800945528 3.194319105911936 0.2330515157335024 0.015226330031451197 -0.35122014803082097 0.31669563189139005
Ni 1.3025711481913735 1.021663347558274 7.267288266812045 0.8102415094080369 0.2030788403044825 -0.7941489747215483
Ni 6.682261406691144 0.39502370580785734 8.916903579060941 -0.06929894350613872 0.508588373672066 0.6178324901125746
Ni 2.6024052692560757 1.724626168926422 9.263322395861044 1.3234691816243271 -0.7560069164341883 -0.45246042033024664
Ni 6.419071778351567 2.017986536685506 2.4280493908840897 0.1245432086914242 -0.6014723035869963 0.2876642776560465
Ni 3.92358276410658 7.16020797143343 10.437400089759276 1.1774922285391594 -0.07451468337912329 -0.5869584262415375
Ni 8.539134926055967 7.215184152063867 0.4086009916968216 -1.1928651114508035 -0.9202407588470151 0.09778933763634771
Ni 7.651903112835191 3.818778188964745 8.147143701296402 -1.247573044516645 -0.28808413880228445 0.20399929523622284
Ni 3.352477584016411 8.660814814144368 12.168725631043433 -0.7019461300340427 -0.08955846508612318 1.4189121305156853
Ni -0.15413994225028255 4.842426334340042 10.297711106957598 0.5717187264736476 -1.6865110048804246 -0.615767637163746
Ni 8.662708981924085 1.992709819280579 5.919457384289919 0.09211748406255103 1.2583909610677553 -1.2430910974858913
Ni 3.5128746240423703 3.096157712504705 11.779872924475809 0.4059512210251138 -0.050421904095977674 -0.7216762614731184
Ni 1.1776829567823042 3.467333030295594 12.656677751904414 -0.5209456096858383 0.5848478076564378 -0.38463291916331177
Ni 2.9224652460058067 8.449012416957869 8.142130047632577 1.345562671089257 -0.8532246978377821 -0.7938489269826264
Ni 5.719172252244396 7.769114940084357 3.5957077592398643 -0.4451782848465365 0.9793717606812166 -0.9335395328384504
Ni 3.2650830390412544 8.01960730019722 3.444119052539775 -0.676587596664596 0.6595599517583479 0.26853424169481493
Ni 3.7090342767896782 4.539667631712222 9.68804193969292 -0.6830912021110688 -0.44643066919639884 -0.738111009990374
Ni 7.337915348585031 6.510444981964502 11.50101064378473 0.3863576151639023 -1.0064927852677246 0.009794617492918616
Ni 0.5762919371252494 0.022451779142067366 0.27007841747528427 0.8253768223875785 1.9279363061735892 0.6587197152452396
Ni 4.642895244204914 0.3542864103387262 1.5326345915948638 0.5463635355383107 -0.6532867171551265 0.06287941313304009
Ni 6.691442229470346 5.463233026889379 0.4453786608360092 -1.1995540934352051 1.804028417073319 0.21529363720311956
Ni 7.876212455170059 8.97634328902875 11.064657828364126 -0.524424055152742 -0.15580319514697039 1.1351582436576386
Ni -0.1775705257952657 4.559279971785459 5.967700659448818 0.26046586286438367 0.1894946738621446 -0.25022747296582715
Ni 7.829556111964406 8.999009861359234 2.635507890382464 0.6940641561828046 -1.207112108288121 -0.9532210704277777
P 8.5697860046732 1.6757675158142091 3.656100897200141 -0.18464994417533362 -0.48215383362962116 -0.16553970570844392
P 1.9277643345463704 3.579188622339915 1.5911444373799009 -1.074835278397865 -2.265035441421996 -0.5210158008021414
P 4.637013354783689 0.9326283989078602 8.00790514978014 -0.011440637736773845 0.15903404337944224 0.4812464913240034
P 8.733862624213824 1.632074774828496 12.317236541676577 -0.8657912216488832 0.07507672653018038 0.3096232984256409
P 6.6445593111714265 7.672621139363575 1.1549728820339116 -1.5829305144835966 0.4774500003960486 0.9193663266618617
P 1.6907758499922512 3.1085105865896514 6.182017133870214 -0.5835794824669756 -0.0518195557744527 0.3685059316944621
P 6.653259794752899 4.033707322438337 5.7592207594299945 0.8190508801695506 0.052653621639973835 2.98442007864746
P 2.235843020364114 8.75241459285057 10.089243895143996 -0.2746876628907205 -0.19453326472731658 2.152987279873789
