# total energy = -340898.2672410241 ev
CRYSTAL
PRIMVEC
9.00204418186127 0.00000000000000 0.00000000000000
0.00000000000000 9.00204418186127 0.00000000000000
0.00000000000000 0.00000000000000 13.17540160072842
PRIMCOORD
 96 1
Ni 6.364958297922447 1.9360696254109369 11.47972711397541 0.18509474502223608 -0.01863381305110339 -0.8229928955364343
Ni 4.546365348066504 0.4295262329834243 6.115613378903663 -0.4856165953672411 -0.9154844751089525 -0.6077576223750759
Ni 2.755489692006259 1.7441280410290518 4.684540423629438 -0.3319361029902283 -0.13996905632819118 0.964716729772203
Ni 3.347158042774656 4.390855036172824 4.8276909289685594 0.0006332627086247159 -0.7336678866173558 0.3739389297845754
Ni 4.9310316946673085 4.772181624411106 2.5432214920379232 0.3715105228487408 -0.5276600455915365 -0.2176297415354639
Ni 7.170254157318858 6.16328550386432 2.6188611676203637 -0.07131391705363849 -0.9462796061129379 -0.33961238858856346
Ni 5.217026635846019 4.375092456947017 11.497171275039811 -0.18903624616848733 -0.0682699880209921 -0.47919577944256186
Ni 5.6327410325609355 7.783257352613335 12.212490803414022 -0.5122447394777307 0.24106020464426228 0.5299110464092421
Ni 1.8152171833170052 6.301223825667323 0.46757247218385567 0.46717844326671154 0.8982578268180208 -0.25900779026161846
Ni 2.7906066660553037 1.6824550368737055 0.4237235153540948 -0.7204030511876497 -0.843587174748018 0.046327936532262144
Ni 0.6357270552257775 0.04796829221167396 4.892461536500034 -0.13959264682537895 -0.18534388491856466 -1.0761758515861595
Ni 8.528473569660779 2.25050202391365 1.212786888822478 0.4555529432126413 0.2102427050427734 0.29461602638353135
Ni 6.773912159515386 0.8303881571314299 4.886400460204924 -0.25645674170499055 -0.2740212329513152 -1.042924031511565
Ni 0.6445436572210697 7.272715423308663 2.5106917054643194 1.341811945797573 0.34163918921060515 -0.25113327260954815
Ni 7.5130429947486395 3.9135486536994963 3.8284289254713118 0.45646851304837516 -0.49792832285505856 -0.5579880071511165
Ni 7.516553791949134 3.8813663460283006 12.560900517182235 0.8705032824125718 -0.2999068424688254 0.2145701287735337
Ni 8.012332368923524 8.919054259237798 6.714289821006893 -0.37405000144114287 0.0714401582188576 1.0712889558075032
Ni 6.6505751532487976 0.6425983154902318 0.4444813288531187 0.8959507759513989 -0.6178139781698134 -0.12756914000194158
Ni 1.9535786011928882 6.3972756362552 9.1944276885784 -0.24823486801583053 0.5537109770423173 0.17412616182587431
Ni 0.061745020508176936 4.836033123239579 1.413707111993524 -0.7091362200245788 -0.8254992068980557 0.03726762610220678
Ni 6.385744017758193 2.0455434837576254 6.981895386490298 -0.030396867124302486 0.12887577462850708 -0.16383146476808558
Ni 3.3652701555115643 4.277276245714788 0.4602664131891864 0.018538682234135816 -0.18779594600348304 0.11898551209798863
Ni 5.830281888375404 5.444940388466812 4.699573837282837 0.1559345785185121 1.335326080962913 0.21376820169752864
Ni 5.48177675293969 3.004081139933552 9.11176551839056 -0.43485916230871563 -0.3411923314811737 0.4599204761527176
P 0.1374774171448865 5.465735110346663 12.422981099671851 0.20637319478503813 -0.23342479958619156 -0.06778379241319293
P 4.064449919012016 5.971253899041397 12.489859085728034 -0.8176951374726048 1.1502020253646386 -0.11592281401226487
P 2.4222880315470574 8.48629899303433 1.3039469886443331 -0.6597656400112509 -0.12830987482270806 0.570759704994488
P 6.302988226311674 7.841662614758991 5.772722818375508 -0.2403796336374699 -0.38399142892457094 -0.31147757802556036
P 4.7046122813677504 0.8976550314928966 12.61780513857578 -0.17120024642833095 0.4067582903074414 -0.7118302219169741
P 3.992172506902356 6.048383412923021 8.186825291218952 0.04129860163847081 0.7633918960443499 0.10491386449627092
P 4.657081488499522 1.196056589855508 3.8826194305675537 0.7335347034736012 -1.2179055993591992 -0.3912792208352358
P 0.12960332916726552 5.5134639481851755 3.547437320405509 0.6346937846442876 -0.5493138764158862 0.9312952168889639
Ni 1.4669551030720946 1.1140659721578152 2.7054500294462933 -0.5074097799829326 0.29878609860082095 -1.2403958100419152
Ni 1.883524693976875 6.482858069550321 4.759205177835434 -0.7429061173861721 0.24285714864368496 0.29015593372964865
Ni 6.032647839829525 5.6553991775702785 9.136798402634493 -0.12468744757877237 -0.6206830721874923 -0.3978314201314567
Ni 8.634040540866405 2.2192829349615644 10.074755585580242 0.31917263267697293 0.6700297409414203 0.8588844672267207
Ni 2.2109740482537283 5.385220827881999 7.021224416975525 0.5573102643578015 -1.1663441823421397 -0.5189748591127127
Ni 0.5299179290337581 8.990017372908298 8.915899942983817 0.2576165663410466 0.20709464633209493 0.4642571558548585
Ni 1.431892141287673 1.05265402728148 11.426300882423583 -0.18211715045115087 -0.20119267902536317 -0.31780429157453655
Ni 3.9879955584381785 6.862222212173968 1.5765288841083365 0.2806701057264005 0.31656373429921614 -0.2708371787963787
Ni 5.664905336143924 7.955664501289907 7.904727334932789 -0.4288150129971647 -0.5063121760433796 -0.010502185082904495
Ni 5.301366787054812 3.0284766794549345 4.8510512334180005 0.019408486433598833 -0.39318723649122606 -0.24741777143117388
Ni 0.6578459777933007 7.297164975094668 6.961328416326275 0.19055628235743957 0.19123968157770938 -0.33306584571929737
Ni 4.949953991373561 4.502102297207968 6.9469935612953355 0.8310836429643688 0.8063259764037146 0.37079575616990335
Ni 8.122769445989322 7.103296953274563 8.987797468832294 0.08162815449545298 0.16905543217118627 -0.017101435566977
Ni 4.618030621177104 0.41329734787303773 10.378698802293172 -0.4724826290884444 -0.6774784839099817 0.22039316321321398
Ni 8.082854382432934 7.096887497872635 4.678729604160416 0.13151346936167027 0.6014712751457318 0.4351029028884055
Ni 7.152889214242568 6.044575548267101 6.859693537985202 0.2031048084464115 0.07018931653089203 0.2910059404347698
Ni 2.3666373948971744 5.108272941027637 2.6579399412795044 -0.7534712944965282 0.0015786573410295393 -0.5195466724557827
Ni 2.24603701003815 5.152590004150797 11.401663187915807 1.4914182681052122 0.6973371705071216 0.30733810193589006
Ni 0.9910980496994835 3.3269034435410365 3.8196942420773645 -0.021788299519685056 0.37903202803676656 -0.314570100907955
Ni 3.735776286737041 2.6847516294383547 2.582141829720837 -0.6202470130913382 0.5458048348213632 -0.13182817238861166
Ni 1.1444658750964525 3.2370990515612186 8.13569188030037 -0.16523682975604445 0.5746541549528877 -0.22063973200638132
Ni 3.775637338028805 2.611583014962416 6.963172935163151 -1.2158271195636159 -0.5157877196339827 0.2690664600492011
Ni 4.209760914936055 6.7394883428623364 6.056402433810714 -0.02544543665629811 1.2568362149861259 0.09718744238629069
Ni 0.9249240234922217 7.199825872199943 11.421940292259686 -0.4421189291949224 0.6732125095447761 -0.3173054975612471
P 0.16715355573757584 5.4434100409691615 7.943818711453676 0.16612257479510745 0.05845351615120256 0.4330187666658671
P 8.468736004987756 1.7241885133390662 7.948127089761769 0.1196210887994585 -1.254952881920484 0.030189379099186713
P 1.8824984609490383 3.30816118771686 10.226351808697578 -0.762784601477654 -0.6972276415124509 0.6734513650284595
P 3.866548981433394 6.238551594616452 3.8910120362855554 0.34315896828924125 0.5253892472794887 -1.3494224111549793
P 7.014059690073287 3.9161142362690877 10.396050242303307 0.1381901100508975 0.5653822427326586 -0.2740554286233603
P 6.28673953670426 7.8190314758819595 10.028324842501503 0.014885915972896947 -0.5769226392720903 0.825641903123507
P 2.395272897191461 8.286507626193904 5.9924492118838675 0.48192500544826683 0.023795816868017086 -0.8220968660847261
P 6.808912106991081 3.8761001502275594 1.6127216024277888 0.29193822244105205 0.43992140732297136 0.21257032473468548
Ni 5.295821527886853 2.7936133487859833 0.48945013996939624 -0.3243138105582802 0.2138342790487737 -0.12276889039982082
Ni 1.578553443827288 1.0295367780228417 6.923805195888276 0.10383143006536956 0.8925152679072886 0.2732565868711488
Ni 6.795499061276373 0.7465638230497865 9.140026535650128 0.5709283693618683 0.19292144015550647 0.1383176367676973
Ni 2.7388719185905868 1.5743314851425914 9.203993260643129 0.1421182414607101 0.05855893138081528 -0.024756381009073493
Ni 6.446840891090894 1.863018037508348 2.648729949956875 -0.20257593252613498 0.39686519956344557 -0.20996425457040613
Ni 4.227810013364237 6.723716761592424 10.357921184297119 -0.3886471825290274 0.5854409611557466 0.21814653327088238
Ni 8.014735914699246 7.107860989635205 0.2709525254812098 -0.23474866060393762 -0.08396605860001022 0.23695569555758544
Ni 7.639782773686476 3.7461466415446547 8.272900136326554 0.4743389655708928 1.1053676426587673 -0.5937538518968161
Ni 3.04606667363382 8.273085578435092 12.212596127330036 0.6361827104849882 -0.27135191364926814 0.9723665330079769
Ni 0.23192236286022963 4.933588275192796 10.152753796717887 -1.2643860023089257 -1.1023782210131403 -0.2528803372076419
Ni 8.676863264668329 2.3066207668569327 5.859192853219268 0.1853271727480163 0.48889449478756447 -0.6351421850356158
Ni 3.538406469760546 2.6625435866342038 11.563048233791648 0.35876916402267245 -0.13797876537103976 -0.6122863634833648
Ni 1.1632351370529401 3.323329632031815 12.366273623044178 -1.4040758368338013 -0.4668472851795379 0.9952637493211246
Ni 3.115058339645581 8.363889197310435 8.127997833204827 0.6267416196767465 -0.3967479572592909 -0.3573864247425329
Ni 5.419140530065234 7.8917229820203945 3.5896515060260143 0.3917003675330544 0.20987246618754823 0.6443819584663288
Ni 2.962662735011826 8.421979387912458 3.5758171646472467 0.32461745784162804 -0.2266113762087839 0.34726142049338904
Ni 3.5953443987172777 4.330946432661829 9.454945044534448 0.14331688975450155 -0.014934252712329121 -0.43144293753831503
Ni 7.302098095263567 6.265161636987377 11.206443059071306 0.08691331415379225 -1.5826448649223774 0.5272977771561113
Ni 0.4841785429421927 8.903579745423313 0.4192197926889481 0.40518297540052156 0.5866817755413832 -0.21093201780031412
Ni 4.4549405881479975 0.4581509328247861 1.6628809921743353 0.29943221682525206 -0.946845505918737 0.4192314830737876
Ni 5.972235121848715 5.586038427750261 0.29745094250524673 0.03693466824282027 0.4277140666235021 0.9323635102524781
Ni 8.054695988476151 8.606647320658446 11.173780942449376 -0.2637373345268038 1.0058296977624288 0.037226488451626204
Ni 0.10438320240597256 4.778717108430487 5.7313656273536875 -0.25689125813924796 0.26355581464361705 0.2547096771068968
Ni 7.897169218703213 8.697252894563505 2.4521532130659276 -0.6477614164615232 1.0126048117027333 0.4848637763616165
P 8.475604564638978 1.6567812070895793 3.5824840785105443 -0.21610559158145362 -0.6460899422963712 0.2840297662272528
P 1.6607241024070574 3.2277459277373377 1.5321542079029118 0.47241629462688317 -0.3523231512870126 0.38450230712271843
P 4.763584672291948 1.1036506071296825 8.266075686691439 -0.36378564340065733 -0.166717528066629 -0.4600528879655238
P 8.404155340586872 1.488316953730486 12.271568518254233 0.1578197113563669 0.18292653372632364 0.6253971898337101
P 6.139286054283508 7.627269932382151 1.439623096764043 0.08643920273085112 0.778442362619569 -0.6312798738667321
P 1.8664928265324268 3.327983688833496 6.014926415806723 -0.250721124772794 -0.6387129331060096 -0.2313558328723048
P 6.916639568781627 4.03318581983941 6.022278385226322 0.19945307062643713 -0.5174316829953088 -0.10232862026759797
P 2.2932527313627435 8.4239598376153 10.157707621588225 0.21853914072361072 0.2797295961900021 0.06280073737630475
