# total energy = -381165.5271141718 ev
CRYSTAL
PRIMVEC
9.32359127778228 0.00000000000000 0.00000000000000
0.00000000000000 9.32359127778228 0.00000000000000
0.00000000000000 0.00000000000000 13.64601827808286
PRIMCOORD
 96 1
Ni 5.09358976986186 7.828376224682751 0.8826308164375865 0.69998514965293 0.6972433252417346 -2.3148500509512777
Ni 9.640127148129036 3.2928873020183924 3.9784556266622357 -1.476271899382077 0.1069838596514222 0.5458516288988986
Ni 0.3116326454971514 2.7633539383373744 1.4264591101863173 -0.6690676341384671 -0.2790893915028419 0.07493428741504514
Ni 0.5666953335896333 8.252646243422161 5.443724185326803 0.5860518552668681 -0.7976225350924457 -0.6355977845157957
Ni 1.4784978022551476 5.189958408773859 3.1718260641034384 -1.3516495007132852 0.6955178579101957 0.7584813461166098
Ni 9.011773041043579 7.80603690010524 7.902082010401697 0.5171290641532256 0.18748304274875455 -0.8026274445062048
Ni 4.353632275801109 2.6652697586397895 9.172239504916126 -0.08472401981195732 -0.42725486759889647 -0.8709910206822677
Ni 0.23257325369623247 0.8518126179991459 6.768452659287045 0.04120604192466451 0.1159194715781552 0.3012931812933908
Ni 0.48925078778905856 0.7137470144062019 0.04907379005896065 0.34768539540468507 0.9797401997642289 0.500978165424976
Ni 1.5661302361883795 3.861113569287336 8.343926066243005 1.249680577777951 -0.35299189521926305 0.45928927032662187
Ni 7.9593447106344595 5.337569505063988 3.3706758883352066 1.25018271422535 -0.31508766397432186 -0.4707000832667248
Ni 1.781635723786285 5.678449323877999 12.306088717237795 -1.4508709428104691 -0.2490499077179582 -1.655118349501756
Ni 8.285157606027244 5.020576726971005 7.818076453455382 1.0280273169053908 2.020037078065592 0.7333246443453242
Ni 4.175449123880906 5.255130311443642 8.151244729966363 0.12876855962668146 -0.510522100359669 0.2376090128708682
Ni 7.593822640210115 7.729014712987204 9.770208028196029 0.18814227359930824 -0.05183189706962686 0.5135603729653607
Ni 2.7253603040913994 4.80042809094255 10.420058607212166 1.0362165375844024 -0.51533032038159 -0.7111671344116784
Ni 6.455300268420055 0.5394499353089982 4.107915555553576 0.42185426540861537 -0.2739631260198701 -0.043904414692434064
Ni 8.960148316425183 2.938217891781119 7.715021867275214 -0.8234816622473948 -1.287382206093783 -0.23444655598248657
Ni 1.5205938166405655 5.413398272505097 0.872822398467828 0.5886391563780701 -1.1341845668904598 -0.6598201473982701
Ni 5.590322739609789 5.689721545670239 6.148909345910164 -0.6223766578398314 -1.0450040539690455 0.6296904178924252
Ni 0.8363895333930865 8.17878475372974 12.621065734907715 0.41802923523557034 -2.4104506084664226 -0.8245561262584961
Ni 1.6444577260780568 1.6851645253707996 5.02939031775695 0.022322317646284135 0.12768998185052202 0.5418538205934152
Ni 6.382445726580043 3.8240802649376393 7.843089783996512 -1.318078349626059 0.014348555412188192 0.4094394366840304
Ni 7.652999473721576 8.928159074928756 5.991379813273809 0.6543449832163117 0.3238988345080486 -1.3655925931569386
P 6.449706113684451 7.217876794795096 5.05488101616885 -1.1753628409009822 1.6298359207858832 -2.2085899568397576
Ni 1.53690077769485 0.2743252275654105 8.745255388770827 0.3512026645293242 0.0772351676340799 -0.4957295154315268
P 1.0932376892053486 7.985282941425209 3.182469875847047 -0.2465855053378656 0.4622804917444619 0.9559186718645988
Ni 4.919126730840833 2.9762954383481284 4.138537026217148 -1.130392446837879 -1.0599563044035034 0.4237951911850701
P 5.816149442694883 1.3879004663120462 11.73052664839223 0.13609003298875916 0.4863105361104721 -0.8414079077085121
P 1.5275865100600698 2.20021835187783 9.907186501052019 -0.43426678014035525 1.2845383088870845 -0.5089133611116526
P 4.851661224729453 2.695972344547028 6.8063884872674185 -0.17076572999407366 0.3600194914900058 0.0395844471608415
Ni 3.057848890802004 7.631089034340461 11.335405905261807 -0.06941310048649982 0.10623001220453318 1.3197770774847206
Ni 3.8503634686037507 -0.49393029822539103 2.413461936244307 0.9306051328004749 4.648643732884594 2.232690706542703
Ni 5.5530283747057645 5.633257877205547 1.0198041523502017 -3.126120515844461 -3.383895976360875 -0.3247547547504407
Ni 7.693473183233668 8.127486354804255 12.897084126639768 0.7302879144015294 0.5335481289411973 0.42077954428719794
Ni 5.1478903651621195 4.562956222416172 10.228167911471488 -0.24848426502247525 -0.0978055355862638 0.5279009579577489
Ni 3.216480471921272 2.3120921229986777 11.29947651411327 0.1283499840320241 2.8075659763674614 -0.293733623778578
Ni 6.734933416470431 6.014257109065061 12.315408579027311 1.7977428411749234 -0.49716316255425996 0.5270311537582858
Ni 5.485665428097869 8.576911422671428 12.092528130769635 -0.3204067621943901 0.2310969227839633 0.30567048442548006
Ni 4.622962855546748 3.2162753529143 1.445427024176504 0.5511879535101475 -0.014863547375393756 1.3662232847624018
Ni 0.5970380288755476 7.7858606486921635 10.222409661530307 0.5645885431867697 -0.35745892985168115 -0.2161405585844471
Ni 9.436872859402104 7.628133455921818 1.3141788304880158 0.4439318140339451 0.3623085446344986 0.12372405522423853
Ni 4.547236647609127 5.897553717689142 12.105914943051935 -2.0056939219700425 -0.5199421081219884 1.6460066170084748
Ni 7.76868659365386 0.2970915726210722 1.7184702579483389 -0.15242039471766652 0.7264446293960392 -0.36479351583988145
Ni 7.395146234775151 4.656024310034167 10.234677642865485 0.1934174059553185 2.001057451639296 -0.31762380013261426
Ni 0.4134126967567247 5.248044382111877 9.845288111261688 0.015146625833451334 0.1752456201422982 0.047675965919724346
Ni 7.2675995068033865 6.696716016035031 1.2693127771493518 2.5884563078523617 0.872205095595027 0.17021268570408105
Ni 8.350488009747869 3.911470285498995 12.948242671696866 0.38371863487915847 1.2190335423160554 1.0460450936390502
Ni 2.4301660822848192 8.730974444089952 0.7814819723040138 -1.1294853616425775 0.2486074208639009 -2.0888400557719184
Ni 4.978862979825855 7.065725109577902 3.123218453605778 0.8400267110902694 1.3262886533509932 1.037075543150588
Ni 3.9431798192586416 0.3229524176046455 10.335562629367363 1.0159665290861146 -0.2939691368281518 -0.7273956804553989
Ni 3.6692154146736775 7.0030892237215925 6.587492009540615 -0.09834083926444354 1.0485488338975104 0.40000991584001433
Ni 2.910461560701299 8.211650412801411 4.549773596781723 -0.6225316953604569 0.041769884847934514 -0.567850758877809
Ni 3.506733190378069 4.072824355256257 13.242219232489328 0.39057808100315317 0.4111106537388661 -0.4935206807056661
Ni 1.3441914706445295 0.7375846400937318 2.275759952709177 -0.2450258741602296 -0.2284286319231808 1.215223938761978
Ni 5.411580172216024 0.9378134234678264 13.832559193428114 -0.02931340425213661 0.5347951139744209 0.7977996841002583
P 3.634811363049715 4.912534951844046 2.7065508911520544 0.9280499704787888 -1.7199379170803024 -1.3614636585902293
Ni 4.989417285093694 8.817208339339283 5.469351008170603 -0.920464187711731 0.31610659215713943 0.23039321184871933
P 3.562087351486867 1.2040951888825615 4.565957486431825 1.1068884501786678 -0.8911633818650847 -0.28865980880009645
Ni 4.216333071406943 -0.14160763589970365 7.823876659557081 -0.6972623514051283 0.5557048675438946 -0.14982846562077423
P 8.913595625433734 6.272371408565814 11.513159239626491 -0.8107971248011907 0.7019258183190685 0.8781484576626554
P 3.0188856030685245 6.838611750903619 13.534516614501989 1.1135594344409403 0.4463545645428248 -2.222726396241139
P 6.44172511959499 6.111763226106633 8.628404684653537 -0.39976180438495024 -0.5706280645126302 -0.2036920484084492
Ni 7.704530962427712 7.834306028702491 3.3113293654634326 0.41992953758207674 -0.2003709544550162 0.9957358038615367
Ni 6.013511221766981 0.14384995958955815 9.319438498474064 0.7150163329544396 0.3414111323601991 0.44713103769753315
Ni 5.522129993382779 7.021540610757859 10.46706908653281 -0.48530189234029975 0.04585433932995329 -2.0679346730778194
Ni 6.1693736962921255 8.030651536330955 7.344081857989438 0.03049714014759264 -1.8559875837494293 1.7427739411382115
Ni 7.009811532995543 3.2367219884729317 1.23589143204061 0.9641971098233073 0.06420275993015394 0.8475854972741339
Ni 2.286303069667545 2.8987511301214353 2.778833896849912 1.5946051226080473 0.25737642530578253 0.7567597354398128
Ni 2.929509657576029 1.8008702924855355 7.305504566932715 -0.6652181784853898 -0.3934235208717482 -0.06849058867223043
Ni 2.7833157471522534 2.008506669088692 0.6430676663992172 0.20019766210194553 -0.6996583624411306 1.6726548157236227
Ni 2.978924691073862 6.853510849682776 1.9145640286136996 -0.41660792940801156 -1.4186017983641181 2.570300462878941
Ni 1.4710389292743429 3.0830225871122203 13.009022230540076 -1.9918230775252215 0.735089963775863 -1.9927337622649486
Ni 2.944184990165763 3.9273670085393353 6.373304877742067 0.6023835025473562 0.34710484031086675 -0.48368492556216697
Ni 7.2529707921697835 2.662426063315858 3.5430252692252977 0.3929162422180265 -0.14615718741677408 -1.2751147015803395
Ni 6.958727576668256 1.5039978242582746 7.370855482554036 -1.4079340342376268 -0.3580734235072284 0.268270446510467
Ni 8.026176212542472 6.303437614530867 5.96785452789235 1.5402473737927733 0.7302069246519488 0.01786556742651117
Ni 3.2839646252151047 5.560664395919863 4.642648686061338 0.8073058238184807 0.6228772516253337 1.3423534201233398
Ni 8.979932977006769 0.8452189742841144 4.06907906866077 -0.5018937352607098 -0.7487949720667813 -0.2334361124401012
Ni 3.30806610853433 0.6601055970056209 12.687712629709452 1.5063738609737798 -2.2583665140422524 0.5182035281643269
Ni 7.798978941547155 1.547641554787209 13.13964201417993 -1.349487974285592 0.9305786504379134 0.028261051728222294
Ni 5.703762874056604 5.144552519503209 3.6526846874299688 0.21346686840702594 -1.7969779379844408 0.33650855285225917
Ni 1.813624965282712 0.37622835022916706 11.081862962539164 -1.5258232279476431 0.24665235402005906 0.04348995286283478
Ni 8.452842394226963 0.8974609206416718 9.105169319072727 0.7135145515979324 -0.776638733751927 -0.04285026239630685
Ni 1.5568159685535994 6.03968254233838 6.394278296204967 0.6979709474363787 0.6469440627665504 1.3233722510351467
Ni 8.869914600539897 3.1616670791035824 10.903864417725234 2.110783135701913 -2.034673597031844 -0.7926813890370864
Ni 5.971527090476275 3.5111525726191957 12.899731094188832 -1.0385354155255664 -0.1254991448467903 -1.5865066618706292
Ni 8.864339092986745 0.5494308397164377 11.407688910959664 -0.529888677811739 -0.3084128230573076 -0.6184660099315155
P 8.012871447862961 2.0830860753055154 5.624438692264867 0.7715394648521487 -0.44859502383756933 -0.49451646896003226
Ni 3.4922629767953075 7.409420652942165 9.144223978000221 -0.036656731991085253 -0.5222843831019198 -0.19015981824996928
P 0.2677492986737084 4.953465517326213 5.391295767144726 -1.5518710740746307 -1.9427026658494866 -1.9666794883800582
Ni 7.111121675257325 4.049105139177297 5.296647330813924 0.7348873608467538 0.22923647253645682 1.587582154322995
P 1.885463235679089 7.6828722600097 7.8132048770397935 -0.5148513238626423 0.27385925345215417 -0.45222182195687927
P 9.000025316098812 4.796046003066326 1.458854860260198 -2.6516830770224913 0.4309963369191997 0.5279523800209747
P 5.699585905187353 1.189914006627806 2.306927785818593 -0.014147752255291763 1.057538181880314 -0.7128879737575271
Ni 6.79950860930175 2.4184183573400513 9.89092056379913 -0.8927520665084432 -0.5234064125215051 0.7986085531547988
