# total energy = -340891.62778744486 ev
CRYSTAL
PRIMVEC
9.04900900883117 0.00000000000000 0.00000000000000

0.00000000000000 9.04900900883117 0.00000000000000

0.00000000000000 0.00000000000000 13.24413937227569

PRIMCOORD
 96 1
Ni 6.376918161074886 1.9936233931155303 11.416713110577382 -0.013581595339176609 0.3953803874878029 -0.2432579836265294
Ni 4.618505661762073 0.17585029894039148 5.890423523487825 0.16685533919607393 0.1800630961355996 0.2669352726388113
Ni 2.582460513937692 1.3094006672622274 4.817847188352672 0.128223742866805 1.6567312025148306 1.1047750033800907
Ni 3.534714889636588 4.320087439324261 5.214350335239212 -0.09302122682374303 0.40777593293867836 -1.7438540615762674
Ni 4.955490761027768 4.554112912933537 2.5015533234829506 0.26785958422529355 -0.6649772661191774 0.006317457577595572
Ni 6.957765006852696 5.943723996949016 2.5380543115309644 0.5077226832376611 0.8299107057021899 -0.8380742153495889
Ni 4.9693628919937805 4.655090805594812 11.282431244786745 -0.17868061396577614 -0.5898115794196165 -0.12025717972156062
Ni 6.00763714829471 8.10673579159931 12.25558340212485 -0.47686944530223035 -0.614338103806071 0.13847858782559377
Ni 2.1108804531661445 6.408761624133853 0.5461601840564028 -0.9893491836089027 1.2430409609742465 -0.4161531012587801
Ni 2.4805324753198406 1.1102953198094054 0.39190172575397786 0.14197143147020067 2.1203656371840256 1.3509699581477572
Ni 0.45880285990787517 -0.03293024905310932 4.918581662668881 0.13214647495997886 -0.24069382244377904 -0.3684442252185912
Ni 8.673185663882713 2.3416935285412808 1.481197915022138 -0.21900348195453898 1.1302844605051048 -0.12173633537024842
Ni 6.9406804776525455 0.535256128078552 4.831965452366483 -0.2769435488044327 0.7042310694134775 -0.5747235747382424
Ni 0.5080900978286718 7.828876917859985 2.659674803774541 -0.45513873849335806 -1.666995303445 0.5279307827544198
Ni 7.369938322815456 3.8811833504498248 3.706836091922646 0.7061362568559902 -0.6005289658371206 0.01888166739585135
Ni 7.79318762592916 3.860090110213833 12.611016716263611 -0.10324676120649315 0.23043049284455797 -0.4419728905353614
Ni 8.057074829602259 8.93919033568761 6.974522866823968 0.41836759241159566 -0.8703127636683206 -0.09159992099618418
Ni 6.72221025070379 1.002575915360994 0.6182816915660031 0.010954956349606939 -0.7036446007823882 -1.944284922734942
Ni 1.839066317512467 6.362774559835565 9.274672394540094 1.3803512395233517 0.8184728961788936 0.1283929214548176
Ni 0.27440939146649707 4.875922823921343 1.4153745178532713 -0.2069758613660435 -1.1519650308023321 -1.0694452177305453
Ni 6.58010461163643 1.8361344385607463 6.779171953250988 0.15419291323705703 1.1151414342160795 0.8167250602498515
Ni 3.427972778172084 4.515627477187645 0.3151426010753746 0.10829023716767155 -0.314378039501807 0.1725665306482383
Ni 5.821182315578016 5.6479661831896175 4.896530132368114 2.0487521866120972 -0.15751400719049002 -0.5407536455507009
Ni 5.134959758711348 2.9382675521527064 9.216596758971423 0.8241848589620063 0.08882467224389218 0.371174993886193
P 0.259689368346854 5.5408168663151525 12.246127187604639 0.9729252337249246 0.9865446242805718 1.8675606332990093
P 4.170959769187348 6.355743479756901 12.545139929940996 -0.7829132539067291 -0.11163909903524644 0.26115260451876315
P 2.28510102556578 8.306736990954045 1.7118978777833964 1.5299565333897263 0.4693422836872498 -1.4138653121203972
P 6.369624659732024 7.727301790597433 5.84783074250679 -0.6003633867935337 -0.06080273310966947 -0.9502226499210862
P 4.818081557688627 0.9057153218448823 12.519102311127163 -1.0235181161811275 0.9220965811088313 -0.4692924042859208
P 3.9430966707821526 6.239165095389556 8.158230987743005 0.03214958814935108 -0.14807240216161593 0.8879723857316126
P 4.698290775087144 0.9438568952445844 3.6120612950064466 -0.21804806001980515 0.5762053014900915 1.1541376129736187
P 0.12289730742903288 5.673185771579885 3.3199882377567422 0.22272463955986802 0.7857856903585176 0.7250662609912739
Ni 1.449225956033804 1.1072458037392512 2.655820830794486 0.06363686012435493 -0.27520394040550666 0.06516743783626841
Ni 1.7687102716802765 6.389405793647029 4.84691803502026 0.11011057820586198 0.8506541088971284 -0.7128581489608562
Ni 6.092353971584866 5.737433736262656 9.151806758642946 -0.33281490605075587 -0.21430710492013416 -0.06399064391934786
Ni 8.726439082496531 2.2445343177245314 10.137382300588513 0.17990471618086437 0.3226526208057734 0.26472129570662795
Ni 2.128218354621383 5.108364720936324 6.915573096975247 -0.10897517904983814 0.6164947451377576 0.396496246259801
Ni 0.4912317938562767 -0.018294381718191616 9.14498561557564 -0.2277416331584852 0.4125964942557733 0.29680249251188884
Ni 1.7514809583343613 1.1046668361428302 11.461875810145727 -1.8288948412976955 -0.04584611179983717 -1.0832013909743732
Ni 4.256816767625396 6.771871212700839 1.7367301685837435 0.12486819613101074 0.5831958738753117 -0.5646435647944211
Ni 5.875575909339727 7.963290899183632 7.877204055914183 -2.148507132615248 0.1548529154185591 0.3298092864552126
Ni 5.247276059787766 2.7475777831724164 4.987173151724574 0.5350599376000332 -0.37932616223841764 -1.181440928774262
Ni 0.9965402262844577 7.451225571652827 7.239590966185955 -0.6917851303406408 -0.20928085535013632 -0.45019450711420533
Ni 5.209107339360734 4.78045577780821 6.982098697251068 0.1493463837780331 -0.9981007045492875 1.2479476542472443
Ni 8.573556073578866 6.855185439578907 9.548494505315334 -0.36187197131771226 1.271986697474319 -0.7417910299451225
Ni 4.807982863521589 0.30172201566396345 10.193338658223563 -0.6629453232908131 0.19887380108419944 0.31809893999681993
Ni 7.913792819350567 7.183130578743463 4.499391745042035 0.651162471723272 -0.04431861941171722 -0.23531121797562699
Ni 7.473839045419342 6.280926272433357 7.04478299315959 0.5659969934985221 -1.1995044711441922 -0.11773107086559723
Ni 2.534383128534936 5.232417586828737 2.7027580410493504 -1.3358657555164672 -0.6881866143561051 -0.5193818647431442
Ni 2.3579545979123995 5.329585846654596 11.364650541562472 -0.22647227952775834 -0.21161130325552588 0.36067589412708206
Ni 1.0993460187860034 3.3306054401457983 3.5548860358442456 -0.08539790595053035 0.9973265453874243 0.543417308425793
Ni 3.489750363367758 2.7213628037800235 3.0271595882463322 0.08262599963234801 -0.0035458083697293774 -0.3342159001633406
Ni 1.2012197633491934 3.241943248883573 8.110287527675082 -1.169827770015366 -0.0763494225950169 -0.1919945574658629
Ni 3.739168201473568 2.6151093388074726 6.872980315994213 -0.4889348611071966 0.34101775357652236 0.6775054804931752
Ni 3.9894547444539614 6.725793658311448 6.016573949691992 -0.16220627045983677 1.3854191409645622 0.612322616037939
Ni 0.8382088089815094 7.719691573935713 11.994939363316867 0.21704275868374234 -1.0080004801615028 -1.0588658995528022
P 0.2577565000009047 5.501978519213962 7.964932389436231 -0.21791102022130857 -0.8794108693148468 0.10805472411809779
P 8.53202112176282 1.8016305668233645 7.890394796494194 -0.00260838415712454 -0.9248977980030523 1.6516638152942522
P 1.7533993482657342 3.281912722123545 10.29122631427369 0.06801879124213446 -0.13971066046048197 0.5813426227166568
P 4.0346183489232175 6.033381579213369 3.925748815416893 -0.738049046404187 1.1400451394362947 -1.2001079090561462
P 6.831178418409415 3.953837844596019 10.362069196796012 0.024274299166332388 0.07008492974254381 1.0939853689637544
P 6.64721206319804 7.734251429594105 9.912841093427692 -0.6493907245348299 0.14774381517760363 1.5449270386566296
P 2.3957613579750223 8.384938527684822 5.8687167604341575 -0.28415832138531705 -0.11984323211259361 0.8722945699850397
P 6.826120022316785 3.927740502322059 1.3447433821441293 -0.07815742233803313 0.13266532357792635 0.7976024804877876
Ni 4.696535267319755 2.6398402807057852 0.6137743801281877 0.14001610751604274 -0.16165939681743127 -0.6976171636413857
Ni 1.5069676831663068 0.8355393512939857 7.223989569578973 0.07801883987763983 1.5664016635906377 -1.1684362889844782
Ni 6.908674132429592 0.671464527908762 9.085175284960535 0.48903204880669326 1.6083566678661851 -0.16420067518204623
Ni 2.8958186504165258 1.739255747026414 9.204266579157798 0.21179462291092557 -0.6165405107740285 0.02131161699358265
Ni 6.012116407804283 2.2373765515183237 2.467091982088387 0.868058420416505 -0.02574625572616856 1.6584242739465371
Ni 4.333280894607006 6.923604997461505 10.447202274505239 -0.7140367426499895 0.5074709722381713 -0.7810106375673775
Ni 8.265093451028676 6.939612694577536 0.513611803187746 -0.15592455121618307 0.15388566640928336 -0.2138342790487737
Ni 7.508460554275157 3.8024117261451025 8.370534314983127 0.7128828315512046 0.15521801206746172 -1.6984699770145133
Ni 3.1829527584938555 8.41892660590292 12.429307183924333 1.2331414424723472 -1.798424183512664 -1.0348204285678242
Ni -0.008220119875750736 4.752313359475333 10.300510597620807 0.2762328958906533 -1.775346218647278 -0.5922333014872316
Ni 8.91703836138572 2.2257938198572043 5.791145939638365 -0.1016393075100572 1.0730411626119196 0.1748195883484731
Ni 3.373398204228169 2.808948162958129 11.65517350355159 1.6270025651021462 -0.14722496655965614 0.028452856024054226
Ni 1.1758553908131637 3.284220219446659 12.587243159529164 -0.6902121294265662 0.21970205068346033 0.3768077666919381
Ni 3.14177976704222 8.473238758582637 8.235285110118603 1.3073699620696193 -0.871375657715196 -0.37945600294806264
Ni 5.534962157420821 7.985352383394421 3.4544031239813013 0.9173215283176912 -0.7411531392508074 0.5481260267553721
Ni 3.170673253131247 8.361564937153048 3.9046899614155204 0.05764978930298459 -1.8130154510632772 -2.200093489332972
Ni 3.2836953769182644 4.338846035209809 9.05227670743931 0.33553359053349957 0.272801244501285 0.19211359954223042
Ni 7.296424172803788 6.098787817062254 11.443969630918366 -0.3404829641189749 0.08948210332223298 -0.26688102236210814
Ni 0.2675972974083012 0.09766957493056802 0.5535704176167862 -0.3651496136277196 0.45095786764279117 -0.23246166434197385
Ni 4.519934805524124 0.25457034389318584 1.4254533042002673 -0.21801874944376645 -0.8325849101002435 0.6211337865716658
Ni 6.000787048398251 5.508140894418042 0.13760013743136643 -0.22743875720608572 0.7281323015111073 0.7728646114214753
Ni 8.097750125552832 9.028558349660434 11.111329865827411 -0.024945099981111878 0.09763121479192863 0.8550473528688177
Ni 9.064935366283638 4.85877495165742 5.2742402971344875 -0.6338777165008954 -0.5296436516804686 1.8510171271180316
Ni 7.648077715837198 9.24374378630217 2.602526691639671 0.3252370937034979 -0.5413257160040871 0.07844692855399393
P 8.59620574338182 1.831229875622991 3.7321190233766837 -0.8534841221467561 -1.3001186798238449 -1.0667653569055369
P 2.001179315722589 3.105484191501009 1.453252765087865 -0.1957439972059661 0.027012524033101865 -0.08204210210441999
P 4.881379376414824 1.2132549454658252 7.958787207349461 -0.38568887123165185 -2.0704630959266277 1.3575918343396491
P 8.324961695302088 1.741608489395079 12.522373527920516 1.2143047693818183 -0.9631177607161994 -0.44465943622858906
P 6.397613244910025 7.882266071610457 1.2825305396102522 -0.13444941206154265 -0.630369703347637 0.3594415074993487
P 1.857553443124707 3.1205055466240235 5.873616798867357 -0.318267090143568 0.33310904025240695 -0.09928212013179032
P 7.004874148280656 3.906900634341154 5.937175229055929 -0.23194641526845214 0.2508926173536518 -0.03721980358340687
P 2.268233672584275 8.496929064433271 10.24191826363194 0.7120647065252833 -0.6891050124053164 0.5056778848934903
