# total energy = -381172.51570980647 ev
CRYSTAL
PRIMVEC
9.21836814574839 0.00000000000000 0.00000000000000
0.00000000000000 9.21836814574839 0.00000000000000
0.00000000000000 0.00000000000000 13.49201358823078
PRIMCOORD
 96 1
Ni 6.858687064352938 8.015933333287373 10.318840226200601 1.4869265508824456 0.7205100090791592 1.0074659478142713
Ni 6.156053833795799 6.881060043591758 8.347738350767473 -1.3101863484724918 1.709399993663456 0.9354174665874536
Ni 8.420527506666796 8.095192861715633 2.6675191604193005 0.471532092249717 -0.4897928382321177 -0.7929567541856603
Ni 4.40637070588266 1.9150698689612178 9.642768801320733 0.9751325257888883 -3.0107175788914082 1.8410080796214616
Ni 6.907830184386788 1.511443624226245 9.737496751324082 0.09423427329523772 -0.8214654031483143 -0.08743113433047524
Ni 5.518612902034268 3.7725433743937358 8.887405583724458 0.32561504586820694 -0.23144839258611108 -1.332642877703795
Ni 7.681822801959878 8.768142947176354 8.196573707935155 1.437372394103402 -1.9018920595910278 0.6568353537383333
Ni 8.594450456522104 1.1309739200136943 1.5501782849034604 -0.8594454819365135 0.2761251666681954 1.832709072837463
Ni 7.817019387669212 3.6003442593623487 1.3840245756342566 0.9774244071468586 -0.04689152234521602 0.27771102309807655
Ni 0.164423421587652 2.257864102984621 13.194703722745404 0.7322964601911259 1.2543445589125237 -0.6261255833593024
Ni 6.034546524629379 3.1428827452599615 11.14953041641826 1.0847756774400288 0.6620341243304533 0.6323491956715109
Ni 4.134917422139123 0.9556774333200723 3.409688127836537 0.3161670130814297 -1.1147832795457122 -0.6735554947064916
Ni 3.658724184174649 6.899607400092998 12.072100080914177 -0.29866345698002755 -0.0014048507673266126 -1.1782959553873773
Ni 1.2165849040231427 7.532660388666363 8.538151117376966 0.27792159644698583 0.02392591468797815 -1.0138165726226476
Ni 4.85643908881507 1.3382581438143246 0.7155205090803666 0.008792401480649373 -2.3300488701789033 -1.1286194140978563
Ni 1.8549661093249947 3.9825285800307793 11.830849858224648 -0.2484187018918625 -0.0887753070631955 0.32722558488843645
Ni 1.4973856129616376 5.805294929783791 4.56935329654529 1.4049566967768579 -1.0696280231653126 0.833071619928675
Ni 7.538145317651571 8.599603524257786 13.06481599519167 0.17319490826085657 0.7448778964005623 -0.512783128479704
Ni 0.7933235353579312 1.0254051691925248 9.004394048876511 0.48201216584543444 -0.5636932850660099 -1.2534798969193832
Ni 3.8265630111219977 2.257264909061867 7.585776625326473 0.264893302508118 0.8906327061725952 -1.6786143757411671
Ni 1.7630036697343567 7.3612171798144495 2.6042147833987683 0.0026536355727631716 0.8072559444171518 2.413982532879081
Ni 7.87843215556745 4.447761178392881 12.787177186491705 -1.1592960172461066 -0.4540491049736051 -1.1438557714316364
Ni 2.341944837899036 4.079137077114769 6.317850942328181 1.1475039097071849 0.2728436677034462 0.021920454222175152
Ni 4.432108389456944 7.139626048812068 2.7198011347715765 -0.4851918491249967 -1.1809871290662952 -1.0088635994927462
P 4.900724128890594 8.312617290362864 0.4150478027394636 0.975439515506346 -0.02779336806318439 -0.2723019362673633
Ni 2.1862281649273987 1.7358094840093785 10.830875400950594 0.9339298262983337 -1.0915993852300814 0.0391023653181004
P 6.0159069844477155 2.147096192587557 7.066752083926756 -0.12328311103207801 -0.15814649856816634 1.5679906053443124
Ni 6.825362663879787 5.623932756918293 3.064414152809738 -1.3423706465145204 0.2359586217516388 0.05007531938983634
P 2.311727027456162 1.854643466443512 0.2573049324721139 -0.08809936404209344 0.845560496424305 -0.42710240118143217
P 8.017952155888652 7.23705498065183 6.330628522271703 0.41454101957665385 -1.1874028027846517 0.7336473177920655
P 3.2321257662781018 8.27203803424037 4.223593513522658 -1.5030926191193468 0.29368734392167484 -1.7601921366146587
Ni 5.2999624304374 1.7313846673490432 5.143370934338542 0.3716390780068051 0.2521712269557593 0.16468095725257445
Ni 6.111934724345037 6.178205572201602 5.3311131397261615 1.3116966144694313 1.0925033851015895 0.3126872820629454
Ni 1.994827189263764 6.2178261180476895 10.465592958087843 -0.4222787545405437 -0.05145445912555009 -0.15063579201341798
Ni 0.8802121851780514 9.33525694914268 0.23821645776678768 0.3924806973425047 -1.6673143773473158 -0.6489479805704567
Ni 8.032305154930615 1.6508161306587685 7.688288565304795 -1.1452734777147695 1.6155693835645404 0.034980886950559106
Ni 6.8048333582494385 8.913157094850806 5.978068349144218 0.4675042020372465 1.3487271848601674 -0.24519222453476483
Ni 3.88124637034931 6.454397097118915 5.071418806257467 -0.8672873465784354 -2.9036499012769283 -0.5088814794324527
Ni 3.235407505301184 9.389553136912212 12.665789716109837 -0.29967518607399357 -0.6673123420102572 -0.6537549150407967
Ni 0.18230613375303678 3.366972054001824 7.08654484195052 -0.6173442376222464 -0.6189658323860695 -0.03652174907511775
Ni 8.238142094948593 6.361724843189014 9.32045870292427 1.3977018149866574 -0.14863187420951177 0.133910251728621
Ni 7.771130351554316 3.4548415381816517 3.607103166811011 0.46052494250593595 -0.7084674760923282 0.35605742151846426
Ni 4.253253612698969 5.7740262253840875 9.412163950046525 -0.24560025860646087 -0.4618827420854109 1.25087408386542
Ni 5.7553590300982975 6.538763601442644 12.65255398327461 1.8132144544479611 0.3138453069267885 0.17886007696643388
Ni 0.7728707421823351 0.896172867606603 3.718627905224353 -0.5426408352710848 -0.27388265049092186 -0.7065805434822605
Ni 1.4746346806330795 7.137948305828357 12.691073855976438 -2.2826724377774688 -0.5151912237005644 -0.14209587286320688
Ni 0.5559671513294963 5.52836593542309 6.808366758720077 0.006981316413839591 2.862817697751915 1.9273588364035643
Ni 6.9442796116263015 3.674902420089001 5.809323356618306 -2.255221026434735 -1.3436677680593891 0.973872171019226
Ni 0.7589399443967123 4.517977487771579 0.32843109477659327 -0.019187628672044373 1.1569838241731623 1.0113395718370646
Ni 3.180419939928474 5.0538780955464535 0.2123847468384711 0.7051296699683469 -0.6812976005457557 -0.2872019933076473
Ni 6.235276488751888 5.498959341367944 10.501333492824898 0.6445025432045933 0.30863393792917815 0.98740080163328
Ni 2.5795390558229645 0.9390198422675178 5.164419234089675 -0.12519215512933277 -2.1717733022320402 2.153037159275118
Ni 2.8915992507931207 2.855205133761862 4.321086973938715 -0.0785546577764518 2.0396486816489325 -1.4727484596098508
Ni 3.0345484840260823 7.366766637375954 0.7887364754200502 0.569634076030477 0.19539304162445056 -0.1831219375665814
Ni 1.11053679806377 2.8814037357382647 2.1045654079504956 -0.08152531036900153 0.05708568926939846 0.335642348197222
Ni 2.956699365908306 9.238648452058689 7.893569637729819 -0.9643282360845329 0.2692847467075943 0.5130476949950004
P 4.476771382622205 4.769777210848792 11.918615174845597 0.23915244609858813 -0.31631433729257136 -0.6861515862039473
Ni 7.066146437146373 1.8542839500898596 13.339796226548215 -0.3892814736789167 -0.21042859580133438 -0.6196016661978555
P 2.4040489834004526 5.603818277849852 8.150323311792999 -0.35930241081832315 -0.13696883604928667 -0.15716433716055514
Ni 7.090980720652506 5.244384889509979 7.480457692279251 2.200561944328958 -1.464295443746491 -0.9716461099021847
P 0.7996593197134491 3.6304514493887146 4.4386294630101135 -0.40169887350666306 0.047893481247169134 -0.4438048015377776
P 0.5036750367723738 6.549420034899618 1.2038690871455036 -1.1938878962883632 0.11852631307338297 -1.9722019608601842
P 7.983798102291688 0.9575671987687571 11.556570222839321 -0.8588289313984371 -1.2910408858922926 0.4413938781034399
Ni 9.253582208287321 2.368973092999252 10.718271191639491 -0.9134728439955624 1.2840228027032468 0.07632859665941048
Ni 8.33251052859829 1.9057040070301743 5.314679555017037 0.3942156777557404 -0.20519177288242726 -0.5569521096874342
Ni 3.9642854296749377 7.0575180446587185 7.6910411700022445 -0.7893021881522083 0.9831592527481067 -1.3800002839418364
Ni 5.703699295588881 2.495154114763151 2.610582832042434 2.1370053026232356 -0.28020062228914966 1.6542534303982994
Ni 0.17470743297571492 7.682495742826972 4.643762119709655 -0.13286689806577115 0.29032536942797743 1.2903677710846682
Ni 0.2914682044371204 0.28894052791990377 6.476166273250961 1.1907398375776848 -1.1267656487185693 0.22581484844941757
Ni 5.311319459865595 -0.07144050865472404 8.179627581962874 0.4760011837646641 1.2626996157454382 -0.7547195650813324
Ni 4.5012184946705585 8.416194873686884 5.853698736700644 1.14649012373069 2.137618253616886 1.4177595049684808
Ni 3.6392273357650464 2.8429539226335576 1.7452997939089938 -2.4577959305196058 0.7727607388537595 0.49780439568268453
Ni 9.151138484232513 5.495908061545921 2.9782675816170285 0.12876907384731373 -0.5197343629865564 -1.9120515166225327
Ni 1.0818676734520134 4.194892124622753 9.362958145109987 -0.2709868170003656 -0.38389269856317754 -1.277275456677084
Ni 4.825483808928807 4.9331451292955935 6.782488955951549 -0.8619625919314123 -0.9101556066968712 0.640627119409587
Ni 7.285460631242291 6.7856314976171905 1.0058769783315777 0.7552070462407123 -0.8544107477260833 -0.19679994927430622
Ni 2.021283905545353 7.5192107896925515 6.222961670884091 0.1874056525435998 0.746440870012308 -0.21724998959854197
Ni 5.982711641127158 8.256956784123062 3.815500969471159 1.0687314794929723 0.6175062171214075 1.2891117871903797
Ni 0.3249456298197749 8.147073837058064 10.53962382816247 -0.30681822487667804 1.2624641026958645 1.0050992473543077
Ni 8.310054584047087 5.173689224993078 5.1322139434968665 0.8999709528543856 1.6793677089674237 -0.4630430809420993
Ni 7.810022646325056 3.940824683007118 9.415644805819325 0.6417185527015529 -0.48097703971270067 0.05644239925844473
Ni 4.6564281573998665 8.140888312101637 10.183839069893766 -2.523390428590964 -0.723065171400845 -0.8483845961366614
Ni 4.103178580969258 2.4870603876219537 12.040704163035487 -1.1990079911237481 0.10987712203881722 1.7146059633444277
Ni 5.625186454972054 3.507137340085991 0.5791421285880032 -0.3912468249354036 2.570628278532005 -1.9571116421859651
Ni 6.533121960200716 -0.006780109695159815 1.7751580879982156 -0.9029403198953546 0.07423340469327859 -0.9639340859699076
Ni 3.289187464460344 3.7557751629246727 10.028815618198914 0.3526540522638701 0.9228733113738558 -0.057936210195151834
Ni 4.987782396682694 4.11456326550158 4.419295779714861 -0.2676670085985132 0.47301381900156597 -0.40984952763825544
Ni 8.26532706230553 6.613865645883796 11.891765756085404 -0.38218471473313537 0.2675795910910295 0.16638585575882311
P 2.4901761960202733 8.756398746290381 10.37492662104396 -0.24332560363967126 0.06634037509844705 -0.30949242927473153
Ni 2.7454235887453313 4.90663310280575 2.5686908803107085 -0.0999889163908278 0.7176118615957576 0.573914705683702
P 1.796558529408567 1.9590783579954707 6.928702413308312 -0.4887451136938938 -1.0319950433038874 0.9033115871918443
Ni 5.572319114249089 0.3815851267456769 11.62025255294959 0.4577034138967408 1.2815550578890447 1.1181362551783451
P 4.9568086800603455 4.756060279201751 2.283212771427517 -0.4515371371850288 0.030860179913966206 0.062332796600950716
P 9.215832991153835 4.874295067713131 11.076673044595426 -0.3574992961713134 -0.021130868441344253 -0.08568741216649113
P 7.658924375742644 0.6681233479537402 3.7058245138503114 -0.36981693719640185 -0.1352950478912896 -0.47887233466487206
Ni 2.696142193190845 0.3253862678121999 1.7993627569670547 -0.4262680782055949 0.1086962143568386 0.00829926389431474
