# total energy = -381167.23020026484 ev
CRYSTAL
PRIMVEC
9.23034482952059 0.00000000000000 0.00000000000000

0.00000000000000 9.23034482952059 0.00000000000000

0.00000000000000 0.00000000000000 13.50954267555374

PRIMCOORD
 96 1
Ni 0.25572947483840724 6.069053312199326 11.122960675459346 0.49413466014058127 -2.3341024714229865 0.12487899476428814
Ni 2.5019126789233397 4.291538101822374 3.618112443938663 0.7551792783265703 -0.03622247266714407 -0.443219875568585
Ni 1.9975758633791754 0.9641095258622588 10.201420577288081 -0.35221567917487084 0.45227838622642746 0.467879068878162
Ni 6.362052150681334 6.9769131161793005 4.250615367663347 -0.08870203062309885 0.6315565245668865 -1.5263266499466228
Ni 5.157695207498416 4.311835630279732 1.2263639315176316 -0.8009775676076076 1.4484808453117377 0.873041218343077
Ni 6.997376790845042 0.37530767011454874 12.213693918867643 -1.1795357413317493 1.5545761317106195 -3.636869644613272
Ni 1.282030295601596 8.733161611883332 0.8179691670382588 -0.06258862136549866 0.8570001057198143 0.8982621976933949
Ni 3.5551042635131873 0.5649026467064218 0.7871130470382115 -0.663942911317392 1.5197333129998214 0.7148003602888915
Ni 2.862893007668397 6.575836169144673 11.45938828674348 0.25392291953954327 0.9770204868402205 0.9929194174586641
Ni 2.2400477938231744 2.0450567575968437 5.588790159215251 -0.24677242453769113 0.041768856406669996 0.9663763768628131
Ni 4.623461304790365 5.179229602173731 7.529287415739214 -0.2063503119669027 0.625507233049013 -1.0801752025535398
Ni 3.7901273056147176 2.680002953619237 10.594143139144558 -1.4039028015910466 -0.670367069676181 -0.9995168681705238
Ni 0.8323445062012831 8.011653241293814 3.305649577144681 -1.105113360556116 3.3010259790385215 0.5045360579795634
Ni 4.267299216088393 6.897172166500756 2.614312434962879 0.18637284040371127 -1.1712462476294474 1.4506516277108112
Ni 8.187666688384933 8.333090772443908 7.015113821624332 0.5019009343495615 0.3455084423580243 0.2309827658036022
Ni 4.941234389011142 5.872576190442467 12.844170781884555 -1.2280038641354658 1.2446697548269208 0.7240506752425659
Ni 7.552360508911046 3.0553087776648034 8.632003492909831 0.7773190476484032 0.5524128270561841 -0.9540877893034472
Ni 0.5691947570896286 4.275145009261997 9.179086035732771 -0.6824803079999472 0.058566387579983004 -0.4679955398513682
Ni 5.395828875834657 3.718952116012766 9.340619840763381 -0.16480411309400003 1.731383954133715 -1.0167010932592941
Ni 4.442195791445387 2.9808568156197577 12.730866452043824 1.2981749258339126 1.448983753090085 1.2433973158724005
Ni 0.3425390226491241 4.746621796926125 5.547180687394912 -0.7352426873036434 0.6697224941136466 0.4531785294431937
Ni 2.2100676335550977 6.313205165416967 4.864164701149585 -1.1803240415609995 0.9719533567299582 -0.721345617606577
Ni 4.298830074301369 5.38844459990656 4.970782569137424 1.0136957307740673 0.062103197088647887 0.42980874436900174
Ni 4.489759758767247 0.83694675617347 11.925319483185607 -0.3656322096910929 -0.5160864818213241 0.42312876124566484
P 6.803973373943252 2.913613752949518 12.584301497353957 -0.6688200369040352 -1.979511350037404 -0.030563474609153818
Ni 2.8171751093285615 4.010631015172626 8.615440562003108 0.7466918096808495 -0.3953037686135966 0.9505836328049306
P 0.990951368860894 6.870201098673379 6.742032221389386 0.025339507206053134 0.34620341154251993 0.5331385522076044
Ni 6.299950390126032 4.1296009307191905 6.363008414414023 0.20097850613202808 -0.9173112439050459 -0.14027527471470036
P -0.16539855044447885 1.034924732012716 3.379317882906857 0.3764807223698226 0.03688041796611713 0.43299536962709945
P 0.5976842166547207 0.5261139682906155 12.276094742598033 0.5373646744738101 0.2527697797717066 1.167894300438079
P 0.6840128634956201 3.3308530339217697 7.187535741510923 -0.38138613009123995 -0.6396395586853371 -0.014052878548640313
Ni 8.994223456976318 2.3906131799970867 13.538453327127177 0.48415955120574033 1.6164085916363837 -3.645065035939871
Ni 8.674041252734 1.1532485234155718 10.537065455323836 0.10760246707202759 0.9412279026216435 -0.7751469796977488
Ni 7.435892016835124 4.257976567729169 0.6843423868089115 0.9240807014183955 0.0010132717558627709 -0.4438531382772098
Ni 2.602874191550256 8.66650929128734 12.231769703305135 -1.1001012520535054 1.5641684033847447 -0.8844659152402509
Ni 8.517725361681082 6.909208536263555 1.719751711929409 0.01899505304526406 -1.5469299280192712 -0.19136926517703817
Ni 2.8814460009377423 1.5981049963589091 3.502632521802616 -0.9202829249388602 -0.592724125080721 -2.6930261587456528
Ni 6.208136149305047 8.986525349321276 5.852334044054569 1.8488658851029838 0.8763497138910199 0.38131851007809814
Ni 0.335200898445577 8.235867549505592 10.700004118849765 1.8663928382431536 1.2694755010166912 0.5458189758887503
Ni 2.13013284663344 6.073225428098701 9.525119666964867 -0.4712132754577176 0.26005962856490056 -1.903988279998424
Ni 2.261277587116455 8.590497400952485 4.9192569377801405 0.9406889993990379 1.225938496966005 0.5365221239678566
Ni 1.0818241145010465 8.742151967825793 8.345628349935327 1.0198306400272115 -0.8639701092797444 -0.769560743859223
Ni 8.96413253256932 6.896904486498362 8.952274308463284 0.29379713002666175 -1.3585909650281245 -1.3964160062956985
Ni 7.7243310649315315 1.4886607967595906 1.464515137509202 -0.7387787254813598 0.3468081350060543 2.539372662951833
Ni 0.9256928303463304 6.807111691212694 13.425823735499376 -0.01798332395129806 -1.3515137464663691 -0.9622656971285493
Ni 5.312275793708231 9.109390470419912 2.7401672647779036 -0.460633185949026 0.08039659608119702 1.7023636556419648
Ni 2.3823058695779773 4.663742529978139 6.42012671175235 1.53423459193979 -0.6629743767565356 0.7829417931518193
Ni 1.1931513044620299 4.064702375656122 1.5008291604546047 -1.0869991674539086 -0.1968269458574997 -0.665622355902344
Ni 3.884895256806942 0.49644210154253676 6.947322476466431 0.2866072971464419 -0.7022428353388551 0.4430861782041982
Ni 3.111392353338706 8.347323964295317 9.601313395094452 0.5357420512687224 -1.4255291216115706 0.528306935146916
Ni 4.4175415401904505 8.312580946053616 4.884766830988978 -1.4936211892938016 -0.2961062377758126 -1.4511779325279266
Ni 7.835769019031436 5.858398380660518 7.018261369238684 -0.06925754874524201 -0.781673467962357 0.11316787697494703
Ni 5.803717817412955 0.4813034128554455 0.680459180705223 0.1260547602399442 0.8648640818489234 -0.6229014199950499
Ni 7.5879619492293875 5.118623157493869 4.501365994457234 -0.3832730627013077 -1.2440418914349352 0.7865030281405164
Ni 6.599179711422372 7.409520921426906 8.308071922565022 -0.8519196058731134 0.4906461873713486 -0.2627430889343346
Ni 6.293987587314094 1.9088168667234409 10.405022602281063 -0.1536486106978128 -0.7249446478117451 0.29543003764439446
P 0.0877224289223279 4.606523621880291 12.749563438693768 0.6169737416567052 -0.5509439558201414 0.7673701639658074
Ni 8.255814324856367 3.4961038988476867 10.938582689810675 -0.496391574495558 0.5103727192659985 0.49931800411373367
P 3.076298581990421 8.713528668259503 2.5955748347953316 -1.062940583842808 0.21952695855817678 0.7347474928347797
Ni 5.455087690157642 8.655709787742499 10.318413352954895 0.12081048112186935 -0.19286590432722267 -0.34424345960267166
P 7.6722534589486235 5.047032602370962 9.420014652507799 -0.8809933833106183 1.3671265133029615 0.16266212705033278
P 7.321121908222667 9.304372276301331 9.201309014138381 -0.0020152306578158845 0.07492914520872257 -0.5981352687939635
P 4.121145934781518 0.9240313682625084 9.110956859951159 0.2275716832395242 1.081811452605382 0.1840112821500702
Ni 7.044294634023193 1.5763675340955712 3.9640648481355507 -0.68073812849786 -0.6353031360935123 0.5335329594325456
Ni 3.54321557926895 7.559043278625976 0.44649024399242876 -0.6110548050691088 -1.651129797167653 0.2733936266696453
Ni 1.0998140567308747 1.6230361579611488 1.643814587388325 0.5098788103487154 0.1979389479747559 1.8445852554497586
Ni 8.752776094817342 6.969335003008091 5.10528346302976 0.7435355234400549 1.3279999796151452 -0.7597149614133948
Ni 0.7174857862776871 2.956017957466619 4.294508426814451 -0.94152897880183 -1.2768658799434913 -1.8245501911757545
Ni 2.2581485001919237 2.04931194660041 12.96932318245192 -0.6499368268462871 -0.7481825352937631 -0.6533612791468039
Ni 4.20817885693906 2.9006451183507966 6.939973275848992 0.3770962444666344 0.3563489846169541 0.601953356988473
Ni 6.392456906815277 4.770186867481668 11.707829481240854 0.012379604611275453 -0.22380835954235007 -2.462536016307752
Ni 5.114460271939404 6.261367548401721 9.458963015890548 -1.3011432644336172 -0.6346508472214941 2.219545427409997
Ni 4.3812016722793 1.6995095655415111 4.993005547543034 3.376016830723115 -0.24732392616578694 -0.24055009777706313
Ni 1.2667540747753439 6.213388215558906 2.409278783474336 1.9687857360897836 -2.1942277745808143 -0.2764928344202593
Ni 2.0763937785667084 1.7569961536417515 7.819998974752493 -0.217635912183051 -0.1259331470604154 1.3710988676871483
Ni 2.327542233226222 4.9089743335502645 12.95821815449055 0.48728601264986393 -1.6621765419001182 -0.3141687517044782
Ni 3.2351989696181738 2.907530955653748 1.4185157136496083 0.38384590448564215 0.5945223546317244 0.4596042304638795
Ni 7.824194166514143 6.264302798083141 12.879606075994515 -0.15492876296181704 0.876064321440117 0.48865075420787457
Ni 6.2994796425356165 1.4338602390281954 7.471534070671071 -0.5616880817105231 -0.05740656294392693 0.6234079273178231
Ni 6.374826948036943 7.300132103897049 1.14881518875524 -1.925259530672375 -0.911352712328766 0.2317651524955815
Ni 7.637630435190754 8.651731509086234 2.7956914815502527 0.3202450398055452 0.5534520669539759 1.052841033514961
Ni 8.899104752677509 1.2562222512328944 7.86031158311296 -0.5795724181901115 0.4329064094577189 0.24905993502028717
Ni 3.3660391087191557 7.246254580656666 7.553414614299782 -0.5384216549834147 -0.22459151756527773 -1.0406146666520981
Ni 5.471388479268917 2.2575392974278556 2.2418818633568156 -0.6455633803689398 -0.5468551304627486 -0.24616950084636957
Ni 7.929050884693131 8.807595113238559 0.2932120594494313 3.8146244043306687 -2.3336347877579486 1.7543631886377076
Ni 8.084083757803544 2.4979805519916276 5.906412788813992 0.23843228010311196 0.4141203870994675 0.3600783697523992
Ni 0.41973978140840373 0.2043090694130988 5.680614553415638 -0.9580619434598469 1.3713325809645092 -0.6441032508836455
Ni 5.723709187732016 3.6460047001880707 4.034489610696309 -0.2225857999891586 0.5155061838378219 0.23920849614750414
P 5.310577410244769 8.15325596256 12.831742122463075 0.1851312546871263 -0.6813045425242912 -1.507695922219313
Ni 1.1944343224045368 2.958196318865408 11.107018946765075 0.8398161377413601 0.6679975410027399 0.1531053365998331
P 3.057210228716288 5.555698449677973 1.3783784818424332 0.4218092711032929 -1.441177626782105 0.33402126765403123
Ni 7.427030885721408 7.317466691638257 10.749732602053049 -1.1899502517968539 -0.3141253000610526 -0.27576855465972505
P 3.9046389645696933 4.838611414300403 10.981988386750524 1.089257367360466 -0.8912829381620843 -0.2803260921234204
P 6.774685489543435 5.330782635253027 2.510154453893588 -0.5975680834365837 0.6694856955124922 -0.07276556189850049
P 5.3998717669052905 6.942594693803467 6.139073785653022 0.023407323180346783 -1.0746488734186717 2.2238646236106407
Ni 8.016139188920134 3.5300807984618463 2.8833280682649165 0.5709738778878232 -0.8712525018737705 -0.3595973163509226
