# total energy = -381170.8211846869 ev
CRYSTAL
PRIMVEC
9.22591152529059 0.00000000000000 0.00000000000000

0.00000000000000 9.22591152529059 0.00000000000000

0.00000000000000 0.00000000000000 13.50305408668862

PRIMCOORD
 96 1
Ni 7.631295700212849 3.7898383627873655 12.685619958951708 0.7399290370357193 -0.700601185970374 0.4249712137710423
Ni 1.5560606792518725 4.8552835222348 9.956719897861873 -1.7416429128575617 -1.4991187220732634 -0.48588373298569876
Ni 7.55896455433924 6.267014042552139 0.11859447890718237 1.7069011385010024 -1.4651282240604315 -0.32407186975080315
Ni 9.140378038292729 3.082810637784299 10.842790273680782 -0.4198770870775866 -0.5625748551908505 0.4720565972946193
Ni 1.9892633520191327 3.933891744377995 1.0178320755667558 -0.23252491347974147 0.6037657276068633 -0.15320098163743293
Ni 0.8527353125190965 8.385938354278887 5.951605962168179 -1.6767338708890025 1.9354842937241765 1.9161380279870808
Ni 7.951647023958937 3.8739417716883633 4.357826989080199 0.5348704472970466 -0.17077292908292524 -0.12816974970041797
Ni 7.348752161644063 8.556008806196504 0.18530150915265994 -0.19090492394610994 1.1058785208569148 -0.6556413334302322
Ni 3.6133189987567835 7.700443906631561 7.259363228065642 -0.7334984509190271 -1.3501855145732489 0.056422601764102825
Ni 8.289988875058793 7.754314003666766 2.165431208822957 0.20915949928092364 -0.7580697125004879 1.0217491972061628
Ni 9.211297619712427 5.368539428770595 11.8264606442806 1.4991853136451405 -0.10846790039611642 0.9318732008796209
Ni 2.2065704706297185 9.107699859889117 10.809018824768748 1.6822676562230383 -2.449174764509498 -1.636430029063633
Ni 1.4177642664144487 7.847624872208307 3.8928087606311608 0.8277748903061098 -0.46654955143346105 -2.324578076872319
Ni 1.8077158662409591 1.0152285233517644 4.439587939060622 -0.2533199958482218 0.20304490174275355 0.1390565718162508
Ni 3.86497418574587 4.504708112534383 10.093600133289655 -0.6885727940509303 1.588860506814786 0.1106548807451062
Ni 1.7520836201162315 6.4444006422602875 6.007670903540542 1.5965347355305923 -1.9397968050566008 -1.0078474995234064
Ni 1.8917362419387855 2.518415504006487 8.93036584787631 2.27901967151623 1.3613253332401523 1.5091542519323944
Ni 2.252008084587311 5.299381996440419 3.5424990571808905 -2.370707267130214 -0.6319303629665376 -1.0688942303230817
Ni 7.456040286052762 1.1616621900999693 8.859286658188294 -1.0926841336538278 1.2116845581501519 0.2330442763183212
Ni 7.998874464740443 3.0577899658953664 1.7982962106367557 -1.5743569138819724 0.7353599296077982 0.12933085988805468
Ni 6.844509970608079 6.078934611457828 5.57646379542283 0.10354140962877652 -0.6033882896627867 -0.7501404303510824
Ni 6.038285245549777 1.4152179148505308 10.919514798593296 -0.6827183921526823 0.3330015681402652 0.32361524182935875
Ni 6.895815264256439 8.426550816541084 10.468864082066318 0.8269361964548985 -0.7474181463239127 -0.6612512234178419
Ni 3.4279427597212693 4.998644960465669 7.4883208276722995 -1.2617909878882398 0.5292219907620176 0.0523322337448131
P 5.346074334357043 6.644150851355889 7.153796658736027 1.2604660984292293 -1.8175691318722311 -0.11405387912432616
Ni 5.913181886105115 7.053873579448617 3.661460727364319 0.6176828519085877 0.399697269695602 -1.6578558030375772
P 3.651994019611652 4.13880846389314 4.552716988016844 0.6274378744128226 -1.3791464205819732 1.0182627813194591
Ni 3.5410155306175644 6.7984080910251175 1.592401544506483 -1.6009356928117653 0.6930909936362579 1.0679179824527416
P 8.22006569207715 7.586513125969162 4.522415404406222 0.3148210405764965 -0.4969086233412926 0.529920559490939
P 7.037802041679251 2.751812612209365 7.059815066431092 0.23558066958692975 -0.5448234447447005 0.21631436515815003
P 3.6950236706772785 0.8302840569727408 8.905858136664747 -0.4637791877771755 0.4845051074706172 -0.9614928235182666
Ni 5.2298278499173145 1.0908164159719789 7.09103462823233 0.5990495530781167 2.929422896475974 -0.45877119303962277
Ni 3.8413835301337755 6.511325404016303 4.392975866573729 0.6292011369608325 0.17369344516382987 1.0789233324243095
Ni 6.417756209953785 1.7874742164901045 13.346283788486252 -0.37204274120312697 -0.09198507224974481 0.2909987413459182
Ni 1.1991562942875138 1.6159922001185774 7.027434884967748 -0.9660439332240588 -0.6898704298164312 -1.684256147407977
Ni 7.76405656617219 0.5601041623561517 6.606328304720245 0.6328677871791423 0.4129101688414502 -0.521258770050883
Ni 8.73838662400639 8.35542826506919 8.801911637388116 0.634520749401533 0.6200454386034935 -0.06469384063395955
Ni 4.676983557291767 8.830857934604756 10.345890985578574 -2.0637453175868203 -0.30726739659895463 1.0971521967275104
Ni 5.033740327672712 8.814989366887586 0.958121053984028 0.48407136236730824 0.9610356813761902 -0.11630385150076743
Ni 5.149405579690242 0.19720016716709796 3.2604205045498635 1.6136832222854207 -1.8846353293931088 -1.7631262795423186
Ni 8.159248483709952 0.8721263332330189 11.713453377355693 0.06481725358570127 0.5882411496087031 -0.8366199994015656
Ni 5.963075615299565 8.470918224768916 5.578111543210206 -1.156193467061383 -0.3803905989471901 0.7615540715046626
Ni 5.677708947822957 6.567917144933231 1.2302024089532384 0.10013881170513075 0.13886091086567698 0.11176971107583977
Ni 2.9443389326290688 8.688778898067309 13.328121659179264 -0.11542016334423348 -0.26398775997471313 -0.6796322970281908
Ni 3.5390319596529185 2.7660666454204272 6.4231192322875 -0.9285670193245235 0.9952470371505763 -0.532389846967038
Ni 7.453087994384451 7.278681364079004 7.461882133191431 0.1974409252924148 -1.1412322177658605 -0.8238277327329039
Ni 5.736487229756728 4.451954350786258 3.9276328860411764 -1.3502983860020292 -0.022617737399515888 1.3345164405774244
Ni 0.31937706749554595 5.572967174978176 1.7482271891245007 -0.2977188336785711 -0.23918304222620743 0.47414921815758987
Ni 5.725988142511299 8.613310942296119 8.209316582631061 0.49293241230236406 -1.6376111938559281 1.6186788757277997
Ni 0.4407780686699161 0.9978192284201954 9.482479448313951 -0.6605755375070559 0.7894304861999565 1.6786370014489862
Ni 7.418490826396437 0.24652742539768965 4.024058422292786 0.7107066498354923 0.6916776582284991 -0.7894819082631823
Ni 3.2261813019266317 0.4310530353962717 6.317552662957885 -1.251600163398167 0.026110581044122776 -0.8291802552940687
Ni 2.9654754957918805 2.1417123130415203 2.3803451259999187 0.1954434352464118 0.2635887247640815 0.48644063393043324
Ni 9.007192780406069 1.6298402932252467 0.3399702244731586 -0.38337642104839137 -0.43628303923943573 -0.9093253974860919
Ni 2.1053068664066656 1.610733430584399 0.35814157969161026 -0.9901775930474689 -1.0035416730592006 1.6889887769969558
Ni 3.536577867203635 2.343058604820302 10.979940828314442 0.5683786063568211 -1.927570181083422 -0.49740124670699504
P 3.5681489362316317 8.583852606993258 4.354721547281595 -0.7672066418047496 0.7657115453164619 0.7125059078277599
Ni 8.234993216825046 6.29256059139449 9.61468768217663 -0.9553926241577999 -1.0827789587249739 -1.1411170323442348
P 8.208708595065618 7.482371037369507 11.832010952617022 0.4007241682982195 -0.3883386501496731 0.19915456554941185
Ni 3.103301387144667 6.767482835799564 11.524640486300038 -0.6614592256635898 0.08951527055301357 1.1350682550469937
P 1.5691799253529277 8.358814174576285 1.541616592264663 -0.5343264018681185 -0.4634187191139632 -0.1554121303561388
P 1.2440588053802248 3.9442893465973263 7.453928474918774 1.0614272325220753 0.7160002941342637 -0.2632958761140111
P 7.101091794318659 0.9338283065095637 1.7434601606713258 0.18825205970429512 -0.19091957923412925 0.8479271968842687
Ni 8.7170932203487 3.719094073685473 8.757094927272016 -1.125308090336436 0.22149642357972177 -1.3193911549002115
Ni 1.8396190680816402 8.773112954754893 8.366951428487065 0.7531329373205029 -0.26210108447496144 -0.2569750761023058
Ni 5.022678459828009 6.449161212575438 10.42150840111547 0.6935440220132766 0.055795509703065196 -2.212420129219125
Ni 5.873261367202679 4.227801605869777 0.7159196584715597 -0.1847378759034496 0.08739796709969465 -0.20125541394249855
Ni 5.450760751733044 4.243808562258899 6.692937471174722 1.1256927273693644 -0.13951371395832746 -1.185901792759093
Ni 4.509450231026606 3.011217564827767 8.721987566380072 0.6954777487008796 -2.197794151775834 -1.031388777178456
Ni 6.431825724935577 2.1753592121487975 4.97822525062357 -0.3164043259032164 0.0004175471533928293 0.8394227589576834
Ni 1.2645403288291295 3.5209399472730523 5.2666632240263676 0.7592675894633312 0.09368688543219995 0.6354160075222928
Ni 0.6913252236922398 3.1831608767724684 3.044398555406139 1.0853847717789373 0.4634182048933309 -1.2775220254702513
Ni 3.916713097233013 4.4815879784069255 2.2177015328103957 1.2172373696475811 -0.47811051679818306 -0.31119064291276083
Ni 6.065427877075307 4.895923662231389 8.956630172630518 0.6315981764380993 0.6526822508019081 -0.11581097102474894
Ni 2.550410964961803 4.227367988030994 12.027710063989014 0.339683351035815 0.6304206111902304 1.1847072582303597
Ni 0.5530980051907921 8.748073831043035 12.55108864058253 0.7617952409811912 -1.2020064116304396 1.2136013155568905
Ni 8.793963514662336 4.916995644013954 6.421863585737322 -0.5247328446424124 -0.28305840345291894 0.8465753108420645
Ni 4.108510570647103 1.6558573635522336 4.3211392295545625 -0.9937714810463144 2.2908883979293577 2.142629847898865
Ni 1.7746501995558805 6.57341578816546 0.08651967511328061 -0.9452449942008366 -0.6285804726576981 -0.22588915333077872
Ni 9.37204990105194 0.6680943786272209 2.558396913924583 0.6490978758847595 0.1837325745673868 -0.27783983536645696
Ni 5.579203891127482 2.4336847331259737 2.6007687575028644 0.2520223600827208 0.3087704635070424 -1.2212302928570582
Ni 1.5067297306566951 1.5530253543803907 11.784047284100732 -1.9110050776358893 2.3691129260599 -0.34043668426207174
Ni 7.006277102208572 5.678502376208815 11.35051893665881 -1.8173194777552704 -0.7512784006102673 0.2647958576983052
Ni 5.2939202568540455 3.7205517676967017 11.800642853641222 0.7464655526026563 0.6894734514883287 0.2681413771317705
Ni 2.785902355066889 6.4858987920229785 9.255154835036327 1.7730738776733335 2.0104908291380537 -1.2681662952869641
Ni 0.7471936531504322 6.373398027637418 7.971217027355251 -0.20554684222900083 -0.05776883137935212 0.7388859404831856
Ni 4.06466903937269 2.5366366791468415 0.11875593235779311 1.1653435089917672 0.6973857643568698 0.08146180412091776
Ni 0.1614183921471737 5.768980889931071 4.330794145901084 -1.1747234075447706 0.16275802919824872 -0.925573226803522
P 4.517855036369828 0.6990768345038478 12.442429545730358 0.2935901562221782 0.20818710806532534 0.15318298391530394
Ni 0.9281359191366023 7.039628772149019 10.447002362262479 0.08607693429542594 1.9995289308099111 0.9503972278257373
P 9.039243596830165 1.8858685622480182 4.517366063062264 -0.7893034737037891 -0.4449180892066144 0.674036290997652
Ni 7.1320631791015305 5.3300766038793865 2.479674056589081 1.9562955740425727 0.1596469943730928 -0.47920709229647146
P 6.76412460402686 3.1440061085214994 9.979634294163695 0.6903681953884563 0.682164062311109 0.5333367842613396
P 4.0346940530278745 5.6025269953071355 13.208215255661976 0.2580657380633233 -0.0706693414911041 0.6216264099373682
P 0.7214515149850567 3.3910298879559235 12.87094914583876 -1.121023089807837 0.2869716224643961 0.3330797296763683
Ni 5.434661536229288 7.354398419459708 12.372146552201638 -0.02166360101636269 0.7582170367116297 1.4952260718870765
