# total energy = -340871.953435812 ev
CRYSTAL
PRIMVEC
9.24604283992744 0.00000000000000 0.00000000000000

0.00000000000000 9.24604283992744 0.00000000000000

0.00000000000000 0.00000000000000 13.53251830056499

PRIMCOORD
 96 1
Ni 8.281375552696112 7.989588929216644 3.1473798343880697 -0.8979629212854213 -1.2937827103034878 -0.6969605038939932
Ni 2.0122995420320597 6.434598671590899 11.711582594943152 -1.974757380292186 -1.4306679855000328 -0.8493757564053372
Ni 1.4757054393122782 4.859562992845198 3.1152803470715837 0.08085888042959621 -0.4641905642829812 1.1223158404773315
Ni 0.5251465769409007 9.228715867515895 5.47229363625329 -0.4138187966986486 -1.144040890859249 -1.6747114411423352
Ni 6.0972013182291755 6.575258723019795 10.624691753848714 0.680004592765945 -1.8075261458139322 -2.1493972485296853
Ni 7.418211212911409 2.194178452941008 8.353772069010335 -0.1520586405028736 0.6622477830031562 0.827469443250549
Ni 6.5380249080520585 1.1290527969555957 12.39555677310935 0.3695742250579764 0.8132309310536641 0.03867401953143017
Ni 3.9847301468550618 5.498214917669244 11.066162566678237 1.4958799034209915 -0.8235721650786719 0.46135258061355383
Ni 7.5358763555186625 3.870190166765587 2.695420310433788 1.1565068845367437 -0.08951141389827165 0.035564784478487134
Ni 5.663210554147826 1.8616167800431862 10.093472375896935 1.263680748711785 -0.21047616120981813 -0.08214237512771014
Ni 3.073421661419253 2.597758981753204 13.569868025710731 0.28778357684273015 1.4613057649905477 0.7520006234882726
Ni 3.1599461313641437 7.323920066886831 13.306634107471359 1.2397437782802134 0.8929497843415459 2.00734508442022
Ni 0.5571452823892099 7.602059530969135 0.6616024526395198 0.8156084301469051 -0.5216482921798177 -0.33576807514180884
Ni 1.6831681510694327 5.180160286163122 0.7382271843956953 0.3386022021564943 0.08395037487072639 -0.8045542292152725
Ni 1.1171623857193136 0.235857309662771 9.546298950831464 -1.014766852351059 0.6986916276524869 -0.23770491501878416
Ni 1.6982946773389178 1.7105364382073762 11.544320753337033 1.6850719584410527 -1.8516930701391336 -2.505202444828027
Ni 4.852138420354736 3.0791264699206424 12.285956953769135 2.245690975457113 1.5817269810937986 -0.9794193260897002
Ni 7.598546034647372 7.368032937810861 12.385529439527899 0.18745810304809005 -0.9235122305094353 -0.2552226121875734
Ni 8.777619923973331 5.720360345634187 1.9217937259920348 0.8075688476718802 1.9689952809974285 -0.49669162223448005
Ni 1.1520846899490476 3.122453427193751 9.46251870643473 -0.2750239631842167 -1.6914675775547516 0.6526046034864375
Ni 8.047552372482782 5.771860804876872 6.097184675351862 0.15386998267999952 0.9935153991714502 1.3003973874065282
Ni 9.226774198495974 3.913110298148808 7.448798972205242 -0.47452485632945374 1.5310240554222923 0.44179959818229075
Ni 6.215865033475246 8.808085635500197 2.922266426635532 -0.6371530448180575 0.7036530854228203 -0.5683914618726276
Ni 3.4073240105451164 0.6070064182165033 2.6275414107059167 0.13409022894991102 0.09919264574177755 -0.15556562521486755
P 0.182631538805242 5.603203735389294 12.69957868522721 -0.9856431955122251 1.8653430568224003 0.35390129440740986
P 9.176679137781994 2.2853536824907588 3.4305611656921027 -0.9345080673993068 0.2972660624118687 -0.41008555490846144
P 0.40969401241206305 2.133330244273844 13.019513961869771 -1.7113275497034721 -0.3595057850783809 2.3349236817727013
P 5.210145203456484 6.286689722487627 12.649507664224908 0.6631301856081097 2.289434439091651 0.09142842841532642
P 5.371913970944815 0.5339663773128211 8.172571817654063 -0.33270589127671735 -0.10023342830146609 -0.28956483711286907
P 6.762232203595301 3.570396470089681 6.559251973461279 0.7169271768239072 1.0028119939820277 0.32632955543672837
P 0.4374663516270093 1.8597398333239288 7.9610186564949394 0.9415359207803655 -2.304213140062722 1.641756069262237
P 3.3432304408017974 3.3440718307104302 10.60732953439343 0.7101253234107253 -1.7283387395494882 0.3690250374227258
Ni 1.2690286412060443 5.992989168117094 5.690383749779483 0.8555618306113911 -1.5588590753566893 0.5907544029488601
Ni 8.730733240163698 7.253548433979098 9.669931489559943 -1.6307556043866756 1.0845303941984419 -0.18649496780387237
Ni 6.930621137837269 4.866516017145108 12.221027541742954 -0.1369022444774094 -0.5437057862004894 0.3283931228339763
Ni 5.5142475561480255 1.7779585834134182 2.289079837800418 0.08781602847371972 0.9989247431124798 -0.16782413086724643
Ni 7.721888247627158 1.821914271607264 1.3848371783885343 0.3308205013285464 0.3723294192056104 0.22629281652710057
Ni 2.2446895855878277 4.941723330516741 9.790222508365567 -0.2778902289884182 1.7195964745804835 -1.3200179898509332
Ni 8.857514981121632 4.924460968325342 10.702246637525862 -0.14788111208641627 0.3279665768195191 -1.1626407653486235
Ni 2.1952232557945854 2.6334671996338583 6.96631086363202 -0.2758415739895056 0.48685998085603893 0.6589387732345813
Ni 5.06116371337078 8.121844327602167 4.916580565917346 -0.2205649129043879 -0.5015751755790265 1.6682757128193204
Ni 8.664170976952192 1.9218270117466623 10.708268585300504 -0.7615018781104884 0.12704489206735542 0.1938005003263501
Ni 5.21661743352289 4.390936551865627 2.8087416620621877 -0.4543437533958885 0.321172179605505 -0.5308032192062084
Ni 1.2923286694451044 3.8937028539925436 12.017958549596592 0.8824681680839318 0.5374279236115777 0.09745509422538055
Ni 8.72287410365449 4.001465484598196 0.4708233007849684 0.41874400191440786 -1.3142186095603368 -0.9844967406126076
Ni 2.08896773019011 0.6563960058532442 0.1539595596110653 -0.9868852954494421 -2.7821061415334603 0.7483172610994144
Ni 3.4696423400416503 5.944909744766653 2.170737884849078 0.47289837646962424 2.996174133859595 0.47643878552271507
Ni 0.1560306732323151 3.96874373859104 5.095737441781223 -0.12951186555060923 -0.2714321320679003 -1.393274118232607
Ni 5.377396874415356 5.785665147004219 7.057749605405903 1.21140507923652 -0.7501746260231273 -0.5971993872432554
Ni 3.7302882908587547 6.050656738008768 4.688841281966439 -0.4987253648350572 -0.3398250188200019 0.6361395159518787
Ni 6.416633610135147 2.9807948031260376 4.423036039182113 -0.23028985350163567 -1.7675876577477816 0.9648357718485705
Ni 3.6138621180070705 0.8750824891498412 6.298561641638004 3.5252655125810195 0.3059401931470989 -1.7423677068387284
Ni 6.548491428673732 1.2529127883406943 6.3665764581972715 -3.0819181102956343 -0.877063966349225 -0.7931729839615242
Ni 0.511462433371929 8.179539635622696 11.537311328175116 -0.35133970432782075 1.5082168277197896 0.6397873971171111
Ni 6.577597971886654 7.8576571423344435 8.014688237414166 -0.8381086681319502 -0.39890614125287427 0.24205830689147345
Ni 6.520503656658004 5.798526392750463 1.2325419065088303 -0.16280842282020994 0.4350404250815862 -0.2638432639770488
P 2.6813524560823074 8.508079279836394 11.449931599257166 -0.1298275970188151 0.919914742966164 0.1871979074081679
P 4.929047005629538 0.930512516647129 0.2898652957540399 -0.5731500596035356 -0.3658528103423312 0.2930126864521534
P 8.492675372278349 5.632633890105536 3.9463932789631513 -0.157367968530929 0.26858180710329876 1.1255166068028166
P 7.166839043175168 3.637790877166867 10.055148452465156 -0.7381596038401222 0.34990374321224255 0.7223961703582784
P 0.489378259781058 5.695580950522807 8.514890839679138 -0.44409276509184165 -0.8854835578714878 0.16624135976115886
P 5.183424139325182 0.9080344616265024 4.403169991295429 -0.27516228853429386 2.2405102025871217 -0.4246045744602429
P 4.4189705540961155 6.318754999445191 8.995470564987066 -0.1216365765675905 0.4206964976550884 0.12446607559658565
P 6.516084048126944 3.6882927637707343 0.6320955557667769 -0.46093477634984487 -1.090878962124289 0.2013585151792661
Ni 4.048453874880301 1.16204267820836 11.664543351424813 -1.3692813548624356 -1.7736665169520098 0.21287834289340757
Ni 1.9408738602277984 0.022302380204538393 7.260047477570065 -1.0804402832894684 -0.2479996120765729 1.7983066840981934
Ni 1.4654330855925972 2.5996451745154134 1.8308820086664166 -1.6290365648130396 -1.1065074126901653 0.07235778493712054
Ni 3.4888371252100185 9.08359922338413 9.523523173227783 1.0482374733046784 -0.18046573089065696 -0.3827267032795344
Ni 3.107437853439691 5.065740504632024 7.395575050556303 -0.4619609036215141 0.1206796119709599 0.16345531237558947
Ni 8.668479632967829 2.0324374235815332 6.208611512779396 0.22608044340597838 0.10900963183219936 -2.4758964967750585
Ni 8.417199923661109 0.1533530191934136 13.454056714715355 1.4499481738858835 1.3627504957224528 -1.1955961372287216
Ni 6.2436863767178385 5.360467369770229 4.795342752313436 -0.7154644762354516 0.3612767609358746 -0.9278334835926084
Ni 0.9906395339640366 7.198053684181147 3.7447860862075033 1.7846366428102682 0.2098035606228258 -1.1066089712650362
Ni 5.622000940710727 8.57110030859728 11.265956610410996 -0.2437138402170254 1.1955262032227345 0.11915880445105931
Ni 1.6012204723857861 2.0145925606841577 4.737166650059403 0.36714453257056123 -0.14689226581058573 -0.43026537229044604
Ni 5.321735695844268 7.8164290368114395 1.0619709061301876 -1.2389603631469694 0.15896539492503592 -1.2431093523183365
Ni 3.9682629443575355 7.673013664582844 7.227136187682393 -0.6449902814742893 0.6389566736856995 0.13572005124385014
Ni 7.360099832958039 5.393614433753178 8.581416118718836 0.355297146313672 -0.4296303098096085 -0.0034239380798844255
Ni 4.642280983473011 3.2982022116255187 5.995934032797308 -0.609029547108964 0.35398125571572586 0.830750427994666
Ni 1.8393615546577031 7.206670996212419 9.175710152480624 1.8884732150819605 0.8123642121779946 0.20400212344970026
Ni 4.42484179137064 4.75499949310094 0.30887793387625384 -0.2605622792329319 -0.5385018734020468 0.36199075628376365
Ni 5.196211416727808 4.218054040748982 9.003252034735477 -0.15300969156223324 -0.6247901523773305 0.3060764616146471
Ni 8.332765059423373 0.02217016179032468 7.437093481828 0.5415391175664738 1.2030564501615086 1.9140541488748586
Ni 0.7499520914631367 0.19672528207698772 2.6516966979180374 0.34929387754238556 1.0997235569991126 -0.15047201274204408
Ni 7.801108343639963 0.778682320727911 4.185323973303169 -0.3097395122885311 0.3663793722697626 0.19634512112507477
Ni 0.42505446356823384 7.484542325049114 7.285082063466922 -0.2969852979466563 -1.0712033380722326 -0.4843161313882626
Ni 3.6479522783711236 2.8030026432018764 3.7238780092801274 0.23957976344399387 -0.36975291672768584 1.258458066860265
Ni 3.849044466534345 2.0427837456448303 8.566463418056848 -0.8863757306684542 0.7066419928478153 0.054970442698608554
P 3.1048304693272244 3.8516333585609073 1.9908903295766855 1.2791176520921455 0.0659595947202606 -1.2098765584071358
P 7.550660778198922 8.16923954377416 5.8305805744564845 0.22152959081050233 -0.6564525164776178 -0.5088727376817043
P 2.572618990966694 4.093630040743812 5.435620131488445 -0.18032123489299265 0.27902974190950014 -1.0394723255175389
P 2.370916563968641 8.106643832989066 1.9628110217357324 -0.21651953919042063 -0.9475217060501554 -1.0073859865059553
P 2.319332890339388 7.829012901269122 5.344100024536585 1.0499305447363851 0.7035466417519433 1.505324079553027
P 7.571510605055701 7.84364938726215 0.9718793128144124 -0.3228408255571795 -0.44261463788441835 2.004199339702387
P 5.445447750542134 6.830763873955584 3.2409701303568843 -0.8332305141040425 -2.0793341731640127 -0.5963213555136763
P 7.543226959665509 0.12044912614010286 10.292995510571199 -0.21718571201950984 -1.3064381942839696 0.6330634481297162
