# total energy = -381163.90502643643 ev
CRYSTAL
PRIMVEC
9.33467086498004 0.00000000000000 0.00000000000000
0.00000000000000 9.33467086498004 0.00000000000000
0.00000000000000 0.00000000000000 13.66223437389428
PRIMCOORD
 96 1
Ni 7.756252486563633 7.021604574947612 10.443383975755433 -0.8745576549876034 0.8190691350019959 -2.3990590788000294
Ni 2.7163704779410525 1.2027256346446191 9.190844804871785 -2.375413157246315 -1.097883161356264 1.6721933027061717
Ni 4.840484109739087 6.529406063064796 4.6239561568206184 -0.6277181246574028 -0.8222135941682485 0.9019597011496402
Ni 1.6307949594421118 8.34386066674326 5.153804195671592 -1.1956015365453603 0.7579637830502429 -0.39459722946487524
Ni 3.1746748008418004 7.486265808533237 12.80028375627201 0.9486787024727339 -0.06618508046750537 1.097654590285226
Ni 2.5350631706982227 3.812643528958156 10.719866651062784 -0.1364538440860811 -0.08160989966300784 -0.8438504557117338
Ni 7.629291631607667 7.159188285056868 1.337352121104875 0.4002788532306848 -1.9851716336469747 0.4279305535096824
Ni 2.939011706641497 7.052156951851582 1.5598449285426332 -0.10256953263381045 -3.7307195379858977 0.19031177044680125
Ni 1.8524747170698073 0.21504840762690736 7.035544972035418 0.3689892990887839 0.9432027669598272 0.7521127235861046
Ni 3.9379241432044636 5.977811042095529 10.480353938703239 -0.7066419928478153 -0.670727024118761 -0.14173694686189137
Ni 5.108071777422913 4.274261659925176 11.415561915693601 0.04531260789387035 -1.2370009254277534 2.606994218755549
Ni -0.21451539793512106 6.663125219541835 3.829893066776929 0.34160627909014074 -0.754734734589984 0.06974734389746698
Ni 0.25853023679170306 6.02419502035273 11.042923731907763 2.0458427262747865 -1.6906443103225075 0.0034108254537618676
Ni 3.4499262330957947 4.64935672901536 3.4201075613017102 1.6187421248655671 -0.957356689862706 0.04461943848158767
Ni 3.194688334627963 0.5267862668911497 3.936102948968605 -0.3757425586522174 -0.7635405058070721 -1.061410520351527
Ni 1.3621618086500529 1.6246807501930747 11.218893474496243 0.5641326865962736 0.16374379015028573 0.248251837296695
Ni 8.834210913845451 9.02867077197667 3.844893882445941 0.34394675429785926 0.5458536857814276 1.0739204798930795
Ni 3.8916615156651817 2.0445262301838465 11.721172497169952 -2.0178141022723444 0.166055726112914 -1.3544849132795511
Ni 5.17265836336809 5.86067026062046 6.854944299357705 -0.17526927429138203 -1.2755361053884744 0.43500828629207017
Ni 5.262737934747037 7.238532985235215 8.912326237904566 -1.5173295886543354 1.1438999944060106 0.4489166688430462
Ni 5.35705544658257 7.58904986661133 0.8477131759031058 -0.41666346523629527 2.0865682290186065 -0.8398858146370309
Ni 8.098116128285003 7.092426720859745 12.58928379528832 -0.9006916330704939 1.6397652640844533 1.5810772633249417
Ni 2.6985505917480563 2.5905017794463645 2.3706432160545274 -0.15344035134174863 -0.8724087269654007 1.3606743299197146
Ni 8.323277718049937 4.431681545079019 9.379014028479453 1.2116853294811003 0.6910091714065648 0.6192450541893851
P 5.96003782925558 4.389619519313885 3.7064551165088817 0.2937763040910554 -1.2906269382833258 0.7817356886588602
Ni 3.127553383606471 2.3399778896361876 5.361921610371155 -1.1391205707394962 0.07044154175101416 1.3798527026203784
P 4.145732580306862 7.902629456386772 3.140633124064106 0.2582480292774585 0.9518563288697672 0.006169362035505504
Ni 2.77770859851422 4.580634883990301 1.0949979350118846 -0.09857532387275281 0.8790627419468087 0.3104923312941556
P 4.490984707459377 3.6215348175756477 9.500075371610393 0.20460530425133797 -0.028772187036685933 -0.4872165928645093
P 0.511981479304931 6.107740322305226 1.669976305857241 0.6093391079295829 0.1884880869745012 1.616013155970178
P 5.3874397994155725 1.444045539234108 6.286936127056252 0.4631482390613959 0.25038970957530426 -0.4793089079816584
Ni 4.996149076818396 3.742932208848521 1.455355426144236 -0.28258043537523586 -1.140363699117978 1.5105002244373276
Ni 8.778576277014515 2.0484561265103274 1.4527603877148736 0.14974593320929694 0.8346297084444142 0.7008852928696961
Ni 9.072104994321357 5.363589716009022 -0.13079273724104995 -0.5433728283411029 -0.09195293346022873 -0.6077108282975404
Ni 4.009829110907265 2.197978880328772 7.872793982185591 2.5404759233183407 1.2241520944895432 -1.6226602289730507
Ni 7.250257331520393 8.109541765110686 5.682956801562178 0.48292490746769084 -1.2806777974904138 0.674845931383141
Ni 8.676716351326736 -0.2465491870647725 1.3093089036606638 1.0790670570910255 -0.1766712968452312 0.5882766308323287
Ni 8.129443282849536 4.469692323799753 1.9444090874988071 -0.27522425212048085 0.2649478098951372 0.4979524912247747
Ni 2.10770328086703 6.675428315404784 9.0061994194191 2.5044313709899577 1.3245037935364286 2.1007134101707368
Ni 7.285346358340441 7.9301574000133535 8.296582427041697 0.727111830666393 1.0169258076755905 -0.44644069649872786
Ni 0.4875657148594618 -0.5270896436859492 9.021323452740155 0.7330387376737891 2.849914102316369 0.6063471151807944
Ni 0.9539379935677564 7.671428334737675 0.02555832812803731 -0.22149719491067013 -0.09755973812404488 1.058067572021223
Ni 3.2189024701882727 5.065916404951688 8.055539762169301 1.771093871128827 -2.4265973934296143 1.3705874752683684
Ni 8.212885903425331 3.338824983504889 4.614801645354159 0.16054328093511705 1.0394358158526484 -1.5411058651383267
Ni 6.327543811140469 3.5981141290171212 6.022640797696296 -1.046137139132224 0.39855595700230717 -1.6952401572233062
Ni 8.615555589495143 3.6959041383192828 7.03978011209082 0.28185384162185656 -0.5678844403292219 0.052492670582077336
Ni 6.74574638910402 7.31160478676417 3.6674492619012056 1.4199284875953415 0.8236066178610331 -1.3101277273204146
Ni 0.7766455281539507 1.9583858898019884 5.443293801005825 -0.42055508698121763 -0.6919298834486213 -1.516585768509775
Ni 7.721592854591608 1.2230565472314947 5.551498502306691 -0.5364359920119536 -0.21263794474782732 1.981183338423188
Ni 3.402310078318177 4.647536468246563 5.857477803272107 0.07612702217156567 0.09574402507154478 -1.1074453511234026
Ni 2.2421785456634162 5.485565856859667 12.386359257848664 -0.13980759104966242 -0.9520602173504572 0.42606856060027914
Ni 3.43506543748592 2.4374691894788545 0.24242139572137655 -1.3861488200417353 -0.8238922674222521 -0.002271312532679959
Ni 2.4359756421813796 6.5243466715946 4.183307429910145 -0.0373370458875615 -0.5669639853974816 0.04787316953219497
Ni 8.036311274181374 3.005427888026079 12.77127906775505 0.06371296477792898 -0.2978160213780678 0.47128783744939484
Ni 5.507875719615696 2.3842615670063148 13.117903391487122 3.0692281735327915 -0.06080273310966947 0.8100196232052178
Ni 8.483862056540303 0.7602659816359569 10.578134613334791 -1.0845635614292226 0.12171473810369361 -0.524448223522458
P 8.588102323233434 5.927011764640167 5.990657415787934 -0.1969462450441834 0.862093975302954 -0.10691958207239005
Ni 1.1266854078619342 4.380798255588175 3.217155953317288 -0.7279942332713463 0.28280489268121617 -0.8993821702304512
P 0.47111429137777705 3.9058875536736295 11.768648631888432 0.3606347564765015 -0.24170580864806118 -0.2068964142783598
Ni 7.025646487321403 0.9726446734686282 3.452569811812325 0.36394813712045065 0.9716419961371267 -2.3905986067375022
P 3.338563612727831 8.534138592441549 8.299916771383309 0.3137509474407693 -0.09344648728661972 0.7580825680162944
P 1.0945368022837894 1.2562413012472629 2.9767545803157462 -0.7157565535545737 -0.7139051021681317 0.3346203346906108
P 6.83280152720558 0.702725205066619 1.0571971863798586 -0.5436998726632184 0.915339722000972 -0.3132117871078477
Ni 1.41480001621543 8.292491974380736 2.789841803372081 -0.7986792584917342 -0.09629038449331803 -0.3195544414964238
Ni 0.37774518207614066 2.625553467583976 9.329952866691528 0.2779035987248569 -0.7985851561160311 -0.7605963355770836
Ni 5.574198554294186 -0.19945203997302688 4.676200441286287 -2.1417690425604663 1.138328413855504 -0.758283628283507
Ni 4.854476780982304 9.232054575210299 12.43984692043948 0.012540041448539693 0.8700420265054372 0.3377177426690119
Ni 5.5891246925983245 7.060847530188762 11.972966835650046 0.5284236632304383 -0.9922545301811555 -0.27622903923591136
Ni 5.527077137058856 5.919525358811575 2.358033009528536 -0.4192764773791102 -0.6776502336011555 -0.19082239153463265
Ni 6.465258206638254 3.1679631726737734 8.17830935002173 -0.5910711628583305 1.195377336349696 1.3250961757047888
Ni 4.770576761546657 0.7508155611111853 10.136202369215551 1.7183458900028343 -1.0316955097855973 -0.9730013383784983
Ni 6.338736081200921 4.978786589485252 0.11374296137331433 0.8402100307456691 0.7799793680893858 -1.050616000839184
Ni -0.23814424964823314 8.367057323207165 6.789310363370175 1.1883903635089017 0.15982902847691183 -0.17533175209820126
Ni 7.232782828139938 5.60994100805688 7.724599551994838 0.6359554249655305 0.3406526569276198 -1.6204945887802995
Ni 7.4728892255502295 5.005082356591418 11.625358637635763 0.0835672804996948 -0.7759573914141862 0.5123005324163307
Ni 0.971440500960039 3.572863845019188 13.919084167870338 -0.025852956507361927 -2.1249087764700176 0.011591561492341328
Ni 2.992648723962061 -0.19210098686826815 1.3656492415896566 0.4113250837425174 3.619089952032348 -1.5510100116259158
Ni 4.875722491288883 2.4026508681064733 4.1784580685286565 2.2791112027887714 0.5812878582193215 -1.3949581908032493
Ni 6.915553382156293 2.776681784747206 10.505602355767051 -0.28542896056762457 -0.5060864331858188 0.28590332910088184
Ni 5.025273249119155 0.9305826477034944 2.1402850151614428 -0.5491177012446801 0.0015573171847908663 -0.39680889240421335
Ni -0.03800144405012414 0.9093126672533315 12.920962377907975 2.3939004174172256 0.633956906478263 1.054138412170146
Ni 6.238052324009902 5.3235999871191355 9.74518981980253 -1.5229723887624094 -0.5388016640306527 -0.5917471058794325
Ni 9.469556599520619 6.773778404943499 8.646609238210827 -4.668800667448443 -3.021223363518739 -1.406018819492785
Ni 0.5468156696173476 8.302816120074532 11.440153171946523 0.7448696688704463 0.8645226393491047 -0.3603925585587084
Ni 3.0847445841926 8.08014688736226 10.625583677508505 -0.24261777893936923 1.9817194134323162 -1.1970524100592737
Ni 5.082924174801683 8.057874363288667 6.61824599018684 -0.5519243174555397 1.3137840931260794 1.2996016309781102
Ni 0.9806071474982906 4.642225040669918 5.616599428602433 0.25504829139323815 0.5294245936911269 -0.019882340746223824
Ni 7.386104792896335 9.456488060667713 12.63640521252365 -2.56819061562479 -0.942686746555357 -0.19037296270203988
P 4.3200762232752155 5.7735404451540235 0.22909521995965773 0.14091187985743475 -0.03684390830122687 -0.9781306891852638
Ni 6.405338955997687 0.9191803475543353 8.298290671763183 0.3121679192243656 -0.9512930001671295 -0.277781985545328
P 1.1056263909675397 4.7334714458750184 8.12281286631581 -1.1100439650885139 -0.27587114167586035 0.09272503573956288
Ni 1.889253319270124 2.8566425731857628 7.243716527824515 -0.8066460787472945 0.7641578276760967 1.1418521107380464
P 2.507572565754077 9.507922095724501 12.428479158571575 -0.16459482529667135 0.4303921276762975 0.18146280469660359
P 6.513154401534148 8.698316779116466 10.602973238358858 -0.890578455895892 1.454685688570869 0.04322204391342879
P 9.057328210746967 1.508268073025524 7.367946991627284 0.6931881813357545 -0.9911530695868608 0.4926652746839063
Ni 2.8308788823043227 7.000032151169711 6.815200072304839 -0.02258379883778691 0.5411305692741455 -1.6146923802762256
