# total energy = -381172.85326811176 ev
CRYSTAL
PRIMVEC
9.20391777208057 0.00000000000000 0.00000000000000

0.00000000000000 9.20391777208057 0.00000000000000

0.00000000000000 0.00000000000000 13.47086400570298

PRIMCOORD
 96 1
Ni 9.047745723100856 5.739213391413724 4.2167574527805645 0.7386126322171408 -1.2263902397914426 -0.4483471694928214
Ni 2.043564277044419 0.6407933243115007 1.0014626491944056 1.7424142438059476 -0.2341948449829967 1.5785840645894427
Ni 0.47296356478947615 5.947976654960968 6.718606886506482 1.3026190776481954 1.4649307633376447 0.528237001140929
Ni 3.8784297179661973 0.7364045428131812 7.106096427859569 -0.41831385635552476 1.8283435967799158 2.2037413704982045
Ni 6.225373533545323 8.760565079894741 6.439288229885415 0.26054376729017065 -0.5518860080184367 0.437433350793795
Ni 6.060844298946499 1.5171738102075467 7.926714057370493 0.38837464559393114 -0.16725565995828615 0.9274889557689963
Ni 1.0600152130648093 3.234974620626839 3.6166574102396933 0.2776508592841025 1.6063702335637755 -1.5759324858992083
Ni 4.89865639438015 8.785535308887056 9.011294527044402 1.8388509240691429 -0.8102427949596176 -0.2571727939354087
Ni 7.269493580568951 3.5309358014144747 -0.12264772704017038 0.0348549028956561 0.06068626213646323 0.8527665272544409
Ni 1.3386546205522107 1.758242825233973 10.231027166482018 -1.4447810278626472 0.6287198264490398 0.7522299658902594
Ni 3.1519644859855998 2.261761556337008 2.725371179466001 -0.1505622584630052 -2.8568244562829572 -0.463148496171712
Ni 2.627083461667983 6.535186610622467 5.383267517145953 0.42598911351259544 -0.6032268243842579 2.002851053204609
Ni 8.690919033899592 8.206268334287248 4.269536399014816 -1.1470010019288377 0.3239687685140356 0.5350537669524463
Ni 0.23128617079644787 3.862460920582613 7.573548686670203 1.0488187997294454 -1.0699671516722864 -0.24916894979432572
Ni 1.6370732473925365 3.645460150604068 12.110832576847502 -0.1541090952739991 0.6779446249131228 -1.8694167126711416
Ni 8.778899284153013 2.9128835172040466 11.678525478157454 -0.9335899264604115 -0.18539479276115814 -0.9326234487820841
Ni 0.7112272256703595 1.1029606935211815 4.00250313187364 -0.03190661890060957 -1.0062806692569186 0.7255601699085569
Ni 1.585163150998636 4.3013221291382795 5.535487432078606 -0.0002951626429156207 0.20354549552825593 0.21416286603278598
Ni 9.05765834257182 1.7911744431235785 1.586530853183766 -0.6844544010071825 1.5582180993385808 0.9564660597276367
Ni 5.042568853106219 6.439346214567558 8.156365612365601 -0.1607569396078199 0.19501380390816092 -0.2396108737922454
Ni 1.6269949574011677 7.644405968247877 3.7895428818094428 -1.3071177368494973 -0.27688107099761344 0.18732286302180642
Ni 7.8748720699683155 3.4101343802850517 3.3118254934760922 -0.5098554133099478 -0.5787308961254226 -0.6706288079779998
Ni 7.623062082868896 4.832351370546522 11.284475384196288 -0.8996122839633862 0.6570736950013846 -0.8256619577281651
Ni 1.2855296070086657 1.916909164193982 6.688863505742913 0.2042021552756483 -0.5533741625281889 -1.017894342236447
P 2.773379735104339 -0.017510453615141093 12.58353843193857 -0.38645017487770866 -0.6171758303651822 -0.8464223302039681
Ni 0.58696605183979 4.407452505293966 10.095805967334808 1.2986891464661698 -0.7515676497159121 -1.2260058598688304
P 6.409092936757849 0.8746409454317823 10.407347540174854 -1.1217185732129649 0.9612326278783447 -0.9264756840131333
Ni 8.518870198457893 0.7377501555955904 10.787131561545499 -1.094017764863587 0.0646393332469403 -0.7979824895350257
P 0.17321221065166165 4.011058173469053 0.19798639619482866 0.3817026328903943 -0.3196529147475011 0.2085115812842796
P 3.1322681018928784 3.2760148900985415 6.5216899855600525 1.035431579789262 -0.41187015761271006 0.36834060976119143
P 8.587448589988204 7.8083921716964815 6.917652653640129 0.405751703419798 2.2222265737865854 0.5230256321433187
Ni 5.440095266820573 3.0561701095196923 3.6202543013160646 0.4583870702273267 -0.8978176539568087 -0.3649200141154167
Ni 2.3249004324473197 2.8046914634610856 8.515000871414632 0.47758755441517753 0.5831513937906214 0.8340699792862023
Ni 4.722456592010499 9.097207577359868 11.556398692864782 0.24037577698272797 -0.11408833190668738 -1.6966486075350584
Ni 2.7918612020474156 8.192462457586743 7.7578028375069294 -0.21775598270068303 -2.1465677495006905 0.8994778152680509
Ni 5.539120218434398 2.8497906606827366 11.856543054292672 -0.5831452231430344 0.34904730874921824 -0.8182468962110165
Ni 1.35720051491989 8.773919964623031 6.045724102784106 -0.6848994589644011 -0.26389185782679714 -0.3431718238050477
Ni 3.0260640943947905 0.3524953254844256 9.754562431361293 -1.542366477018305 0.11740479787443005 0.17493940175578904
Ni 7.4594164243789045 8.45515147552616 9.190874008030336 -0.15539258997211303 0.35866220613116295 -1.8839786696457168
Ni 0.9212477443891288 8.501419570308455 11.13843774085012 3.083648205612864 -0.3966970494166975 -0.08663974877743143
Ni 5.195694433550425 2.0075125310204993 5.80657594540261 2.6642146338305985 1.1155736366574918 0.10435824910311704
Ni 8.272113162230859 7.083850558536154 10.903128537583147 -0.5473811781695477 -0.5824870207337453 0.3391439335925772
Ni 4.546818228626668 2.3787617594148913 9.71431185803686 -0.46316469412162814 -1.8168795620043743 0.8801644596514195
Ni 7.127596779841156 1.2615626050565882 12.57452595562848 -0.5181641902859592 -1.5651801324787107 1.1928813094007198
Ni 4.763901833865416 0.9828403623089839 13.493090757978809 -0.5790106321493705 0.2934220060754302 1.4417502114561234
Ni 0.4381451437508014 1.17775172956672 12.932191121741354 0.4441752975033189 -0.6452599901959081 -1.1748247090093251
Ni 4.420107892269429 3.9581356461171153 8.190649285780076 -0.6192622805805658 0.5837072662940915 -0.30596616128902787
Ni 3.2181038392988213 1.638150105775176 5.017062035706145 -2.709519271304669 0.6428750349034993 -0.8972113878313773
Ni 4.013046219713925 8.656864538038345 5.332657013945459 0.515802374922002 -1.9746164838389475 -0.8525137878136867
Ni 8.140938925740455 5.206472221294619 8.746457314690385 -2.2090504414159438 1.5808160392437547 0.05098548990893154
Ni 5.772715652206951 4.729930173264373 1.6871848982482511 -0.9072196639969988 -2.1030641697911006 0.32154473245357523
Ni 1.7473085708871727 5.6021670553667064 0.7051811720673181 -0.3266905383205728 -1.277643381539464 0.35010428925882286
Ni 7.60159854655851 6.198037897678323 5.963955576654132 -2.004620486400206 0.5407510744475397 0.332601247378053
Ni 4.2896883770386545 6.543258446533362 3.6384127107443494 0.8575613775399231 -0.07249071097055902 -0.11389729894180382
Ni 3.0964280459783664 7.118392862040819 10.277393743184776 0.11098243928785402 0.03996162799460215 -1.117081588661586
Ni 5.001473360127714 4.800027211231739 10.480493836109472 0.5421327852864147 0.869590026569683 -0.18792732937502474
P 7.350957457019733 3.2517717706124536 7.528542449018335 -0.4067413210265769 0.8020453467504897 -1.1894583997621
Ni 1.1520727989037798 7.76765563151219 -0.002989432501549449 -0.12352248073639371 0.49818389050929046 0.14411007507975826
P 5.016641416662669 3.0861748815487915 0.41120895791633516 -0.40780215819092347 0.4136326488297715 1.0846995727864543
Ni 3.408394839820788 4.963884559831138 12.518797153739218 0.5506642197961936 -1.9426638421917513 -0.11911175326320778
P 2.8883550762661483 4.940193675413071 10.205863655215897 -1.4704241823520483 -0.2776243769215412 -0.3017770629083448
P 4.703975125067422 6.59016161164388 0.9862062350485671 -0.1652676829939799 -0.9305588529435715 0.12412694708961206
P 5.068652756152374 0.8050510433352146 3.706872371735036 0.18860250106517842 0.7089930095784951 0.7237344295537277
Ni 3.6619811830556728 4.228730829447023 2.6545820068800494 -0.7311227515979989 3.4183163628222744 -1.5418789958589252
Ni 0.8240175567463689 6.949749476185245 9.288336134401664 0.06565646165754499 -0.6889728577028263 -0.8201065751275747
Ni 7.547562345152732 8.724043934063005 1.3338649017289157 0.9539209247082798 0.9659814554172397 -0.3365445482965172
Ni 7.716362197610911 6.344683919991092 13.267709820843057 2.624852072872576 1.0245334448195194 -0.11083794329018977
Ni 6.335866566738369 7.699684698556702 4.2199364859888 -0.09636983158100178 0.8356794898651673 0.4693430550181981
Ni 2.616692238471402 5.757547595671996 7.863711399243627 0.024305923735216204 -0.811091516113158 0.6776096101712072
Ni 5.927405898677215 7.816961019168595 13.272721354085341 0.3962067400438402 1.3662135145703889 -0.5779942750697143
Ni 3.1360140964376155 1.9832141880276095 11.649562589623354 0.8590001668689787 -0.6369123895621611 0.833855549282551
Ni 8.286112321205172 0.9376951454983309 6.782795929637812 -0.25869565833783836 -1.299633255546994 -1.7501764042498698
Ni 6.472618377415776 5.143821152827726 4.254139164926633 -0.043556287324395954 0.2059502483150066 -1.210015397977845
Ni 3.7884338097145025 7.075972004899066 12.484918452707959 -0.5841289272125424 1.9072530667926249 0.6717089284160561
Ni 2.976841541998588 9.22978080935592 3.234421465167039 0.5249423895500572 1.028059969915539 -0.23828804121576386
Ni 6.72974822900379 3.2232764411026107 9.666382456091606 0.3971246238724193 0.1795149369416134 0.43708316654322793
Ni 4.057372287840348 4.538893655400578 4.877167087099923 -0.38042556595018356 -0.552336465292294 1.2973537154841979
Ni 5.799821190128943 5.3490132962684385 12.81134368102293 -1.7369658190968666 -0.3220203865384132 -0.516272115469569
Ni 8.592704027052196 3.019529312756551 5.386931596822267 -0.2320376894306778 0.04308063323955806 1.1446078191063125
Ni 6.509498476041726 1.9129422756220367 1.7048453757235378 -0.2634529705171656 -0.3028810946058009 0.1824825042103696
Ni 1.0914281845173595 5.976508800142012 11.704254109976517 0.5748978955325776 0.7263628683155103 0.5712225035635194
Ni 8.076686375576303 4.991275419204941 1.6209360183132058 1.0422789417283984 -0.8888067087074499 0.86033431229937
Ni 2.0690867411047535 2.920789682594536 0.6491375961892863 0.5151341452103838 0.4340307528701493 1.7136060613250035
Ni 5.756084172741742 4.5497266666515745 6.514550506522331 1.4728171080642571 -0.8185047778580935 0.04265742965921041
Ni 9.22812410415186 6.858446611605902 2.1177681031342956 0.3745027727078453 1.1853901432299974 -0.47511106785022694
Ni 2.982989759089213 7.298311047201806 1.9752868536261792 -1.3863434525510445 -0.4412031022488724 -2.145333619983273
Ni 0.7263069245944316 9.229688770177917 8.538695437399818 -0.026819177075373166 -0.09348068295866481 -0.02224698432365846
Ni 7.177067838017967 1.216592262684142 4.38845745973763 -0.06410891466476701 -0.5733338934795674 -0.32864123428904046
P 6.478002669328973 6.502972898321286 9.779604450912451 0.2268839131438802 -0.6594933601864706 0.03183154268830002
Ni 8.491930331056306 1.9307058369766872 8.76158487398702 1.312281540438624 0.29679735030556625 1.347894147435911
P 0.4295450029581665 9.065058292483291 2.1978790036684286 -0.3261660332756705 -1.2115210359890942 0.9048899874225578
Ni 4.9956380762423 8.625350323489991 2.1051992329861555 0.695568251532157 0.4478800000484157 -0.5619675606241548
P 1.98813828405079 5.4739380725724125 3.2778114948531676 -0.4799586257505154 0.3294318485111359 0.22410377929558178
P 8.37456197126641 8.477756297643788 12.584117358368209 -0.4147927305761437 0.021709623762949708 0.8577464969675357
P 5.1738719444458265 6.468191292953813 5.776050231626012 -0.18206238595381546 1.2806510580175363 -0.3326999777394464
Ni 6.578187314585641 6.740627259843788 2.1119079686708213 0.7139364696266995 0.8810720590673536 0.4991845638596628
