# total energy = -340888.27478711924 ev
CRYSTAL
PRIMVEC
9.09750960504857 0.00000000000000 0.00000000000000
0.00000000000000 9.09750960504857 0.00000000000000
0.00000000000000 0.00000000000000 13.31512489735150
PRIMCOORD
 96 1
Ni 6.755446868865506 1.8948839238964135 11.428052532342432 -0.9888017957458648 1.0912260610510627 0.9334197194311344
Ni 4.5061512561218695 0.2010158470431905 6.342180659940778 0.0880001194600678 -0.1234934272706712 -0.9875262714675507
Ni 2.6308087832520717 1.7008067475692374 4.839582267893869 0.49505125841757963 0.39906323565602886 0.22932311871299216
Ni 3.4142408387255054 4.266058875282302 4.609004062791561 -0.009678146519712364 -0.7058848029668165 0.39576965250642165
Ni 4.711964220076761 4.41078206100455 2.3977342214636814 1.304350201406689 0.8401071866192176 -0.4517266274880156
Ni 7.122285756084402 5.811571130754558 2.588686403178361 0.23210093856844546 0.16060524452130404 -0.5499941903123624
Ni 5.171397561927355 4.867995610466646 11.307071117916347 0.3561283839657157 -1.1469508654171925 0.7469599757405716
Ni 5.7151648195213 7.908829159905649 12.402013735325362 1.9114164541416954 -0.1861373273541375 0.202693946161238
Ni 1.8365324961102367 6.5822757700332835 0.2448940465061635 0.48536257037490604 0.995210527485686 0.8984100361251689
Ni 2.8079918839012104 1.5968222106818037 0.14123883947308902 -0.6600127230250504 0.41724710565390716 0.7817398024239182
Ni 0.3053187967732366 9.38708352550837 5.039441821442887 0.6718207714035721 -0.7137078985556611 0.027490749221101042
Ni 8.685328912919921 2.166326323468623 1.4837710955387255 -0.5897138774994877 0.22669699394405474 0.40677783069146717
Ni 6.991973025867814 0.9222600548524573 4.691184597967873 -0.8780088467609977 -0.18389866783160588 1.0193403306543543
Ni 0.9146909267080701 7.621147705360205 2.5110591716514064 0.12519446912217794 0.8977855151672925 -0.4117637139418328
Ni 7.827743055156945 4.264384933481139 4.377920036144988 -0.2514803715363217 -1.3839461559634616 -0.8001933811434154
Ni 7.877233508408707 3.8958539094415023 12.80325212655815 -1.1641281485274275 -0.21017097126457354 -0.8247885539842762
Ni 7.94069773669626 8.458500701352609 6.968337695436182 -0.5080998640714216 -0.4841297264090694 0.19393342635978858
Ni 7.077798933216551 0.5881048813012593 0.35014768600915247 -1.1443609932028294 -0.3148015001924707 0.2715966826702226
Ni 1.763888880445656 6.54305640533322 9.139661281031863 0.3217177676963298 0.21144752398415198 0.6184600963942445
Ni 9.212320362463085 4.493915105455764 1.607907526359611 -1.2685128799931056 1.0333309885064914 -0.19897998764476052
Ni 6.712588500249871 1.6020805713398034 7.007031224070445 -0.7418542790828901 -0.309895321140105 -0.35513439548356257
Ni 3.0853658598558003 4.495698217374393 0.43672504766645354 1.4483114096134089 -0.7641891951346645 -0.38364715821127476
Ni 6.114918497156535 5.689682694602517 4.67316970908384 -0.9985609320151577 0.17730198845069464 1.5118605951199642
Ni 5.237500068053698 3.20752722130151 9.532791061789778 0.6713672288059213 -1.0586951783028928 -0.7614501989369467
P 0.21967029086538498 5.554793916962098 12.558147017824883 1.40025851997024 -1.5858831693540172 0.016433720075991053
P 4.104396126333072 6.246313831038004 12.562541115052934 -0.4892912160053509 0.08159987236067882 1.3601559955223994
P 2.470064882791523 8.841951641446085 1.322988075786085 -0.10413070647334326 -1.4370602621796218 -0.5205067223762068
P 6.266692252965201 7.710712689232189 5.752293576471869 -0.21248650677162761 0.09508967931699752 0.4570308133097484
P 4.913010088902256 1.2411732605032872 12.658902848488225 0.7063987664887577 -0.5056848268720259 -1.0913756992550496
P 3.80644358323593 6.261170064523322 8.162917149804501 -0.9017208456659568 0.3380548142934565 1.4208299163636886
P 4.949700345880998 1.570302969647082 4.137329111768987 -0.7912896508958824 -0.474473434266228 0.3613541511410293
P 0.16796823298393493 5.836643867732841 3.3397267750483213 0.020301687671829556 -0.7336506602261752 0.9184589843562442
Ni 1.425816319179346 1.0317940727111363 2.7235951953403146 -0.1352348840773155 0.6733732034923564 -0.16441047720000718
Ni 2.0350037696654644 6.736824266327572 4.5142271155615 0.5945488369942856 -0.23950880099674235 0.06868959205691395
Ni 6.177445681935828 5.7433761973767625 9.379266945097724 0.29700792365447554 -1.964507420429404 -0.24464586511299155
Ni 8.612576127137872 2.1827018410886914 10.01196236087843 1.1420007205007687 0.5941747414843187 -0.280199336737569
Ni 2.3098486378987326 5.211553970135678 6.92251990688621 0.8218603245938878 -0.08540279104653678 1.048086292438795
Ni 0.5738008666601295 8.810137649714209 9.033699855267296 0.020475751355848608 0.28478567055667087 0.6200570085677192
Ni 1.4204396908940904 1.0740611031904903 11.518714675894962 -0.47164804900229096 0.22517824330668315 0.27674763074354275
Ni 3.8577808309748436 7.0318201187433145 1.685881373009524 0.7756023220676126 -0.016643522093951982 -0.1294452739787319
Ni 5.52680997685136 7.399159369000601 7.957078712822201 0.7213777563960931 2.415859181076504 -0.1503686543949604
Ni 4.8968893015562776 2.6627319451014158 6.050299794876766 -1.985660400357935 -1.0420169463162634 -1.6652952900347577
Ni 0.9319125127385086 7.394437761420148 6.565768338521276 0.6146042129832642 0.37822778696791637 0.8854894714087589
Ni 4.963692315936367 4.576147496437873 7.344330497004696 0.4036045751698081 0.38173631434180705 0.4287350516888488
Ni 8.254798359668747 6.9128428857237285 9.360573381983436 2.034146777994097 -0.00950793949043524 -2.300223816397671
Ni 4.896507206145142 0.39751659997813665 10.454184123959353 -0.5899887284274291 -0.4788898181663688 0.597502520305971
Ni 8.300158543476337 7.349250430298548 4.688774667624787 -0.7884601518668873 -0.9432176793581627 -0.4232807134424968
Ni 7.0876879263571135 5.907831881831194 6.952372475507595 1.1983634155612135 0.21400294341615403 -0.2089350419749434
Ni 2.2382330408403006 5.324099263734492 2.4587439416101824 0.4634678271843437 0.40518271829020547 1.099768294194119
Ni 2.3490861976183743 5.269496009981353 11.56507831503227 -0.32869239924195004 -0.5414748399874417 -0.6001852093444567
Ni 0.9222509573426684 3.5597555077993897 3.78849965492825 0.5434928988587349 -0.250773061056652 0.30184673980401566
Ni 3.741023390343757 2.351742670476741 2.4668270790576443 0.2086715039009116 -0.619244797079069 0.5552646946826824
Ni 0.8324803697494539 3.3097013537409468 8.219692888895237 0.668213770778604 0.37607320251875875 -0.23350244690166236
Ni 3.2438717729082724 2.812276811011795 7.718391897245023 -0.6869123756293718 0.7577861198217981 -0.027765085928410246
Ni 4.051330351734262 6.700379642113131 6.137793275769813 0.3908441901803463 1.0436585956847446 -2.245141530711546
Ni 0.7522194091386047 7.367954910424582 11.487491112548385 0.8785819456556482 0.9450971557690626 -0.7736523974300934
P 0.250417144699021 5.6893460867403265 7.863234260345505 -1.177933429841636 -0.8364701040872627 0.007722822565554442
P 8.60266893897773 1.1967865102431132 7.834659891849465 0.8072451457838743 1.213734241590329 1.17386671597143
P 1.717755408306008 3.2602927780772855 10.364666447138271 0.6518235023460387 -0.78068770701032 0.21526612639929377
P 4.2364737734487115 6.045522692486601 3.7628146555411734 -1.3155180450980506 1.2326899567572254 -0.9598468032744115
P 7.1468672275340825 3.926366957273563 10.446394836078072 -0.5515327384440759 0.07882925159407714 -0.08573060669960074
P 6.55483768050988 7.78225550621231 10.11032099771239 -2.2877624507058663 1.9649370517676545 0.671312978529218
P 2.3416535321208207 8.728341939201966 5.4447276947807675 1.0973350021622779 -0.5136652739743411 0.39269024225014953
P 6.785732478952843 3.872336846637127 1.4300575782429439 0.3695220316638023 0.3045785369128819 0.8270806924525628
Ni 5.369268399836514 3.2997577755416496 13.169431444317349 -0.009315620973971053 0.06413745390985727 0.8707362243589843
Ni 1.582875728175379 1.0073126738691343 7.18143321597711 0.4110990837746404 0.10073299364570394 -0.7880595739943589
Ni 6.790162966220051 0.8399949128351074 9.217980833053756 0.4550276668367905 -0.9292751011351416 -0.12874053460222343
Ni 2.7678991582614096 1.3352597067403686 9.636222470082046 -0.31920451435617286 1.4034009222539636 -0.5954600359546455
Ni 6.203273512226592 2.002007101661027 2.468158044739764 1.173145007314057 0.7327420323689768 -0.5231076503341636
Ni 4.261137122486493 6.889980843624156 10.450642463398523 -0.7897986681726528 1.2739188815000253 -0.9800291917595574
Ni 8.358355313596102 6.8121243548505195 0.5843703535329048 -0.3247025613562666 0.37910813269034066 1.0817965402070466
Ni 7.592135746643317 3.769325743297108 7.96707869558219 0.15926210022984827 0.05053477552475813 1.8256984458475847
Ni 3.566915248003275 8.485674963092132 12.384956814222102 -2.6804845746352157 0.10428831509713006 0.3275292321717843
Ni 0.10226783679026315 4.790211901771322 10.464330576626942 -0.03348373357974234 -0.5495910413366728 -0.6390867715056606
Ni 8.887466482920086 2.4239859957106087 5.94086221062185 -0.15107545065399786 1.2346033717298543 -0.06992603556717635
Ni 3.772346116547032 2.7065273572253092 11.49986099660839 -1.0491309316532254 0.6905522863748043 -0.6877086462784221
Ni 1.0409734600881635 3.389259076845112 13.053869416472525 1.3131246051652095 -0.8211663838506568 -1.2015700954239694
Ni 3.1343468525593825 8.5443629987405 8.324004026384092 0.7454728496720839 -1.0915741884191006 -0.7229659268188194
Ni 5.59886225437966 7.884193103397235 3.6156560664484294 0.2674222395775588 -0.07488903599940652 -0.3209927166048472
Ni 3.504979401360261 9.098146614612054 3.345012428235688 -0.3380699838021081 -0.7615581852697207 1.055228302800215
Ni 3.337175833303506 4.611564102046165 9.407068935012683 -0.07589922243147575 -0.5951232214405171 0.22989184673226862
Ni 7.67060176857281 6.475107104719725 11.473682912190753 -1.8254781023066624 -1.0611829777217532 1.6156796838901593
Ni 0.37886397565790003 8.813494630826321 0.3190169172624237 1.1233728209869365 1.0210627126620997 0.19185468945388895
Ni 4.638429048452866 9.580587558718843 1.295954825448289 1.1233052009737945 -1.656098196916522 -0.02327336870564379
Ni 6.160278680964124 5.70652218522182 0.2591307395748551 -0.9140665117155031 0.2907334034996735 0.06443467343530193
Ni 8.053552345627898 -0.07725332387462995 11.417147347358446 0.24319576293002634 -1.0326149362760733 -0.8668116924935975
Ni 0.372183674219891 5.16381023876339 5.728699184834287 -0.7255632552323503 -0.12945890082548672 -0.432486548311481
Ni 7.6902341946973145 8.982617337802472 2.74422106953377 1.1067730076467261 -0.22738167871590514 -0.8842129186891805
P 8.713722240971162 1.7836122816680493 3.6825909947204587 -1.3951885616465003 0.3094985999223186 -0.011463263444593162
P 1.9401440350963244 3.1502402021606373 1.8862476578537852 -1.031564383524372 0.5137922864705087 -1.716305462534038
P 4.677602925603985 1.349733844814551 8.296414918198193 0.8222655304521065 -1.0960360808451963 0.028583210954331417
P 8.730825559374344 1.595794192075655 12.665200144764121 -0.12231329091964097 0.5726584646790976 -0.5351388704670849
P 6.496795568056527 7.712186485817995 1.4099784643878033 -1.0989648244562171 0.22051503350305893 -0.3549518471591113
P 1.8627606168317126 3.3812714632504344 5.930836754834452 -0.362077402460299 -0.5218272409598432 0.6966270318139745
P 6.665627154719431 3.661174546926346 6.09815451586848 1.015993268558992 1.6006307599768368 -1.026201833660878
P 2.365934785747467 8.405471316792953 10.39439892863044 0.3678269033495665 0.1748599546681053 0.40798264963284575
