# total energy = -340891.2901690024 ev
CRYSTAL
PRIMVEC
9.02688082117918 0.00000000000000 0.00000000000000

0.00000000000000 9.02688082117918 0.00000000000000

0.00000000000000 0.00000000000000 13.21175253289235

PRIMCOORD
 96 1
Ni 6.320549886432495 1.9723373988648176 11.488253325853314 1.2126109266191631 0.8404411729198688 0.08543981493205931
Ni 4.660000958554748 0.3124167419071827 5.894423329489705 -0.5036102037311843 0.1067066947306356 0.2207405192503037
Ni 2.6867247640621748 1.583071207944858 4.704176708969238 0.638107695421843 -0.4855196647780607 0.5073390746459971
Ni 3.2902168957309805 3.89884532270933 4.450153957796516 0.6530499185539721 1.6448534772406382 -0.028313502232712527
Ni 5.102796554018811 4.328750532053835 2.647635661111529 -1.0601254829915163 1.259813552446895 -0.5143173057360432
Ni 7.181100509366465 6.057759325709404 2.654347147161873 -0.23022788991544865 1.1269543676906075 -0.49748789288353035
Ni 4.958104677891082 4.563503600278784 11.376680173558952 1.118153995790158 0.6156370251231525 0.11922925267767852
Ni 5.6705873711898205 7.772135545205446 12.254191403271662 -0.2754523089708869 0.8376471551144993 -0.16586623580992724
Ni 1.5988863035201142 6.920981905430061 0.28455617627734797 1.0153610342916322 -1.7232896071613546 1.5380393103978607
Ni 2.6751161950497435 1.6154777108644753 0.07408722341572892 -0.5007891893426214 -0.25947778791950155 3.101982742255993
Ni 0.582436028963987 0.14269693541874925 4.771027984546425 -0.13719766423064111 0.912878404944673 0.0790259409859155
Ni 8.663792800189835 2.5218758625808233 1.557758028143412 -0.8989540815540971 0.709766654519726 -0.9663884610476711
Ni 6.962731230222047 0.5264206213825405 4.927402450111081 -0.8714345359775896 0.45423653839406286 -0.5070796503370235
Ni 0.4307618603548313 7.520339725584331 2.320564680530333 0.5000677377955646 -0.267224778854772 0.8936128718468416
Ni 7.640397243364529 4.010923077653611 3.755480398093909 0.41302406871149516 -0.9383549519492226 0.5026874348065988
Ni 7.752023654257004 3.9975813474822472 12.539354185954636 -0.24685984204517486 -1.319921830592701 0.3827855815419279
Ni 7.954695187279635 8.754828895438955 6.921201258639239 0.8218394986582814 -1.428722431737888 0.18057037478932128
Ni 6.867163640692803 0.7362703302050828 0.20944710992833196 -0.5236802350081821 -0.1567493611103236 1.503036826180747
Ni 1.925560101335721 6.3407791268344065 9.481929719887562 0.20874298056879534 0.9025644246131745 -1.619529653763869
Ni -0.06070667765591034 5.150936910584358 1.1843493591395782 -0.13375855664210515 -0.4487387485042852 0.30174569544977714
Ni 6.510195630120027 2.0596092847218817 6.97451040728606 -0.7469661463881587 -0.6788241993045987 0.37072093706790993
Ni 3.3521593534007335 4.36607668513813 0.45953504365741626 1.0729480886774811 0.20030950508946146 -0.5357348521798709
Ni 5.7538603487478905 5.412906025133164 4.713609799651969 0.10436339130943961 1.144522458481358 0.958188184625066
Ni 5.310541194183733 2.8721278736627367 9.555717250852894 -0.21623106141572437 -0.8074976281143126 -1.4416242274012203
P 0.38806110230163976 5.640356346599904 12.22515192697851 -0.9581151652952855 0.24960526600079594 0.4394346974945399
P 4.1381930733816565 6.21128851837148 12.639248359564485 -1.2662785913459482 -0.3198220933355137 -0.5375204833253839
P 2.3622083908141964 8.671230950163586 1.603841158520832 0.3632074022996841 -1.3230364649622828 -1.8107189417196172
P 6.473068068418526 7.580657344667585 5.654999753016674 -0.230594529226248 -1.223715264062441 0.3298558234224319
P 4.629670638273434 1.112526980175808 12.525495215499904 0.593215462894843 -0.9608621319128035 0.35685986281510157
P 4.281855885071269 6.089849887792758 8.138717184081674 -0.5150989210970742 0.3859809485507739 0.046575276656377854
P 4.8510187881597675 0.9073459742251392 3.7884700375284583 -0.6680800734142172 0.13091645920761968 0.7962171701044868
P 0.23590850899757043 5.621156170636109 3.5513456076553247 0.5032703038932623 -0.5766526734401553 -1.19190968951607
Ni 1.2218876439282211 1.1322868227638418 2.4926874427505776 0.49696827293463447 0.2835757094089697 1.06090092770496
Ni 1.9433340300958122 6.194110363759772 4.912367277057345 0.6202012474550673 1.0778820356439889 -1.542510715905653
Ni 6.2875024749593145 5.510080399486835 9.184863189182275 -1.9080413670218754 0.5151410871889193 0.6086438816347711
Ni 8.605009750882719 2.064862929484895 10.127984498329708 -0.08158341730044659 0.2369585237710629 0.0072836781456068105
Ni 2.5182470564043093 4.983361891030104 6.801859572525204 -0.04864552892184525 -0.13481373737949687 1.204728695657609
Ni 0.6803831043343489 8.921203339815408 9.077333176903984 -0.0315651764007908 0.07986360639586246 0.1475576673087265
Ni 1.3189175881853146 1.1221586622413322 11.471461521749953 1.4043200916341234 -0.06733410647028402 -1.0883032309773129
Ni 4.217855298525284 6.8455532874923675 1.6400804751283797 -0.46414248465386515 0.08165103731358841 -0.35443634097527343
Ni 5.780516728447508 7.9143630828103175 7.739920412163795 -0.9191079307941525 -0.5591676292815144 0.551088966038438
Ni 5.442080904641856 2.8303243875845343 4.796897220219695 -0.7748729001007558 -0.15229955286908609 0.8744270429470102
Ni 1.0044571604115577 7.111548390983276 7.142961034300818 -0.2559926575843785 0.93664234013349 -0.10493443332156123
Ni 5.207770153587677 4.311021737698924 7.235694183184726 -0.5345207772671117 -0.046933431326744976 0.138898963192464
Ni 8.27692775962548 6.991806814039341 9.158505599244952 0.5186151617804486 0.7512102663764932 0.2005722718325449
Ni 4.8418565039081205 0.45876505070503654 10.384662055215147 -1.5211613036955998 -0.7812150402686997 0.06575262091577709
Ni 8.575916113303352 7.186643014322634 4.767131080003138 -1.7785924934987174 0.09240364784440215 0.7053520703917981
Ni 7.436913291048648 5.951025484338497 7.246686216222391 -0.5950789984661429 -0.08623094337478697 -2.1305222660020533
Ni 2.169186593619161 5.316363532452021 2.266542408281658 -0.22157355667456033 0.36012156428550884 1.6536299378816877
Ni 2.399092226727722 5.135717589157485 11.433252539700327 0.6189020690276696 0.22597734216921078 0.003659451129458214
Ni 1.0237385783046782 3.2973752123926117 3.7220944785818744 -0.5857633774921718 0.3394429528902348 -0.27480361964329447
Ni 3.652267040327083 2.326768855866448 2.492423857824323 -0.9658719264225688 1.2254638713224315 0.3118092503333662
Ni 1.0405285770318338 3.2084062729007603 8.294470600231046 0.6421042181757458 0.5056760851212776 -0.0285461870688089
Ni 3.3826341037786243 2.6964196342949514 7.2147662621906195 0.3462085537488425 0.4785005531477501 -0.34049684807604585
Ni 3.981558633643161 6.984675578020819 6.1255629372359 0.27051939044564377 -0.32235642972159323 -0.3097783359462665
Ni 0.885783463494195 7.746851251423316 11.512351487467303 -2.230030386101721 -1.1422673438985942 -0.2858027989672755
P 0.38409920421489324 5.201731170174522 7.8228503682424915 0.3507918022441507 0.8748101373180418 1.7375777416492528
P 8.555064018109949 1.4700095229676415 7.842126370006991 -1.2361357492139806 1.4001140239725758 1.7882043055568686
P 1.6515762081278595 3.148034492531289 10.418431617171215 0.7675164597356846 0.46334287157070525 0.5206388770786969
P 3.900632645154479 6.0546450517519474 3.7613460653911703 -0.9578719389362278 -0.38202916299187756 -0.08408407223511326
P 7.062252593645106 3.777885116825522 10.4406539929059 -0.9667859535964061 1.3896367785903359 2.012725117785211
P 6.382555532269501 7.775665055690563 10.076009522700021 -0.609803449160511 -1.3433960024552412 -0.496515501667932
P 2.284920235383065 8.508142290484274 5.961459656128132 0.5376189565764612 -0.26036790383393865 -0.2808241148057615
P 6.958696214398908 4.028660898889558 1.5863353281275134 -0.014561442753942663 0.6157146724386234 -1.1420925088836267
Ni 5.210306707158822 2.7725162414293174 0.6160629661996858 0.15737953849515476 0.2752877583685646 -1.0227604120794969
Ni 1.4402659499536754 1.2474156634983264 7.076439239881449 0.5754231719084284 -0.9193241605700168 -1.330158934939677
Ni 6.797214339544024 0.6412416454736937 9.101047696073936 0.6458348888627716 0.9296509964173215 -0.7966488583252667
Ni 2.765773161295347 1.5825927832499445 9.446773629004348 0.29866011454591784 0.07270462675357801 -0.3401327798684078
Ni 6.176562107025583 2.232717782351269 2.6930444834755516 2.074584060073537 -1.601162721220907 -0.5590578431765274
Ni 4.198266966676936 6.939911274962773 10.338764878587071 0.40775510700307194 -0.16848850392412273 -0.45067607473631416
Ni 8.01399276880581 7.246075999064351 0.1239833083427998 0.4287255386071519 0.07893723792685114 0.026983984788011593
Ni 7.6544611240187805 3.6170802580483454 8.52802760671871 0.33323245320414874 -0.08450856136704156 -2.8758043398195694
Ni 3.09727634046527 8.389222159714626 12.56140414826153 1.71566577206751 0.08007340841382339 -0.39878015719797133
Ni 0.1524820744618872 4.896035843886823 10.151025612174365 0.10811617348365252 -1.3469775491589124 -0.24403985609787648
Ni 8.484184948214452 2.3580650524186244 5.721296778098244 1.141593457760021 0.7371175357288531 -0.3291333434341106
Ni 3.5931048620164505 2.73512690017777 11.542527448082899 -0.10792256941560767 0.678179109521432 -1.2330527394132829
Ni 1.1894450334844593 3.57945621788986 12.757903100031672 -0.6238344733322805 -1.0015261852910688 -0.523138246461783
Ni 3.067442498640943 8.729192553296416 8.097972551149008 0.7827165645148908 -1.651013069084131 -0.4091332182975212
Ni 5.443082888436864 7.735757214629943 3.630602525840431 -0.2533845305375701 0.28087630819993564 0.5266837977211962
Ni 2.7448488510536553 8.526259240723737 3.712687565854149 1.3877084512193714 -1.496057052428804 -0.06819953979437288
Ni 3.552655408093664 4.3147498395668356 9.155044693055709 -1.088741861176628 0.2654118940157494 0.6875952606290094
Ni 7.356637237994565 6.008626012229884 11.23671477234173 -0.24802840843197932 0.7259826021579562 0.8524829345757512
Ni 0.4906859074249113 0.07011449307173907 0.3979256778978954 -0.24041537197141177 0.4562425130804981 -0.06898758291330699
Ni 4.531295688741961 0.38140558291371945 1.694909750541682 0.3818162756501231 -1.293218610269902 -1.343555667961557
Ni 6.106360053207793 5.727194942167236 0.25150695942796003 0.011883381701147278 -0.9108338637108184 0.9295844048454442
Ni 7.773047260190093 8.857979065038528 11.261433983370999 0.8186839837484352 -0.29561335729979415 -0.060575704700527935
Ni 0.022589769792852987 4.946071845469954 5.704266664335528 -0.2620465770879422 -1.4613188776166703 -0.29338318241769473
Ni 7.516097091497362 8.875473160486498 2.695475422538575 0.47682522232785624 -0.27778892752386347 -0.6289504544026071
P 8.300045601958944 1.6255878176249128 3.6008896442219878 0.5756715404738085 1.2843452190396718 -0.27218623662510544
P 1.8422961506586877 3.1915260053632433 1.5737175538152457 -0.338501672022888 -0.0077978987778639895 0.657258557318681
P 4.703474417624629 1.2610733345059533 7.964031690335279 0.8780445850949394 -1.0661724605165444 1.4056629788152628
P 8.558530340427813 1.5865014227385779 12.351007410448199 -1.5106179809621143 1.6078794711194502 1.3814897240031692
P 6.2680224656834 7.885332633398204 1.2593004550704623 -0.34937923816734023 -1.1554108232590874 0.7116283903188131
P 1.755141614255093 3.138050762105357 5.829091277990893 -0.827085577548569 0.5522205085397199 0.28438740667698764
P 6.862379393743667 4.020699189815712 5.995083885299518 1.7251582849389773 0.0561076416268453 -0.33969209278656337
P 2.422706547518173 8.319606853164185 10.377818776701677 1.8179072319379401 1.3960529665293246 -1.9031076771656836
