# total energy = -340859.6011939633 ev
CRYSTAL
PRIMVEC
9.39614617316721 0.00000000000000 0.00000000000000
0.00000000000000 9.39614617316721 0.00000000000000
0.00000000000000 0.00000000000000 13.75220970144349
PRIMCOORD
 96 1
Ni 2.1358004044699075 5.487725217225259 10.329202292216564 -0.36697972485792285 0.4689270505267021 0.695738201451118
Ni 8.659384965443136 4.944759513844363 4.849552123021719 -0.6532890311479717 -0.4704722835266349 -1.2326120523314383
Ni 6.4880765245443985 2.743214274525943 3.553570807934214 -0.8354833146939611 0.08000913083479125 0.6377847648647855
Ni 8.957994491166406 9.183361057386438 13.52755367289895 0.5510426861815348 -1.736754474417009 -0.22308716510560936
Ni 7.25203958616983 5.4713101498420444 2.8857913967199296 -0.2598421132374557 0.14619035464755467 -0.4129739321998501
Ni 5.886741961069324 7.621928276843909 13.040258256428224 -0.3301813250826507 1.8753212510810349 0.3076075535471928
Ni 1.8428661510416926 3.2737300842132164 11.529797689703932 1.7402892270431445 0.8752865627338281 -0.46076508354120005
Ni 1.5182011119505612 8.936514900990089 3.8153164333343215 0.40375627025632405 -0.29515878626087877 0.6858263416540448
Ni 4.317021779592625 8.004426595696737 1.4226657956261008 -0.060923574958249925 -1.6691843406765188 1.0725189715598626
Ni 4.614691690697509 7.6104367900610415 4.059212199828939 -0.9542317710804792 0.18372460414758682 -0.6458030071835716
Ni 4.0426824994622805 5.14012418529931 6.275697311579705 0.8547629888591797 0.3058376061309636 -1.9081683795180424
Ni 3.372568145921306 3.3525825429882223 13.311767417327989 1.0241583208682876 0.14299138809428275 0.25564170200286296
Ni 7.266443878269697 1.637297264831066 1.7409884360431225 1.2014366551698987 0.20636085348986394 -0.6208237115304146
Ni 2.071117334140172 2.930723767771178 4.036699973187013 -0.9414351335364431 0.1251114224900684 -2.860086671973997
Ni 1.6191439104038365 0.5805286769801388 11.019040096212091 -0.08057297375806123 -0.42413817634678563 0.48600200373111785
Ni 7.601172189923749 5.420420622110225 7.602647384874616 -0.5465674240190006 -1.6556186861769422 0.9569280869657198
Ni 3.688973972516819 5.8960159573528 -0.0010354553094620634 -0.6548882573142916 0.1634555694859056 -0.1105720912233128
Ni 0.9081046421590319 7.149245746918333 12.280200233156808 0.27237958358283415 -0.334284805728063 -0.10687638753928046
Ni 5.9579741452892145 9.338820295998506 5.323604611060904 -0.5283012787199611 1.265923779109691 0.23438999171293828
Ni 4.402235429334108 4.013498069415192 10.360543137812849 -0.38644091890632803 -0.44152808968845897 0.5505487772642519
Ni 6.177374158682492 3.6227311419205614 6.272671752508501 -0.9134080521958979 -0.15741887637352242 -2.8618216523872326
Ni 0.21251451746974032 4.284792998181963 6.791280765751579 -0.654977474593988 0.11826560321282859 -1.1559114170445899
Ni 6.871072839144972 4.002880424227423 12.072184590479903 -1.0831242578795346 0.665880494659737 1.0582326368441775
Ni 3.3438065424524916 0.5808490855650086 2.7255232104909592 -1.2219944247165921 -0.7812307239979835 0.5473482680490831
P 7.774493502431346 3.0930140046589165 7.673059285532655 0.4978108234405878 0.4609764282210578 0.6628874734696842
P 6.3528002079352754 5.269208441573265 4.826104040219881 -0.0760995113677399 1.2807006803085492 1.1134861580008437
P 6.52159257798225 6.299373720733812 0.7521257966629966 2.1300031602737897 1.2432669609421234 1.873188521008748
P 3.918972838805497 8.203108106754591 6.175787149592037 0.4162600591502895 -0.7531126256055287 -0.7551221998363898
P 5.5163834630860515 5.6434851325152104 12.539828906821691 -0.6434453055846724 -1.8904822750921895 -1.8466881607253745
P 3.43664046674909 3.3825092685838367 8.120679474742005 1.1352711150864192 0.7055891261032687 -0.6017679804505442
P 1.6244903175824563 5.088304439095287 4.812338686060517 -1.075975305539579 -2.3605519238637664 0.825547800747804
P 0.7954401513413834 1.4627356610271987 5.090943816558336 0.8537808274515682 -0.9025664814957036 -3.5675480753993143
Ni 1.7295580242104491 6.166136367846588 6.808416517547096 0.2241480022699559 -0.6478943424949616 0.3407655283564002
Ni 8.951558131030458 4.721892322509238 11.361855670886598 1.7278857111724693 0.28738891250747284 -0.27671780594687184
Ni 2.838058974105889 1.6846162570130168 9.27462770449957 -0.3893948593283294 -0.014282992281575401 0.26481745496486003
Ni 2.0189687228197144 7.920274710474032 0.9817347228850448 0.07321524784140938 -1.4831007493784525 -1.0531873611107863
Ni 5.508641038630545 4.096888866797006 8.226172826792126 -0.4970181523359634 0.1456113422156331 2.139731186194831
Ni 6.586519948112765 5.457995810699506 9.995229430715694 -0.061959729532248126 0.3049233218468103 0.6332891909872771
Ni 9.357556211489136 7.044525697699143 4.125979335382255 0.07981372699453351 -0.2530520868988158 0.7849840203928287
Ni 7.608491787800981 4.410240945882761 0.7203104456844254 2.4879688545585603 -0.9052959646117247 -0.6320620034483952
Ni 6.7716428202272985 7.596173440153932 3.9914828989063937 2.4742841579826163 -0.480749754193243 -0.03792120052580566
Ni 0.11291630753537618 1.9036780091436751 6.844475168142301 0.24443914841882416 -0.45614943914605954 4.134912638669324
Ni 7.562525840669506 2.7654361602507866 10.261995417021842 1.3765640045667777 1.2969706211131664 -2.5577372815019497
Ni 4.6464130802142405 2.386743280602424 1.750477604074209 -0.22511936504428973 0.7276335074978179 0.4264226015055882
Ni 7.37987415500133 7.643943447352708 8.404938266398656 -1.4858867967640215 -2.6511472591236793 1.9009975728012163
Ni 1.7278385294588015 7.661927671148628 9.046767401082338 -0.9061086903210073 -1.0240081684436686 -0.14249387963257396
Ni 8.008861576695523 6.935953228544568 11.477649078383473 -0.8437571246669792 -0.2920112417708326 0.8712347612619576
Ni 0.13303721497350743 5.040027040002583 2.1607885156312814 0.6213021938287299 0.040742214914368545 0.8507824069448767
Ni 4.75217610165984 4.377016172976611 3.7629479521931612 -1.2959128692726134 0.08127899868615034 -0.181963398482106
Ni 2.739690719706993 1.0121434707798913 13.239362594064351 -0.3638121257632186 -1.3666678284989884 -0.7951964421494563
Ni 4.219452197619358 6.786535711928727 11.134957532838596 0.022323088977232522 -1.366829293777517 -0.4103277528262546
Ni 5.488119855364982 0.3320851757325306 2.8462401985881813 2.3212076177381893 -0.5468170781359615 4.040273930846816
Ni 1.4405795483256418 4.038529402849012 8.524802084422383 0.7854064526422281 -0.3085570619446557 1.7096753588120297
Ni 8.375311277866308 1.9088364933986177 13.230794248359283 -2.549573771854551 0.8580899963498834 -1.9180923234999743
Ni 4.3813571925135575 9.319689742368155 11.802779226710708 0.1741338751353582 1.102463838748411 0.5124321728981884
Ni 8.93294436544022 8.958370337013761 7.999192942272324 2.14144071268677 2.4611193384658843 -1.6369951575384838
P 0.2087701532154696 5.902452317488749 9.155396247114016 -0.2706710855321596 -0.03067891714109555 0.2189273773009649
P 1.717690691580226 0.18309894222652856 8.085007005754957 -0.19993540957949438 0.6505420645304538 -0.31445774369980684
P 3.8353847223538233 2.041669811999935 11.45604451946291 -0.2011890794809374 0.5016744201610521 -0.1400821848672878
P 7.960001616539418 8.49496180337166 5.837482664700405 -1.6603369175882179 3.31330376796461 -1.0289063770762346
P 9.453932482897054 2.401420060941623 11.437753981301396 -1.8324727884569407 -0.7733623769935003 -0.5331480652893011
P 0.7375335816394523 4.682682204483965 13.54460673860805 -0.08667060201536687 -0.031609656485481044 0.35639089359848297
P 2.740188715454738 8.088305992680112 11.886873795441693 -1.6729029271786868 0.04733863718496364 0.5119758020870602
P 3.6298816091664836 5.89005880067223 2.325004022872094 0.3702241999371495 1.3100130561194214 0.3890451892983945
Ni 1.0748251619724631 8.289909705201147 6.046090264586894 0.4135105214296104 1.629319643271097 0.8003579317457378
Ni 2.745798214726506 0.5753016008580539 5.757665221712316 0.17661473257568291 0.7386344865940118 -0.10835760007049725
Ni 3.0472453765973038 3.063613463249599 5.902585742764559 0.9529953275702169 -0.0348081088181207 1.7574983918325797
Ni 0.2829837346195006 2.5742339815552917 1.0298946701504514 1.6242273163498542 1.4363382964119327 2.095358573616727
Ni 6.19406171430504 1.7978210262362377 11.609697818778438 -1.7256966739409505 -0.7272283016395992 2.9867001329308884
Ni 8.694423194562773 0.4424194222965803 3.7918006982799595 -1.0556499637186658 -0.0313808283041266 0.4282560551699011
Ni 8.795159277800003 6.867774791834434 6.415351292695892 0.8820380225250487 -2.8501424162770914 1.4434965047232688
Ni 7.636623849475477 8.567227563671775 1.8518592025542708 -0.8153760024211247 -0.4168886938732239 -0.7510264325004614
Ni 6.366142735516366 0.15959636177682382 7.7444333515599215 0.5545733250426127 0.32088910114744734 0.13850918395321307
Ni 5.199545413766081 1.1832191043495446 9.650214218219546 -1.118791372263841 0.5241335204955166 -0.5834596690596596
Ni 5.425550917926616 0.39309153406051917 0.7735095461482395 0.7666530832941248 0.5445061706145977 -4.675705364988076
Ni 5.393594624755287 4.641198219082195 1.3407671062582855 -2.2696341165362717 0.7417208388288193 1.1292480488207908
Ni 2.3787189717614026 4.295034797522377 1.6398135527791056 0.21607422412288593 -0.866607032681959 -0.4388803676529668
Ni 0.9517732315485504 0.2972414468388993 1.7533246363679205 -0.613162338330415 2.5759880001820217 -0.7550548369335642
Ni 8.896938333263645 6.468861405598393 0.3623924452485912 -0.20129500893118235 1.2680215421789838 -0.11206693060128442
Ni 3.920795691165168 8.437701688527179 9.34073429097616 0.04355911553787337 0.4020845389808559 -0.5064224763689988
Ni 3.568731489801882 5.816505768344924 8.289309291459999 -0.4048944976258253 0.16688259288958357 2.293710183648869
Ni 4.478861001463537 1.4302437875233889 7.332431133689753 -0.3942146493144759 0.7715140109308519 -0.9287230852864135
Ni 9.177168997051272 8.398858020203077 10.236608909262271 -0.3276423607108809 0.7303722465852195 0.34611316582155877
Ni 2.543724694896278 6.878974998085604 4.511797312681844 -0.2333121852677272 0.7048938998084571 -0.15797552020794084
Ni 5.903871135562513 7.149630988911871 6.390390430358451 0.006462724906208224 -0.9231342783447263 0.17143421681600798
Ni 7.968777617075149 2.594520261166259 5.318254445423809 1.3590704757677043 -0.5876184284230396 -0.9101581778000325
Ni 6.024019656815611 8.281988753968147 10.627253686856513 2.2688172770619315 -0.09575739480798347 -0.9834922106074933
Ni 0.17385407399622252 1.9007652038266765 9.280293580648442 0.6396467577741887 -1.0013593206959013 -0.15882115603768776
P 2.57814277836778 1.904946488878497 1.3310120272901955 -1.591529054785885 1.957804297377615 0.4345305753247033
P 0.1620224467214981 7.759055634251254 2.264067196025866 0.4252560920013127 -0.3197755563682944 -2.134284561257963
P 6.980829222718714 0.08204996732137547 12.66116416133781 0.013030350821396914 -0.46736921912127893 0.7076537219417812
P 6.15024748464967 2.973776909585654 0.2749255996522169 -0.05120403367764085 -2.226132079488579 -1.433703687002563
P 5.389807977843189 6.816847679517879 8.713056692059999 0.3156975296441789 -0.07142601715147054 0.3132174435348025
P 7.222404141105915 0.62512748484186 9.872106089580784 1.4334141807866023 -1.1099789161785334 -1.4132413053831532
P 8.607405484753988 3.296816415386976 3.058862771739036 -0.46694601554093135 -0.3221908506780064 -0.1257642255827189
P 4.79286141463598 1.8008465853074425 4.907516948829991 -0.21671751413383966 0.6004991410404497 0.11063534036108043
