# total energy = -340858.1955477521 ev
CRYSTAL
PRIMVEC
9.40694335718747 0.00000000000000 0.00000000000000
0.00000000000000 9.40694335718747 0.00000000000000
0.00000000000000 0.00000000000000 13.76801247165317
PRIMCOORD
 96 1
Ni 8.653833024708058 2.194564666647309 6.8203425965758155 -0.5862837687720162 0.32170645484242016 0.5989310252223814
Ni 3.666497339367781 3.178860201404785 12.178275169352025 -0.24237172436683416 0.6229685257875595 0.539538027976045
Ni 1.613187336551105 6.3813600518643385 0.7863122980558638 0.15730574783442583 -0.49539295802771455 0.21254255682054365
Ni 9.009518965977374 7.740042531600194 0.6289698794248083 -1.6310854769222682 1.3132187075409125 -2.4661044503853007
Ni 1.0932091267813886 0.15600757334618834 0.812841760158631 0.42028177871517297 0.8210452848917602 0.8825861817190348
Ni 3.7060065021334085 6.100543974035884 9.50326026958766 0.43355227057183393 0.1201561353673221 -0.11905493188334335
Ni 8.700209256240091 0.46482812202065854 2.790431511840631 2.152482572323228 1.98252673982496 -2.1216717575899584
Ni 4.227292277051797 7.0067806915007 4.869098871598028 -1.5430899854478908 -0.7409163406496531 0.44320522028056575
Ni 3.650223327085749 4.708626762859323 0.4105594648790149 2.164440516016053 1.9511955338118459 -1.3656666409279834
Ni 7.488425606444243 7.890911091703797 7.423010661930935 0.3757492435204367 -0.3581341015418348 -0.29018421586442283
Ni 3.3164649711513556 1.000484884547868 13.211220593889262 0.2680447036529061 -0.24792222187141819 0.6919617651278211
Ni 2.715756372130541 5.750276432231569 11.776482975829573 2.3982103576464895 -0.059274469390601145 0.03125047337384941
Ni 5.017174510171841 4.86926913727566 2.601025526236566 0.6091866415121187 2.1170334874869994 -1.6495125732792042
Ni 5.581835701640777 4.565537745043144 4.834251790038745 2.065221130801398 0.10314725951415141 1.5419437876585897
Ni 1.0055458201592744 9.103550773359567 11.37458166176234 -0.5866781759969574 -0.43440510549043254 0.09247435318133751
Ni 8.168359483753656 3.065356020945248 4.584885946466082 0.30694163782841977 1.4293384680553318 -0.1943805411995362
Ni 4.195205192719998 2.661948655221163 6.016553138162271 0.8857190709210617 0.05935160248543972 -1.1687944436548452
Ni 1.4775392110557848 1.9280189221320598 12.159083123191447 -0.41383730864140983 0.2825938051116746 -0.19116897624077397
Ni 0.34390938868210497 4.4933770813347795 6.387656119159346 -0.4903394547642071 0.26414536859849996 0.1849854731378814
Ni 2.121369239152227 8.647662069761807 5.775570762650735 1.1094734372970247 0.7965750676645378 -0.5145299359674816
Ni 6.505371788230829 0.783901298432809 7.405442254221152 -0.02818494707464823 0.8885953640275922 -0.49664097150220265
Ni 6.717987525570997 1.1634131462385018 4.217844883679054 -0.6692884919000216 0.21925082207865465 1.0562297474815359
Ni 7.94262106020919 2.949801126799304 8.976399939941912 -1.8264715765681834 -0.8024775491919017 0.47458707702595687
Ni 0.3848907381079276 7.245764091515166 5.856981273918012 -2.2061749196403615 -0.8671551918759454 0.2502202738769755
P 3.723475196241925 6.591661681099662 1.6447542169064895 0.07366699066684732 -0.34329935052184746 0.6493863536594559
P 4.905100185126678 5.4808709768875685 11.23126969938484 1.0164118441536494 -0.8357843908741478 0.4296187398453827
P 8.32296260043296 5.607864714348514 4.853444776893675 0.4497882728147221 -0.8388530024971423 0.7700168575600351
P 6.609873523745914 4.328369885127193 1.0282269016697991 0.12911848676693247 0.7828559183062324 0.09272760684272417
P 1.751074314603144 0.601733015169666 8.960044087251294 -0.6718634517160493 -1.6277970359789835 0.47203037204237414
P 3.7753356758435683 1.8421805625519772 10.463483435888651 0.025478089666446446 0.25849922605631614 -0.8790892243093699
P 3.625332554543404 8.115586530630997 12.433341620695158 -1.08107174622588 1.6379456943772113 -1.1543312170416635
P 1.7623626468218947 2.3061122028555965 6.743669422063006 -0.3160667400581395 0.0566498872835605 -0.7433347202831585
Ni 7.409096851776972 5.123237798310518 6.949720994217971 -0.2317029317990784 -0.5664582494056567 -0.6130708070578732
Ni 4.852948090276049 6.11889692083487 7.030911383006983 1.2145415679829727 -1.818246874665546 0.5698135390311347
Ni 1.382105769089764 7.670967345364956 9.07528196740076 -1.421496860523726 0.9541078439081052 1.3096960390996346
Ni 4.7986794331344065 2.8331738410925786 8.168107377667438 1.893940408844119 0.8020684866789413 1.7937342342361626
Ni 7.326475666879234 6.129790161425964 2.8556507919288148 -0.7711185752646462 0.28233720901617826 -0.1258822392178219
Ni 7.68139023878027 8.498411503942892 3.9624614183394464 -1.1191729239729757 -2.629149928916982 -2.648827352741251
Ni 1.6727332890050146 1.8375335324552582 2.5573124004138053 -1.699050532108332 0.9775136244265553 -1.5678983027408224
Ni 4.428741972438917 0.2916604023132661 4.745311020487208 0.2009769634701313 -0.7827942118303616 1.4079283778106721
Ni 7.329316563820953 2.9108563806446144 12.077411098894435 3.223748131091964 -3.5845196702566464 -0.9233682487324032
Ni 3.6854617374952823 0.8708543808194935 7.948728047939534 -0.7785608904753044 -1.0409275699068268 -0.20590396845810346
Ni 5.538742493395698 8.431076602258045 10.883751807170142 -0.8390396645866518 -0.962527178320052 1.3991701720020677
Ni 5.251191044010056 2.4588527447188078 0.6620531590749117 -1.152570268486499 -0.06159668976587457 0.3527882638488892
Ni 1.453645574526096 3.880674629331543 4.4070994174925175 0.3134835527119956 0.010794262402026572 0.39424755943494033
Ni 2.995819894477744 7.388834295444315 7.633137322016868 0.3405793804875232 0.7370481159434983 -0.737565164789233
Ni 3.120800546026345 8.510847483270549 0.7824197048290981 0.6949743267019 -1.0659744855731255 0.07922597281186355
Ni 6.783779688519282 4.957769661870665 9.24738199901913 -1.2234519830987254 1.5652374680792076 0.3714457310490764
Ni 0.4610691073918146 1.4080971540234373 4.9891559289105505 -0.43528827942633425 -1.3249336819849957 -0.12625402073494385
Ni 6.702466068770215 7.047503349979843 5.235755190395267 -0.9561274454412955 -1.5766395392685622 1.1799239779091033
Ni 2.332818515496457 6.418442223202934 3.377582823866726 -0.9298428007131534 1.1110518375277383 -0.08055600447719675
Ni 0.22619277891627032 -0.052002524448729444 7.374781262526322 0.5096785214124513 0.005024192687468767 0.44647694905330204
Ni 8.439157166737967 4.806007442133079 12.262012017750717 -1.2892907359704053 2.0997523318090483 -0.9386434297239189
Ni 0.2539818307557797 1.7023839749662661 10.12326156906467 0.01177873780248294 -0.16175478474471497 -0.4500142727825992
Ni 8.429477421860389 2.206803100161138 0.2627359323914208 -0.9790992237461204 1.509753318968974 1.1057016289594184
Ni 0.62059675900155 3.68009037274786 8.667968838728987 0.6247850101710078 -0.6354311770309444 -0.3316396547957321
P 6.673520903572635 0.9995912249138834 10.251428352382014 0.12697161562725873 0.9270269285309132 -1.1413183497217634
P 2.490027355529591 3.0747911852914203 0.4380982920210086 -0.06025637368789623 -3.024053376768366 0.6334203172485027
P 0.19444152246797952 3.7210670187019246 10.923031440513988 0.6649908929659322 -1.254907373394529 -0.8489124436156735
P 1.7173786429301734 5.525224715563743 8.568550615489748 0.7930326017289181 0.8364773031761142 -0.3108597419359033
P 0.09829033071171638 7.052498436986641 2.441853457091721 0.6636017259278895 1.1209963503349596 1.2817376062134958
P 9.064323818899409 0.5346116511026234 13.159329071374017 0.02093649304235104 -2.1788422932636795 -2.586171882693559
P 6.377183368943401 3.0744525353248577 6.40423209432823 0.5405880665071141 -0.5325438560463991 0.5025413961470377
P 7.197101972708836 7.234334655143682 9.434448477770859 -0.08976749577313572 -0.8767808878911675 1.0472000331790996
Ni 4.909775436053944 6.9550330952212445 13.496617853209827 0.4397185472835459 -0.7498023302853732 0.9724781188851767
Ni 5.290784869267324 7.876490247294343 3.2329905764767495 0.5864272363284159 1.0105291601206274 -1.568253372087396
Ni 4.701486892730963 2.838714530823282 3.389464734221313 -0.9625541749032455 -1.9021671676292853 1.000731200193599
Ni 8.555699789953053 5.43457000090366 0.763238006306386 -0.358086536133351 -0.519991216192369 -0.2164578327145498
Ni 5.787217499417429 4.038015166573896 12.829378646174751 -1.6144524963512776 3.3332825250793823 0.43314629338266697
Ni 2.9320784452158657 4.044684689526474 7.452955785224225 -0.7108933119250015 0.6286696899373946 0.2675402532126618
Ni 8.348192022941868 9.186632898489572 9.782709518523292 1.1013592928303226 -0.6163479351472482 -2.3913408842201656
Ni 2.262520426604188 5.845982675559542 5.877826120054286 -0.17702482352990803 0.5772324572030252 1.1265841288353824
Ni 5.33584412870717 8.373487294055385 8.70468790204788 -0.383101827230766 -0.464997890675625 -1.8869606350921762
Ni 7.450355706036507 8.891894544257992 11.772532059553011 1.1424102972343615 2.1318296719595673 3.5368627305003155
Ni 5.816538942355635 3.2799378094801814 10.55176383800539 -1.9871827505397324 0.05813521357983536 -1.5120912230735313
Ni 6.871922749260694 2.8044262217088276 2.4945850196629116 0.5786524774790035 0.5046401876575953 -0.2582714263162261
Ni 3.6817836225806726 0.803450808446982 2.5648840492495326 0.884344302060722 -0.8587114319839664 -1.2958838158068908
Ni 9.008521829964717 5.8644390987372 9.006950870397608 -0.7732407638139714 0.2019012750566136 -0.24929236274606742
Ni 2.686021023677649 4.316799344602973 2.429544471501525 -0.7534687233933669 -1.2347818062892477 0.6623506271296077
Ni 6.745540463128264 6.598651040131772 12.212571004021294 -1.2449446057548623 -1.0753068187176449 -0.05684657667539887
Ni 2.6416390641709278 3.7648469338236463 10.013984869021055 -0.063982930609864 0.08905530019745952 0.4150256725225561
Ni 9.461221579710681 5.066909020538953 2.9546297109058743 0.34519296800013455 -2.1379625243301827 0.8373918445705836
Ni 6.253566724204565 0.37314240635126283 0.09245426295462231 0.8439589562651401 -1.278257103864063 0.6970471500705286
Ni 0.7804611791891448 3.846583866030916 13.306963524296947 0.4548500036083457 0.9104309718454449 0.20871418421338894
Ni 3.305120197271511 8.843561668474708 10.42893925791057 -0.7071202180358144 0.8715319807874022 -1.1125502764501356
Ni 2.64408486948499 1.9120365250990121 4.5603234762524325 0.9815790527451805 -0.13619030601204932 1.1526476586916534
Ni 5.349531231522406 1.3158244450786667 11.882167164144573 -0.08627388079758044 -0.051835753724368785 0.5490961039781252
Ni 8.663493955698605 7.144799366761958 11.30097797291868 2.655054564597886 -1.0485174664389425 -1.327030159502708
P 0.8742691013156656 6.091842551283931 12.451653176942672 -2.711032365515086 0.886789421167105 1.4054493201425602
P 2.069941478952302 9.291623795067467 3.7259821466888394 -0.16846356422345826 0.26330924585044974 -0.2705520434557921
P 5.86602887219134 0.8790384216780878 2.2136899235089276 -0.44488646463773057 -0.43312032524073796 0.10608217377275923
P 9.008136145280577 2.5782832995931897 2.2934203546643146 0.998693343827964 0.9606009078316168 1.702143826321675
P 8.26662441571788 9.062244884382455 5.700935132103409 0.6978516482496949 1.6995120451257828 2.759387359779706
P 3.5665297506272284 4.878196326671989 4.646483553300749 -0.5760631194852724 -1.5217583138496502 -1.286566652171023
P 4.782104398659874 8.161567670535375 6.504545858590157 0.519319386936325 2.2763778630180087 0.8510181771047666
P 6.338200995014648 7.527981803927449 1.4382482893797204 0.8823244434172159 0.3874251371964683 -1.549536769514499
