# total energy = -340864.6971281883 ev
CRYSTAL
PRIMVEC
9.26048097443068 0.00000000000000 0.00000000000000
0.00000000000000 9.26048097443068 0.00000000000000
0.00000000000000 0.00000000000000 13.55364996984128
PRIMCOORD
 96 1
Ni 2.382453213258117 1.4434496980109268 -0.04278620047038521 0.819117471741428 1.247189178814665 0.6600641450882762
Ni 4.018715386648108 7.355776025677102 4.675290899560838 3.6454668993639796 -0.35789550316846747 -2.095582002481443
Ni 4.465098353397881 0.6951417121809524 12.877241526614768 0.7505188967364237 0.17572821620567156 1.5271437465312798
Ni 6.157469781305991 4.192386447752712 12.701924878032383 0.2425756128475242 0.4758839414605095 -0.271503608735784
Ni 0.8568973123533135 0.44509390779137736 1.4634958612813298 -0.31025913223742696 -0.7958852406863648 0.3558537901480904
Ni 3.2842110738309587 4.464163044814562 6.499828838676745 0.420735835533456 -0.13608154834832692 -1.0039833885823097
Ni 2.9594182229126584 2.6074180787489 5.024311020931407 0.2232694563197445 0.09010328184599967 -1.0011706017238629
Ni 6.952991403583428 1.178229521513333 9.413985534541581 -0.6122159152567457 0.9466318472460343 0.7750554484252071
Ni 0.15028093813681048 6.312629140845697 7.3179812244780935 0.2808295141224002 -0.403290386363499 -1.2675852259725138
Ni 5.528349742530135 5.629770530693599 6.238623080702604 -0.7774293479740224 1.6020029577340151 1.818960355792803
Ni 1.0683076117707897 4.506113023848574 9.846780597486363 -2.066728825695176 -0.8662478495703275 1.1179722187966552
Ni 6.59170299695364 6.968928691423943 12.54642380674293 -0.4502055628577988 0.05256363302932883 0.2316049727686334
Ni 2.9175145462837615 5.725672072167381 0.09348455592678803 -1.6342764730557402 1.3823525862240968 -0.4371011642653569
Ni 0.20226094416679105 2.4170040679547826 0.35693412845279177 -0.3943923125429208 1.0623849684496542 -0.2545618386751229
Ni 7.738169068558218 0.3555561688765752 0.21985493206231405 0.007823866919792978 0.6335123627416767 0.17506024360436945
Ni 3.419117761373449 7.867528727967955 9.518619709620014 -0.15681209602745896 -1.090737037229786 0.15796986378098601
Ni 2.3291128425658627 0.3356859547456085 5.899063466745091 0.5852288451449406 0.0792658249108635 0.24602937572407949
Ni 3.776211170099836 8.836063917197366 1.9426850081030438 0.7334848240722723 -2.6019923946655834 -3.9033297773878775
Ni 5.854716875222337 2.1329202916134182 11.42067157909051 0.4498651487992446 0.28699553372379605 -0.06818179918256
Ni 1.0200790266032105 6.7663649295277 9.68270061657724 0.40757461556114966 1.7277427578367017 0.7049545778430634
Ni 2.739648487275756 3.15081384469521 9.27315028704819 -0.1396065307824499 -0.6306162721408043 0.8318868555919545
Ni 1.0732249271939818 9.342343675203649 12.22529718026162 -0.22789667067911074 1.2391979330790723 1.5030694791908952
Ni 7.882206590389347 3.747207343535923 1.719931545480543 -0.37044582902965234 0.84066357334332 -1.2848576398997162
Ni 4.427667489103074 3.4215440074014647 2.9455062022718645 0.8356818038580124 -1.0507802943311904 0.038523352886178815
P 4.616534999566357 5.915604537948303 8.74797266541835 0.7669932402423629 -0.3206582160835639 -1.5313351589048079
P 7.996258674668131 1.3097746544444895 7.650208389561625 -1.1153450655864534 -0.3486680710329286 -2.4271190702610395
P 7.210516120350941 2.459139256609254 13.322262276606063 1.495283150377257 0.2291030322823861 -0.5163407639239753
P 7.497498427252492 4.237059008207474 9.440916865452554 1.6863112301647925 -2.3369435404162076 0.9579429013834794
P 9.030385850983174 7.20879367088067 5.169714463713425 0.108892903748677 -0.12460182984350154 -0.3576803018338679
P 2.1383839754169647 5.379932013175144 4.4597198660197455 0.38852942600424056 -0.038481186794333724 0.515988265680563
P 2.136235543819638 7.943020169267131 0.7742521494639009 -1.252319815173011 -0.14502178826075024 -0.12244930227687299
P 6.32937209053521 9.116128644774767 11.949060735539113 0.3881820699671508 -0.39363229444844466 -0.2505115798651492
Ni 7.70364599530462 5.191416400990732 5.5913821326610185 0.9462050441212608 0.4928995021818995 0.8674202726118739
Ni 8.426398757703632 8.301845287944811 11.169481957390804 -0.916961316764795 -1.3409902212272262 -1.7294119180090088
Ni 6.308313756688998 2.0102189180591887 1.7097931708566056 -1.5202380205503818 0.2912396537121307 -0.4133367148559075
Ni 9.05367596075592 3.36194355153769 11.505869856597952 -1.4902088211781432 0.793944057799594 -0.6928688503231228
Ni 4.014492607301637 7.650898295397837 -0.26919477495264854 3.3607617043362574 0.6583229940274533 1.0695226079357
Ni 5.9726676220117865 1.948034787990008 4.428221265868247 -1.121765110180184 1.517015914068658 -0.7493708991749094
Ni 9.144317549008658 7.762181495850754 13.342497353689335 0.7190182550249811 -0.9673683084624373 0.7992798681902106
Ni 7.674947764614465 5.920558895295588 10.693124665665911 1.6703817034187298 -0.05877207583288588 1.2079731707368357
Ni 0.7025649137689577 6.2184130069180945 1.5977858007876917 0.8189688619787056 -0.04052444247660762 -0.7775129088267643
Ni 5.426993777733829 6.934646390676943 10.385620206769376 0.132138761650495 0.9330052576015351 1.3177435919944596
Ni 8.809995663117732 5.21674381658853 3.3246154785822384 2.5410274249464364 2.4232485315620393 0.5999733504439666
Ni 7.151573158639796 6.854089466258208 3.827604987681063 -0.8283947832782959 -0.3810179481185438 0.4866833460688586
Ni 3.2290186069341127 5.363605785131663 10.417131771594306 -0.04176088598687002 0.18708580731033586 0.8669394763207133
Ni 5.862579023610832 8.794123198644378 3.7141066801674527 0.5814084429575856 -0.3045757086994045 0.09526014345659078
Ni 4.1194786806589425 7.673216054663171 7.351147637261826 1.2381602358431774 0.9592068556975675 -2.0511245434990157
Ni 2.3068321252246196 2.5463822483265663 2.5940598348732795 -1.3597325348317357 -0.609499287656531 -0.2638484061833714
Ni 9.157819330340136 2.744612105104063 3.4610464413011086 1.5529432240928869 -2.128678270814779 0.021126497565970067
Ni 4.037106701959707 0.7976043044595008 3.5286794384042 -1.519738455206144 2.799328676059334 4.120405446192085
Ni 3.176483898090857 5.223059464646189 2.4785557071700954 -0.42858027127853926 1.607105569067903 0.9626436492932584
Ni 4.8310910843873325 0.5656477757963818 6.285966363884389 0.8648982775209686 -1.0054643440032105 -1.7258565965575825
Ni 7.758764378353282 0.7334134281526443 5.018279669641153 0.8278327401272388 -2.3340790743842192 -0.2670538004945466
Ni 6.098999104127017 8.041746157452915 1.1667270780347134 0.7085952599194442 0.27770973754649597 -0.05481643361924753
Ni 3.4612344290658745 2.709125941824077 11.572960189513099 0.4311251491875801 -0.44800984075806066 -0.6397418885911563
Ni 8.652558225246377 3.961781949318945 7.705927777828678 -0.3521514015958387 -0.5921463982003802 0.6446565522839542
P 2.014747293279417 8.865799321762093 8.11713202926843 -0.5602585483528479 -0.5351316713782333 -2.313005027322739
P 0.8700258962995648 5.788985980921362 11.61191347688808 -0.2735376084466773 0.28522558630756684 1.3497409708366626
P 1.3104321485971195 1.9418024842615556 10.942173264153109 0.7930889088881503 0.407165295937873 0.6043426831562559
P 4.1216085912942235 1.8129428908270577 1.643881697175683 -0.4293816841339121 -0.9095020322732724 -2.4569901467888586
P 1.2963562174422194 1.1593288797454702 4.176611218330098 0.8178270350647787 -0.3803921416090868 -1.1541710373147154
P 7.761931462863134 6.4512029788732805 0.7998045947505563 -0.7983573563759413 1.0262046618743552 2.540745117819328
P 7.512324457370252 0.7625080074305821 2.7799213931965094 1.5747330662744687 -1.9087378788682678 0.7911523539870697
P 8.372799093542737 7.229055603358908 8.933509180857675 -0.36045272237268244 2.556738665034106 0.7782587858538532
Ni 0.6421384229979347 3.9796083752881444 5.6972766592066755 1.2987981612402082 2.160529353887105 -1.1285278828253145
Ni 0.32516882644783207 1.826064992436593 6.057830709691342 -0.21863221465804927 -1.2627983461068315 0.09660791573373684
Ni 9.19421302076037 8.777130215967246 6.800855591097718 0.5529998099079056 -0.2592618152539535 0.7143319052929052
Ni 4.548368598756343 0.16693776535280982 10.61642473159324 0.9757830148886936 0.8425163102813426 -0.2925825408932703
Ni 6.139597052931677 8.524837670977703 8.688350910448223 -0.20314723164857273 -1.1139723536086428 -1.1408290687901708
Ni 5.620630435923937 3.74688322670012 8.078517675498887 0.5395459983958449 0.3331272950848521 -2.5083723579155772
Ni 7.422840429245383 2.7715415839188324 6.118551683758896 -1.2752710246525456 0.7103333256564734 0.1206911819351857
Ni 2.250824735997753 2.1854827818997427 7.25942998111422 -0.9807151620829884 1.816840995456955 -0.36005317294141864
Ni 8.442669422860975 5.0665295539150845 13.082877916114427 1.3915411947019 -0.8087106745858071 -1.1233849051717943
Ni 5.478194977309778 4.9202509956763985 4.140667587287579 0.969385338892466 0.8558145700521455 -0.9133034082972336
Ni 1.9290137599688468 8.234225255515152 3.18218001996808 0.5257162916016044 0.0878437963878616 1.1417603223551884
Ni 2.5069696410928457 7.523946361054068 11.827525256545673 -2.1031726703445064 -0.7166541256681787 -1.8305439468653444
Ni 8.266933274488249 1.2601477366424432 11.368910120412671 -0.2130189822363299 0.05859904059013133 0.9578176886595245
Ni 3.9985923613852137 3.8451461908347553 0.34374812952419803 0.7946128017318443 -2.35266455069589 0.474481404686028
Ni 0.3563266408976855 1.4861405155267755 8.853556039801637 1.3870047402841275 0.686268828508102 0.6031715456662902
Ni 5.578893447953454 4.473784684597418 10.21499306577702 -1.1200440137240193 -0.4623000321284877 2.3314148972884947
Ni 1.682620141390932 9.183665332875218 10.124196827491197 -0.43126938807492826 0.6778775191206132 0.38839649997080206
Ni 8.96766461301466 8.091150823710409 3.0090729221577734 -1.698924548053429 0.47073787848319565 0.1766926370014699
Ni 6.884371239203289 5.937542617491697 8.465189986660713 -1.7843391661745076 0.2880813105888071 -2.577910928236347
Ni 2.677381012877368 6.066337387559035 8.067457883013164 -1.8189693546538672 0.5813451938198182 -0.16109092590847093
Ni 1.8003486366358312 3.96655109704577 12.529766979526931 -0.43512038638990225 -0.09638782930313078 0.24604428812241497
Ni 5.8337696671484 5.3698936517462545 1.2907480701347143 0.33989186750219524 -0.6219524258182192 -0.32120328995375647
Ni 3.7543934768097404 0.9182868931507243 8.213647540634032 1.2032706230548438 -0.9420455134269323 1.8051219072478135
Ni 2.2168295101624644 7.40531033866892 5.609340983508846 -4.243305719963447 -2.4661928963340496 1.8885094676365346
P 7.515593407171358 3.8457018196961332 3.9386094476551907 -3.9924079604034723 -1.082151352443304 1.0394921230118805
P 4.69505461816004 2.4636398503864125 9.458861825578849 1.005814014033145 -1.4896133536859895 1.9963299642566392
P 5.122046137647735 6.8171679284196625 2.561517578510493 -1.2500808985401632 0.6468273346830279 2.675275776740767
P 4.8004759341254255 2.7066719143529925 6.307042292644545 -0.03309061190638172 0.5327336034597019 -0.6071804097153672
P 6.075079281644709 7.900023755877524 5.9971782631833594 -0.7749749728962588 -0.4069482948310605 -0.3641700233232696
P 1.6772490623976148 4.153427604089116 1.2205943700971733 -0.8159550148530464 -0.12593597527389278 -0.5189967134895836
P 4.604551937122646 5.578115567547525 12.104412713084097 -0.07312577345139665 0.609081483392822 1.1438251753040172
P 1.4946323766248302 4.348397771546531 7.852646208915955 0.17517491480536282 -0.85131282552705 -2.6113604661440446
