# total energy = -340872.71647254 ev
CRYSTAL
PRIMVEC
9.25633918517810 0.00000000000000 0.00000000000000

0.00000000000000 9.25633918517810 0.00000000000000

0.00000000000000 0.00000000000000 13.54758804261146

PRIMCOORD
 96 1
Ni 3.718752767376327 2.097597528128508 10.762705604729053 0.648483125118896 -0.45416120507143715 -0.03786103671183157
Ni 2.4872894064677404 4.437563040637882 12.796888878954611 -0.49354999128170485 -0.05342623813994024 0.5086817047168207
Ni 9.148780491993604 1.9379441904184107 9.41679316399772 0.09704860281558124 0.2941632551168289 -0.9984945975535967
Ni 6.925417083793953 7.821078972911787 5.623211225275023 0.47705070807510097 0.6468898124898472 -2.3126545859618557
Ni 0.04771365143171597 0.27231316717457765 1.7913302576730756 0.12736010931492905 -0.8635589898842547 0.36826527643856577
Ni 4.6532449992407905 8.301899510211822 8.64857718050729 -0.34220611745766877 -0.4247063901454298 0.11438632276308043
Ni 8.291347283577457 1.4940101646428858 12.146049755361005 0.2957658237172584 2.156726435201247 0.2068557908484115
Ni 1.512846814819141 2.151858188243106 2.340955015164824 0.413631620388507 0.10906285366763797 2.2754198699801136
Ni 4.922808108053027 2.2588336998337595 4.710374198858888 0.13696035140885443 -0.5035353846291909 0.0882322900755319
Ni 4.071872849722251 7.129250928281085 3.643433935688766 -0.4781997340778797 -0.8010104777280721 -0.4601001962636914
Ni 8.60629422325661 5.96846897314443 12.438731496841651 -1.1572175374505231 0.5661060082725605 0.3101316055206272
Ni 6.674542523731525 2.016493484470352 10.476620856162715 0.0207940539272158 0.25740445033024056 -1.5640933271724353
Ni 1.8132427893498566 6.929304746238191 2.5112355558564246 -1.6477907054920913 0.692525350940775 2.3460005084121534
Ni 1.5670889622554334 6.235208898515015 11.680310571442874 -0.12023506823437356 0.172082134812652 -0.34116404934639954
Ni 7.708253454976468 4.976226441304706 3.3605602111745867 1.4197929904587419 -0.5979745748463831 1.4415704913451495
Ni 8.17840143323315 3.9888249748419757 10.288729204598711 0.14735789259309462 -0.8942759593521373 -0.14486829340202148
Ni 6.514824391647356 4.489241182128807 12.055606065497521 -0.027082200928772716 0.7452031409504649 0.306632077007801
Ni 5.202460626541979 3.8781376712509887 9.961460226239149 0.6264096902586244 0.6127095670637125 -1.1939979395036664
Ni 2.88819996786035 4.5891726196240645 10.177056100887935 -0.3455488086776565 -0.21528566678331956 -0.19431163563481374
Ni 2.4590483157120873 7.707374102756939 7.382920902767703 -0.571737495526725 1.8904789326580795 -0.5138398518789925
Ni 8.985359824248256 6.911273397568244 3.94360775807981 -0.20873115349425342 0.7747705701949366 -0.9197098260442096
Ni 7.576221033298777 7.799085911084375 0.6439385227550807 -0.0607004032038503 0.8981601248978919 -0.07546290622500551
Ni 9.2220073910326 8.643449168616556 12.371616558545348 -0.05671287931101201 -0.5734963871993607 -0.6888278474845299
Ni 5.470163211184472 9.061206267267535 3.5351884543663274 0.7121870910357605 1.0943314394492636 -0.47137808317035595
P 7.4368668473511015 3.406295782929317 0.2640666946232137 -0.7814677797094541 -0.01744544916995705 -0.8923296342590438
P 9.079237615937485 6.543898552926776 1.5700435857130552 -0.17653579970863142 0.0017599201139001947 0.8115728266249508
P 7.832482782748222 9.016498149158783 3.696350575358356 0.5886322143995346 -1.8702489787644498 0.06805195847291506
P 4.768495678034181 6.019267762415825 8.97510102356504 -1.1871994285245941 -0.13557452680492135 -0.24720257009657426
P 0.5117515202135349 4.123467684160799 11.779194191346017 -0.004241291774857211 -0.004453922006295555 0.03727302541884549
P 7.365148731594037 5.881533435819915 6.269797061027847 -1.5595962106330301 -0.8506420247122706 -2.612845535330003
P 9.151733264183395 2.911516686186633 4.368690323536435 -0.3462568904882746 0.747458769753861 -0.38903233378258806
P 3.6883271805805777 3.853469527408375 5.6083760905145885 0.8974065345613189 -0.667913723039682 0.8180350373105266
Ni 0.8546970345625349 4.452567566404815 5.745071855857537 -1.8222310561242745 -1.5521590376286947 -0.06497769042296551
Ni 9.212436336348446 8.677021910724308 7.995948806555419 1.1013844896413032 -0.006407703298556706 -0.5902072721961383
Ni 4.238125957248402 0.06970023382172023 13.162511498594425 1.9702049850348131 -0.48991419430133043 0.5977048661247643
Ni 3.2680431013408424 0.9475066447135123 7.053239722424881 -0.825269864496069 0.13200532139642426 0.6400074835477172
Ni 9.096426637744514 6.123975470914005 10.030661543380527 0.49288073312882213 1.5758826064978795 0.4829876423848263
Ni 3.7345070566146497 3.2103853647571112 7.732543014547727 -1.1388413489361806 0.05079934204005444 0.34971399579893964
Ni 2.519945770999351 0.3557063035052581 9.450445510622188 1.210652774451528 0.7234194694164703 -2.221619793440522
Ni 7.048637470598035 1.665326489685701 3.6909726423104914 1.0728290466011134 0.3736291118536404 0.3910838169949781
Ni 3.296543369592778 2.168278933900441 13.221591934505964 -0.7290542991047445 -0.06038621439754116 0.34105786278583844
Ni 0.2062330875955765 4.569688025707103 0.6880736734702658 -0.03555321451426135 0.4873621173034381 -0.5222656140488424
Ni 6.930193354796875 1.0155499938268544 6.027335587621537 0.0342406663504249 0.5490583087616544 0.21195454552755752
Ni 0.7670450565875816 2.2273528903745734 0.21610312203436802 0.12700478285803934 0.1557746559018801 -1.7386951430831474
Ni 1.4056306384105108 4.761645987060999 3.094865326494369 -2.526682469078674 -0.9584784621719751 -0.4214999673929902
Ni 6.238902177837043 3.361189642236987 2.5200272267838972 -1.2529073122453647 0.9198226974729901 -0.44903931046383955
Ni 6.984268888128414 3.5739465976675637 5.341380690183382 1.0031354387597176 -0.5262798774145582 -0.10213193087575959
Ni 5.571381279821989 6.775103392289183 13.346446990804457 -0.617789295579465 0.5986188932986013 -0.1120990693908005
Ni 8.406338784874565 5.483658953669474 7.87322178262819 1.2895025948708954 -1.8985012887419241 2.3120179808191215
Ni 6.850912809951851 7.440643433725505 7.913091612261695 -0.029981891074070947 0.07669035087420341 0.4791399865039619
Ni 5.762496914312967 4.350646015991673 7.357302132894081 0.5898048945513972 0.9777766482799547 0.23522945689509808
Ni 3.8099739897286584 9.206188307420206 5.054266636703235 -1.2398016281013422 -0.9661910003248843 -0.3891526614105362
Ni 5.508669582060747 5.37169427527538 5.008963335986947 0.30271731533442703 -0.8977988849037313 -1.437464439596576
Ni 3.369751755953467 5.929721937450178 1.1917416327015287 -0.07688035539782243 0.6189514342083662 -0.4984147755731738
Ni 4.5282751643368 3.988186287440422 0.8381300387465834 0.17523739261218207 -1.8725454881081105 -2.174272928725443
Ni 7.71613059959563 9.262263210008781 9.629923149896161 -0.5555524011264303 -1.1502218228589802 1.3916741207353385
P 2.1401952009103877 2.5571655107333666 9.354636846585656 -0.09157780950899712 -0.25468602295781295 0.13708864945660262
P 5.362511986835653 8.983369711330372 6.660793157553731 -0.8062982084895727 0.2515235660694314 0.9247985534210266
P 1.3373188554617332 6.182253382220984 8.455700064675508 -0.5552127583988244 -0.6442734579129227 -0.4047929390509545
P 5.09245829204831 5.288128045402539 2.3350078172590534 1.2487053583488752 1.8880831787323933 2.387494256780566
P 5.463517159672653 8.6473553437391 1.3630635115478356 1.504039042193016 -0.880097096748594 -0.6371702712092381
P 7.118328448080602 2.8031990054188016 8.12741474027695 -0.02970189793980691 -0.6223288353210314 0.7881433919574169
P 1.686634582415794 0.26279117108793704 0.23064945901323036 0.6006225539921914 0.060580846906850505 -0.3730894373000865
P 3.3212670514703104 1.1184527161902094 2.9741969123947554 0.949127102864062 -0.4750527038084657 0.5080085899091961
Ni 3.16191917295226 5.572482784181191 7.282831181872931 0.6883915312780596 -1.8108017312414104 0.9246777115724463
Ni 6.491378084572932 9.394721423287509 12.015098474096378 0.4315843482121857 -2.510892553234269 0.5352779671481105
Ni 8.43308034868744 2.784251279172711 1.9534670711779096 1.160360196844563 -0.36605284216827927 2.1922979045479534
Ni 2.421430553394495 1.8903573508330902 4.77021365458097 -1.2137059594555548 0.7374988303276718 0.7536610419098311
Ni 2.5529168510621623 5.436210959171448 4.858733877168469 2.008585898805857 1.9330214340059808 -0.3063914217519046
Ni 0.2972534473882885 6.703329738497202 6.226268200527181 0.39521043756884194 0.8434527060526829 0.3961478617814468
Ni 4.9979880946532935 7.28306351598567 10.946098675464723 0.2399158066271739 0.5786465639417325 0.4163621319457926
Ni 6.541723313225832 7.0575605815414795 2.9968073720436683 0.11570838400861364 0.3140689929018204 -0.023017286830779714
Ni 1.3523604065852786 1.5344233413846695 11.349166889513887 -1.7202328226129018 2.5242170382573175 -0.15223450395910557
Ni 5.839509656065519 2.2949889605651856 12.666940984854163 -0.7380804138627548 -0.14570287348817487 1.4076630399644274
Ni 7.241659910954519 1.057055418588686 0.9764095637186014 -0.5257859684972751 -0.3526445391821733 -0.9826378330269979
Ni 3.2564911900779596 8.384327210368848 1.619262317891041 0.46165751344848227 1.8662002626163732 0.08231129660540663
Ni 6.707670961559936 5.813156858497067 9.753585989711754 0.4412023309179241 0.5360212730720382 0.6338604901097149
Ni 7.005243752649 5.485658322926511 1.2376752901141321 0.46046837823638764 -1.2496281272734608 -1.5693021250668844
Ni 5.018842626764892 1.5115139019811161 1.5912045026506163 -1.2716730228886421 0.22719398818513128 0.2354189471980849
Ni 5.10754612486762 1.4413415948625954 8.435947962557025 1.696033342548563 -0.17640158812361234 0.36782176114324394
Ni 1.3444832619661171 3.9601210671286746 8.052035742384895 -1.0505519803704682 0.6757471030411717 -0.17393152931656497
Ni 2.604872682727676 9.110283377456481 11.690742465668247 0.46130912897012816 -3.1514433108799658 0.7113355416687427
Ni 0.534678546661479 9.06852803153752 5.038144870800541 -0.997337858241334 -0.39213771218078913 -1.2590818164871929
Ni 4.426733123828929 7.022238391333818 5.998695548648391 -0.08987033989958716 1.7512063881762807 1.108150604720543
Ni 3.6609839547227607 3.838122517092782 3.2641832079140616 0.30690075728815536 -0.3616413433641449 -0.3347445189733009
Ni 2.7402373865004295 7.13209262440104 9.93208893647292 0.20477756816314413 0.14896354651731766 -1.0918025023798228
Ni 1.503229478439225 7.299558312356227 0.1796340714056568 -0.1839107520164639 0.30630940356105957 0.34612910666115876
Ni 8.858853437044877 2.413747791897546 6.610708032031029 -0.031092093419114192 0.32187511920980044 0.4846853418022234
P 1.092497941205335 0.9025226876980015 6.675126598732075 1.1699977199343268 0.24135382462528113 1.5527444778185193
P 0.7983314829245557 8.761856259061103 10.202674870761557 -1.8027192113435921 -0.5543334411176646 0.2536167011530342
P 3.5008492873767105 6.789247078514891 12.641498085424448 -0.5124614834742272 0.3161960665471522 -0.5045771956301439
P 4.326949787760118 3.8650677203670223 11.933488108686555 1.0541841778064167 -0.4820047096462666 0.15743018922743207
P 2.2043323749011847 3.9193191241424676 1.3446424709995481 1.0178089816114921 -0.7275520035276051 -0.6397855973448981
P 5.0585152963744395 0.3287324055796439 10.512698363645256 -0.858528883659515 0.09622225025954396 -0.9706904308571346
P 2.0637008141504016 7.524468841094628 5.0118078090086495 0.6582569166762082 0.25180664452748897 -0.4489346665651752
P 7.398110555317695 7.43730189529129 11.191920199983556 -0.3590265314491171 -0.3055432148189964 0.2133920493050325
