# total energy = -340896.61708692316 ev
CRYSTAL
PRIMVEC
9.03602874949718 0.00000000000000 0.00000000000000

0.00000000000000 9.03602874949718 0.00000000000000

0.00000000000000 0.00000000000000 13.22514145067877

PRIMCOORD
 96 1
Ni 6.378912329611658 1.9245838002045312 11.206535478659564 0.041308114720167564 0.06677334887080758 1.1839994335300577
Ni 4.744909147497071 0.18910239887863442 6.039935644215664 -0.6979264673516883 0.6872882709115519 -0.0008875448112758909
Ni 2.8104128235645516 1.462381884789432 4.878305331671349 0.5375294821864484 0.08698067705661794 -0.5316671098684004
Ni 3.4450763869945984 4.360606837422896 4.893606943048722 0.6458906818013714 -0.16540497990279254 -0.4969348485935377
Ni 5.071841709942258 4.329170492801498 2.8687449082737886 0.6878426007531251 0.48461335091370733 -0.8746823534909258
Ni 7.403082955775244 6.158650088596654 2.4459635726360136 -0.7795723624589542 0.26861548855471157 0.39258611257211745
Ni 5.013450891045025 4.522315611020062 11.392388521537665 -0.7170755294763134 0.7440145199590026 0.6907916560791199
Ni 5.686571793569257 7.854215735760273 12.23460515130321 -0.4653686437514824 0.48346149669745125 0.05555613999874948
Ni 1.8853583986519329 6.581707926719457 0.37707619774484785 -0.23024640185820994 -0.04250727723459131 0.3502675543095645
Ni 2.6414932988872266 1.7182370437301864 0.36160741983241 0.42750143639206367 -0.7914786269782369 -0.03455228405357275
Ni 0.4749933179577985 0.17518058911772957 4.809362238198414 0.4283504146559204 -0.7287727633085836 0.2189299484041262
Ni 8.664078863968788 2.166921059877217 1.3136868000464592 0.29420722098088686 0.5196289477569437 0.17899968786809176
Ni 6.893107555446857 0.8585727457181739 4.94331955976878 0.01776092352784683 -0.9713640598853917 -1.3962905364614273
Ni 0.5670126220930296 7.697811111140619 2.5916776714374516 0.837352506692216 -1.0866348421359544 -0.15341952540614223
Ni 7.835872597047587 3.7969574252948233 3.785114805788987 -0.41823800881226675 -0.20721394551877861 -0.5117431172509638
Ni 7.468585129434489 3.673958999601673 12.748428092746803 0.06250197518896332 0.002822557050459655 -0.26603718630457407
Ni 7.877311825686198 8.926033342432234 6.954546226899651 -0.20230133870850966 -0.5420823916644535 0.06096342705724985
Ni 6.746904607480711 0.8729056947950528 0.2680031962241714 -0.15324597594275544 -0.460489204171994 0.16339591989256375
Ni 1.8893161793199906 6.428294227673153 9.155553898681237 0.23506722028562096 0.5534788064268532 0.02335075891079849
Ni 9.13217227024136 4.786095367325854 1.3579705705898764 -0.05027252300230697 -0.2571591670886539 0.5083628879248212
Ni 6.370183525672518 1.971986807931997 6.994671616932931 0.4710137578524017 0.5200925176569237 0.9024163290710844
Ni 3.5118345686740717 4.490355176721159 0.4928973056648517 -0.46649144450201596 -0.18146666135134554 0.15355322277052907
Ni 6.1983363276242995 5.525694334632961 4.673262474170523 -0.6892466801895033 0.8246193753962636 -0.03088717649715971
Ni 5.238655839880639 2.9547091694280483 9.261976632918943 0.2526134566995004 0.010292897285575822 -0.32649821980410865
P 0.15214955860004656 5.465442093777692 12.522490321965572 -0.12795737657929576 0.6098553854443691 -0.4629119546808737
P 3.9268322689980004 6.2705613068018895 12.567746369221052 0.1947708346594194 -0.21475036310513984 -0.34740617360136944
P 2.5511059015754003 8.568631290460356 1.4915583185773111 -1.450490419542599 0.14476750615809905 -0.9220999235429409
P 6.330994268235609 7.728108916117781 5.629916795828037 0.33482293761972015 0.1118545574801622 0.48154088263597067
P 4.711692705177939 1.3059320800251648 12.56553796375239 -0.34077709832062597 -1.5141252227844246 -1.1489997775264214
P 3.924094352234481 6.0533622795916155 8.18843946994303 0.6254658382881164 0.8201669960518648 -0.437145387239731
P 4.717385403399119 1.0259507238613197 3.7234059570714093 0.19484951041615473 0.4201681359554441 0.6312341082304612
P 0.10038214890301027 5.532652076903291 3.624839146378931 1.6657406051022925 0.8535851665009945 0.049931594723120455
Ni 1.502176556164148 1.1387655449588057 2.6966465086215257 -0.09543086470650015 -0.14487266427739565 -0.5708746333057975
Ni 1.8541298826957524 6.445670511291132 4.838550418823893 -0.7166204442167659 -0.33145787780222913 0.9451820021733851
Ni 5.991935354976421 5.530890051263402 8.912846161822728 0.008259411795314808 -0.3167221142539513 1.4754681725338588
Ni 8.596019494124473 2.5681478521232464 10.304461482502662 0.32212065956170327 -0.3467981077037253 -0.15120503425332668
Ni 2.3981620760330653 5.062679176614837 6.958646776824684 0.0871277441574435 1.6049365864410425 0.5660921243154896
Ni 0.586861163224206 8.950213755828859 9.135345723598945 -0.810033764272605 0.7869252032795996 -0.16591251566683038
Ni 1.3469014351598065 1.0408511355545318 11.481909363675824 0.8633067646641326 0.5895912358786943 -1.3779081772994979
Ni 4.0791887526603725 6.834183610843196 1.6384760164312266 -0.03536989485886167 0.4808669964973977 -0.017543665310718173
Ni 5.51963115922596 7.730060698365042 8.028798139763333 -0.09685988384354287 0.7652065806555854 -0.36698640972614216
Ni 5.266143439862902 2.80005753441936 4.925241176703522 -0.004937803621249561 -0.09133869691499755 -0.20587980008838735
Ni 0.8619585457554368 7.683985986889185 7.056049746991944 0.3016269104837257 -1.2766547923739497 -0.42003649547358624
Ni 5.021041155339929 4.4209675106252355 6.917820190947018 1.1182604394610356 0.9112084734414178 -0.31853551331360624
Ni 8.162949735955532 7.037259324847593 9.162060743108333 -0.07328441051644798 0.28839421384353553 -0.17815688025182222
Ni 4.564730730782304 0.413272722402622 10.414481459854418 -0.03579772642489964 -0.5849123423457862 0.1745660775767703
Ni 8.323375393445701 7.173531677027904 4.8186991668840395 -0.2676402691256358 -0.025655238674259038 -0.1133959338253531
Ni 7.197694018366685 6.099906864571444 6.794297675576361 0.7663108694633577 -0.5623735378133218 1.1273739717265292
Ni 2.2470796724487667 5.333507035480183 2.7011157285265974 0.03431265723894091 0.19001377959040824 -0.9522471365502828
Ni 2.3693552158281164 5.17090369501969 11.348097522171111 0.40393367637445265 0.3107522698237616 1.0683743532638696
Ni 1.3581241830815587 3.412862943885865 3.83808129652404 -1.1454010044315694 -0.3864992829480892 -0.5472518516805349
Ni 3.5109490378396666 2.646345646418612 2.7221570254755445 -0.3070398539691809 -0.15751632118333517 0.13538735049477973
Ni 1.1099677207827794 3.3280598124481475 8.04240730292352 -0.042620148663371764 -0.18395677476305092 0.8125855841601812
Ni 3.5743909969045804 2.7407179324852637 7.311982615781432 -0.11715102999241114 -0.9281337884418467 -0.6515633067061166
Ni 4.198012532991325 6.854117090646243 5.965993819542799 -0.21029952642263783 -0.6088038042514031 -0.10510129791672866
Ni 0.854999899882215 7.2285159130213525 11.413442468927105 -0.22490030705494815 0.45700330250592264 -0.191117039956916
P 0.24664834907161323 5.623581635950468 7.97952105963734 -0.0459911220181337 -0.6427166549487641 -0.86761644778308
P 8.633302149458732 1.643924741871498 8.029340301498683 -0.4807520681860882 0.007712538152909299 0.8645915449138271
P 1.7432758798744503 3.2434554736467245 10.462660662466327 -1.4101467256182296 -0.5554400439182822 -1.3894840550625556
P 4.096438531873436 6.066283800950799 3.7964360464259945 -0.17427374314733213 0.8210918218589794 -0.3702062022150205
P 6.811548358392318 3.9879067884852177 10.522676159363826 1.4046944442544067 0.11662138274118625 -1.5710376197007525
P 6.311196328866399 7.661423022669688 10.096536131775556 -0.5673568499605262 -0.20012772809595858 0.13422906852062044
P 2.461703431416127 8.482373358366116 5.709875712160399 -0.037945883116154 -0.29899872883225925 1.2824570008780236
P 6.879770376757238 4.127007417718274 1.5815553594396856 -0.39050531878368877 -0.8290771540573011 0.32284493932223757
Ni 5.019450814249568 2.743519101451241 0.7853646465938156 1.300422841327825 1.5169048424120908 0.13153198130443156
Ni 1.5945428438100033 1.0761277924679948 6.991219853884533 -0.10526867673252839 0.0039394442637222474 0.24873931845607483
Ni 6.874538516011107 0.6502335448664166 9.29511897980091 -0.008222130799476163 0.2102064524881993 -1.7122603459303865
Ni 2.719438084372762 1.5260497445774086 9.228596638476311 -0.7211818383352031 1.0939414030996966 0.6453278673193661
Ni 6.5012963053380775 1.961197789398525 2.6759088222443745 -0.4631014449838606 0.9480536672942254 -0.1282096017994179
Ni 4.121820737116755 6.85305987526231 10.38565110597427 0.14575455266171672 0.3219658791513939 -0.42254949170342715
Ni 8.118356933222966 7.229103254901316 0.27383956730521797 -0.1986521719916966 -0.007540274241103142 0.044629722894232816
Ni 7.801065813638094 3.851480823813224 8.21975653898265 -0.8597992657315062 0.06311055530723969 -0.32703300926165607
Ni 3.201564443561987 8.38444991293292 12.398861181453633 -0.1272662640495421 0.6607367456752685 0.3248578559872083
Ni 9.220363912525018 5.046170351773418 10.295746232606907 -0.6083399772411071 -0.9269860479906487 -0.39805407766522416
Ni 8.810254703848166 2.281579230874894 5.832975341377481 -0.605410719409454 0.7550823477373899 0.12345254673040675
Ni 3.5572948301831993 2.7011491618336105 11.284947426840395 0.7884233850916809 -0.5275554016928721 0.7763191456289792
Ni 0.9549907887328808 3.3565233035540407 12.487509143197876 -0.27354866419027085 0.04484209601535503 0.7958145353494294
Ni 3.0629156157750566 8.469000035560807 8.316577588887302 1.125122199577875 -1.1258040561362483 -1.7448673333321305
Ni 5.473167898506435 8.001710835862339 3.4798786523896297 0.2613500652415499 -0.4942958683087939 0.6035307287779218
Ni 2.8774059419960105 8.081173674206854 3.6050285565692293 1.264534869181964 0.6235449671163197 -0.7077277697128262
Ni 3.2146847575574657 4.288671011170827 9.221627149368384 0.6428452101068283 -0.426062389952692 0.03902703199547472
Ni 7.179865933302581 6.02251327685018 11.439350571053714 0.3078952599909407 -0.511503490436332 -0.33588968832133764
Ni 0.6669529091817292 -0.038902815320064635 0.21706981199668243 0.36669664639986527 -0.7321699619155906 1.4404335495272291
Ni 4.619868579267434 0.5130277708984103 1.5453443771356352 -0.4243963151041788 -1.2902546425455714 0.14481224335310544
Ni 5.933201166980132 5.7299808765129745 0.3368017132343468 -0.2476337440967219 -0.2898139770091976 0.19034390923631736
Ni 7.949834993818231 8.644009843731903 11.171131413738294 0.49579662122403645 0.4495974969601548 1.0165895073820943
Ni 0.30596807174207996 4.707626492162812 5.847390518317555 -1.6257270408238325 0.5921787941002123 -0.11388392920536516
Ni 7.619450668324649 8.8718984931575 2.4392055266048716 0.25808862088145873 -0.14425302841552576 0.028190860611919187
P 8.569444533063383 1.6720267918204914 3.599050319834099 -0.33611723095111146 -0.06718729647977462 -0.5329148662325726
P 1.8111454931113922 3.365984025835904 1.4667083354375279 -0.05332493667538558 -0.007360554130129258 0.4607033770653291
P 4.768565471216192 1.0467064822963157 8.220998992959496 -0.06877495268186866 -0.43181523327606924 -0.07595038738438534
P 8.507114005555938 1.4396020558757945 12.381522849157127 -1.0168602445449777 1.0090687735250172 -0.36186631489075743
P 6.1011267284759825 7.8164632069220445 1.1814562636031847 1.134812944503078 -0.09259005282359538 0.9198440376292287
P 1.9300867418183372 3.2086938703818446 5.918964903412724 -0.36176424209525443 -1.161852208009057 0.56598516642398
P 7.032940103022635 3.8566584683858194 5.886563510902403 -0.26904254878980116 0.38959514826459357 0.9350611116892993
P 2.2970760204769918 8.49536716795668 10.283883733837442 1.0977142398785675 -0.3536249008175716 0.9452046278812045
