# total energy = -340862.8769236188 ev
CRYSTAL
PRIMVEC
9.35885475893843 0.00000000000000 0.00000000000000
0.00000000000000 9.35885475893843 0.00000000000000
0.00000000000000 0.00000000000000 13.69762994724546
PRIMCOORD
 96 1
Ni 7.277201957610469 2.277524045806953 12.247790677742652 1.3803607526050485 0.17589893745558094 -1.8288871279882115
Ni 9.119679650273511 2.3113843815211546 2.2452191517167703 -2.3984276158636177 -1.0192184603645094 -0.5895410993670491
Ni 4.928756512123521 6.8358851719268925 4.34842236526462 -0.7684045187675926 -0.3075797856330509 0.8716795621088601
Ni 2.026491490565927 0.6418143340821555 9.088199271268023 -1.3323793396297634 1.7350732300598442 2.452599988140963
Ni 3.588839949232981 1.8889444054383362 11.00581265580899 -1.3847617098862217 -0.08233597919575497 -0.41622174971318643
Ni 9.160942839926335 4.25550859330856 11.438246952651673 -0.3371988940510644 -0.8512477766170695 0.5869157459290602
Ni 8.590352196525712 9.213099736260013 2.1264880436354487 0.7375178564910654 -0.13962272873236597 -1.1750057146718795
Ni 8.05942437865212 2.4328155191363474 6.185014274309459 -0.5489184407496804 -0.2802687565229237 0.02580513398856201
Ni 5.264673878013472 5.552009430002808 6.5032368539266505 1.1564215239117892 0.6957114619782405 0.004282172315121658
Ni 5.3205836750164135 2.50797647992152 9.61169522275393 -0.5622521817441091 0.8922157343889988 1.2749984877174494
Ni 0.33167967655568026 6.978663856740562 11.63127332747351 1.3382396550652822 0.008939211471158798 -0.52799917409851
Ni 0.23706165718846656 5.424981697374601 6.242940904465084 -1.6101669816020463 -2.1567493180193824 -2.779050385426272
Ni 1.6300597712409213 1.9209516879542483 12.557260856597013 0.022399193630806582 0.5822579354420747 -1.0687674749372302
Ni 5.214182857787348 4.527954207729822 1.501178049528969 0.9925743754144196 0.6300807113523084 1.445122727472782
Ni 5.230392393845113 0.11869928797589596 4.861699383481778 0.483377164513761 0.18473659035186893 1.4671773932799763
Ni 7.779491680601404 7.021911123555191 7.633730328846851 -1.0690816637435394 0.27311954707265224 -0.8855668616139135
Ni 7.686483384214523 8.859690671240752 11.60715181579032 0.4675124295673626 -1.8340180214568738 0.7737925225523835
Ni 5.661536104647171 7.354431225248278 0.4723076965967907 -0.5202154163880331 0.3967389583982264 -1.9969958799754124
Ni 3.492331441249331 6.070358947378922 0.608088765873284 0.7442397485959311 1.51180840172579 0.5917525051960711
Ni 3.2206064586274037 4.797592165790039 4.970677629250282 -0.18589667209824112 -0.48255364017120117 0.9931497883019155
Ni 9.300464643361193 7.732641254790102 5.847134356623138 0.12772520596383163 0.7310857277124764 -0.5851141739439472
Ni 5.6988592165399945 5.48791999413469 10.432936580130475 -0.7172174543708164 0.06644579032805975 2.1467603251274707
Ni 7.007666946950157 1.8589212000842295 8.326611252709144 1.815609179932383 -0.5005572758374734 0.4504331054875726
Ni 0.9457216097998332 8.148979257714917 13.656167261570005 1.1937909656991827 -0.3796709471723461 -0.28995641612433287
P 4.837460886116877 4.424005410389403 3.598833334107394 0.16248960602821047 0.7650983372124953 1.5812248446463995
P 5.322801723541638 2.829499927533847 11.938662097078884 -0.5134277040422384 -0.8685237900886978 -0.9852266768000967
P 6.947648612805554 9.08196346649014 0.12330852383527806 -0.6489657211822695 1.5745428046405334 0.4610859572157285
P 9.132950506006717 5.43950663961574 13.533176002903524 0.5985049934285563 -1.0721183936873342 -0.9720510586500872
P 5.120837642637141 1.9514615537442699 7.511889273402946 -1.0634584040194912 -1.3097140368217637 -1.5221704616864042
P 7.59647928013396 4.766876405200208 7.045854817002183 0.07442083811373634 -0.4166611512434502 -1.7256701915783894
P 1.549283497733659 9.24982388146248 5.490530178665008 0.6283411029533824 -1.972157994996126 -0.3865103386916827
P 3.684908591053402 5.865952205440315 11.539458285040073 0.40838914104264507 0.3932836528597743 -0.8192102885655504
Ni 5.228296010428867 7.393233036157918 11.7594147637916 -0.3390349188185387 1.0300464042179487 -0.049182632372237876
Ni 2.4320293753552544 8.050870385605469 7.997497774067459 -1.1792922578623752 -2.8978919157472283 -1.478169630625422
Ni 0.05225703607722168 3.241205297462937 0.16257734158630596 -0.20442275592688663 0.7514090126508608 -0.3105787203603748
Ni 1.4504071995521939 5.077768194058712 9.967587191881808 -0.5705367903504045 1.7794116469659031 0.6571369441391522
Ni 6.205538242308697 9.195916879330417 7.189652681074913 1.0545703575012417 0.5224643603232099 0.20975085300801943
Ni 7.564219308545554 6.048487304326382 11.719966256033466 -1.1729074373819544 -0.18718479478204536 0.9367816939248317
Ni 2.312835003974361 8.433525871052282 2.3674027412367225 0.13152298244336705 0.43240992943727463 -0.21085925558084975
Ni 4.542656968207161 4.3275343378238995 13.09912543188233 -1.1568604112214207 0.4390392618283342 -1.221959714823915
Ni 1.197998892694256 1.6529515294379742 6.51130512242284 -1.2450011700244108 1.4439449051145972 1.7849685722283906
Ni 0.08194613032436432 1.2425096048713544 4.427169639108301 -0.9934022706323535 -1.0673489973231487 -0.11039648487739696
Ni 5.627376285587791 3.4250132005660103 5.48551757617509 1.1371073969642094 -0.7030799865281697 -1.0804690796448748
Ni 7.212831756106246 5.711474952455624 4.365749348554082 0.11576957626385223 -0.08395371730483606 0.05419294110263571
Ni 6.160044850405233 1.8645833070790032 0.5227041923920933 -0.7945845195970702 -1.3135292968027958 0.1330926409233321
Ni 3.206989325276336 2.227772375089237 5.3085304062584475 1.1266080400947824 0.07741437352442151 0.08949110218329749
Ni 8.081239868577438 7.280795757752607 13.547627010193821 -0.13331169891267364 0.5029761696916112 1.4828585514606591
Ni 3.675222176607797 4.260796346121862 9.958368720163044 0.128503736001069 -0.474595304556073 0.08201484841091038
Ni 3.8544348821332943 0.8904004847472577 1.1911294934642325 -1.0853071244634664 1.2966949988542764 -0.44152474725434926
Ni 1.3299868182269772 6.160381769168558 1.260799614292655 -1.5337339981542875 -0.28734983173942125 0.3084547320388365
Ni 8.085657247918816 5.300115860144396 1.905778177093708 0.40366268210125317 -1.1738841994729268 -0.2992136730565428
Ni 5.389399332425624 9.341905651250217 2.5485265248586377 1.7752066077456201 -1.7390147312060953 -0.6436237401440658
Ni 8.821562697857763 1.3150500863862185 10.481206744175013 0.22543483940217948 0.9777576221165613 -1.4956924700005338
Ni 8.803004089311255 0.7822916765652231 13.208103677650834 -0.3195744961010819 0.6105984342579807 1.9986552699557063
Ni 6.226951301488933 4.514224768124313 8.613562155777018 0.02638234664827069 -0.9086111450278868 -1.58174549303656
Ni 0.7693858161589534 4.27153095227559 2.7226508211724676 0.011576134873373613 1.9300119577556951 0.22866054542832878
P 4.008640728336418 9.144780098141254 9.606216549308078 -0.15166449038824847 0.1734967557719915 0.31596878102769455
P 1.3803468144895865 3.532471568357736 5.243836388387249 -0.7745330002628339 0.08777000572713271 -0.7048633036808377
P 2.9512586250578283 2.8946749905282365 0.3546163572545099 -0.35148805698022695 0.2532922279340799 0.39373848100900577
P 3.3770771476284374 8.417101081340169 0.13959761015660696 -0.3654923416791189 -0.44391458764276454 -0.0774943348327375
P 6.5365796449849665 7.2621903549334155 5.706638296430997 0.8692149026184515 2.0806017270225268 1.4797220627142063
P 6.818945645215254 7.440364227605326 10.003734831644808 0.5075920711970678 0.34877528603475416 0.019540641136088926
P 1.1892202871387219 6.047682442836215 7.799621640824643 1.8889329283271985 1.8444397310108298 3.754378057945102
P 4.9160191110989135 6.90515005435387 2.316515841463691 -1.6023377153656146 -0.3892488206687683 -0.4147629057794728
Ni 2.541359514054344 7.120019995664637 5.460025928187709 -0.8012786437877942 0.9270886350067841 0.772464033548947
Ni 6.180615612677155 0.3054421278617155 10.263551607754088 -1.872577884007943 -0.0589826491817952 -1.5127435119455495
Ni 1.357174290656429 0.7343153805531415 0.9018575944712284 0.5459981817790919 2.176576380047639 1.3812480403060083
Ni 8.387293129640408 5.985062347130376 9.606928758138329 0.941822598782849 -1.1101768911219523 -0.33211736576309897
Ni 3.145417421278621 0.524472080014098 7.219582297883651 2.9359516987334273 1.8870362255251178 -2.525541927716328
Ni 3.3613261954429747 5.740131765047355 8.065178202421354 -0.7264813961712456 0.20525733601304008 -0.4198346638754254
Ni 4.494009642324789 7.851030764680829 6.6169965384780145 -0.9347142698728419 -0.5412221005466873 -0.6896354309874898
Ni 5.101708143963887 0.6429898062119797 12.536180036752834 0.03796105262480559 -1.2011723457649186 -0.1509150138167336
Ni 4.097858688635888 3.7409962062925426 7.172695372539654 -1.316338998337449 -0.9059053160609495 1.0794768909349346
Ni 7.047451437586163 7.2921012540330805 2.3255976739062176 0.36753688291297343 0.4614148013100569 0.5806162860735936
Ni 1.8383691555213806 3.811552610645601 8.201743543708034 0.3306976025974369 -0.9086761939378674 -1.5673557999737908
Ni 3.0020023343564466 4.10670280617318 2.3572933065660537 0.4829380200938134 -0.14562651172428467 -1.1915533346179157
Ni 5.043926576053583 7.088667832966303 8.74456646569792 0.7542685935868428 1.4254224208303774 0.4253728200848351
Ni 0.2650577346498991 8.192872285492586 9.181452769643768 -0.5809479583813995 -0.006769457513349632 0.13416736204474958
Ni 7.5272799096887395 8.755086754082756 4.163956534687608 -0.0953753288782164 -0.6984993091360229 1.0626834735266795
Ni 2.752878985440931 6.31862128167705 3.2747333938410814 0.13651786455479714 0.23506902005783387 -0.9604204163896942
Ni 9.177470577038353 2.7076476414644977 8.281477240819893 0.4269761600162131 0.1298067710832087 1.4614631165040186
Ni 2.9013384949584498 9.019474394747817 11.72947204458651 -0.5817216033226305 -0.11454290294560272 0.3855839702226714
Ni 2.7084057086819797 7.28628004651118 10.066538360899568 0.46003771845687225 -0.7576272256464306 1.4073768761825762
Ni 2.2512818176857197 4.796890251699778 12.601340125579965 -2.0418274344678062 -0.9662843313696391 0.4684452257942771
Ni 1.755065991289178 2.3467608516703207 3.263762008667572 2.0495222320089024 -1.4325322924022812 0.3726253531794744
Ni 5.4111212338055745 2.3878742996505546 3.0981439752422544 0.23189345054332966 -0.4348900155466511 0.22727369238313117
Ni 6.8213040765585315 4.323603618918437 13.453702481947786 1.5632104103468498 0.06734207689008402 -0.11049984322448067
Ni 8.566459040893221 3.7483897013766274 4.387748272028323 0.24819604435809514 -0.38966816759437406 -0.18634635804115005
P 3.7239630910355364 0.9220699126143908 3.60594232001356 -1.855738700963417 -0.08650270897893489 -1.3432191105577447
P 7.1271327251126175 1.5028355026674394 4.194529104803026 0.48416803584617263 0.7236403271780247 0.9093927603889177
P 6.997437718941416 3.18784110889401 1.7728702761600175 2.5456024459116287 1.7978377148815747 0.8575654913049812
P 1.3667858342657395 2.8310909328051057 10.37063936490616 0.6525598662914309 0.014378894429491366 -0.35922450639253617
P 9.331330145623614 7.128377452766014 2.9719744495750713 -0.2726516062972982 0.1569023417484201 -0.09683340148098162
P 8.661638591532645 0.4908569462887608 7.852426169892268 0.4197788709368254 -0.05818123632642238 0.15392886094239294
P 7.606231206561322 3.447727140526864 9.997488732126937 0.050386422872351934 -0.5126198634289623 0.2407722410901982
P 0.6106849121217968 -0.018494032450202872 11.679530389121698 1.3138882228041113 -1.7348796259917991 -0.8559225563849194
