# total energy = -381164.1953327179 ev
CRYSTAL
PRIMVEC
9.35471880137732 0.00000000000000 0.00000000000000
0.00000000000000 9.35471880137732 0.00000000000000
0.00000000000000 0.00000000000000 13.69157655529015
PRIMCOORD
 96 1
Ni 1.0394028299714377 6.736941220829633 4.826595340943688 -0.9265070514717011 -0.6034597663306704 0.16166556746501834
Ni 8.542420700535756 4.292094760473181 8.113956795594087 1.7485859198342981 1.914330799575013 0.1272564938575292
Ni 5.9648307773290234 6.606096765939788 4.056636482816975 -0.8777833610137526 -1.2550125315138256 -0.07913881241469597
Ni 5.048002830636461 6.079575760790726 0.28980825967268603 0.21437395360232755 1.062734381369273 -0.6129389094656993
Ni 2.764319469503733 6.334716367258559 3.273642759212067 -1.5102906795296827 -0.8129306262044258 0.30691541257617466
Ni 6.995898552656374 6.134534735015208 8.630964986974831 1.1462538393501678 0.48361267756333487 -0.78542625013657
Ni 9.784661902951354 8.931062502094242 5.557972531428865 -0.191446912492509 0.10269680224029411 0.841755263745602
Ni 8.095442871187675 3.565775666560461 2.04976580569861 0.22764213146614343 -3.860730454660112 -0.3103033552118011
Ni 1.5870935642558204 8.342669385367182 3.024633235587931 -0.29550382830512334 0.40060435489090357 -0.27110817306957824
Ni 8.960642123625785 2.143016451275104 8.499073739026993 -1.1935847632256478 -1.970705835930632 -0.8118160529840083
Ni 6.264640167102713 1.4456034391247072 8.77891548105904 0.32939945261130366 2.524722002918194 1.0478687771113502
Ni 3.9521910449929165 5.412294298593871 11.795936781782892 0.102536622513346 0.813246871893264 -0.41108648536915016
Ni 0.7062607053966125 8.938340473489415 10.86360900115117 0.3905161174169661 -0.13906814178047663 -1.44745394670912
Ni 6.973550128924921 3.4042851521711444 6.853195120468764 0.793324421937724 -1.6551034371034206 -0.41576306490921294
Ni 4.008310004375499 8.240057472470443 2.2537838082108057 0.28995281657990707 -0.0868724336135278 -0.8540623632477292
Ni 7.587968073957088 5.51716069877369 1.7310944959710786 -0.3939930202219731 2.6944281812995015 -0.7972764646069366
Ni 6.108687646371421 2.054071782862104 11.218330591554258 -1.893264980043649 -0.5719421553383633 -0.9332245727011929
Ni 8.759141476001044 5.891115591475591 10.162628099167716 0.6560838202842895 0.6197106809718941 -0.20190153216692971
Ni 3.650922319052586 1.841541921516401 4.587198726581353 0.36520232124252594 0.37859314072713507 0.46207171816776554
Ni 8.818646843667755 -0.045193583042705536 3.5655053151808715 -0.5820825862064749 0.47298270865331443 -1.5190092903496033
Ni 6.277138071709335 7.811517794304738 10.086420816168172 -0.783177049091077 1.1940886994452595 0.7211952080716418
Ni 3.131052519124562 9.343296905013434 6.242715512142727 -0.3418052824748242 -0.49938048192055284 0.0461081072119722
Ni 6.581203858635729 9.051729022693662 4.463399310583162 -0.537768337670132 -0.6734904457965111 0.0027024865328276037
Ni -0.014439944274537946 2.6553089287994123 13.020922269499854 -0.9134772148709365 0.7261841766458009 -1.0943527796055024
P 1.6354855257304155 5.0203783453794575 10.628757844759164 -0.13258099139423618 0.5436011423018251 -0.5405464146359014
Ni 6.466889192248807 8.911894682828546 13.412994446521848 0.4684639948473545 0.3315967173729386 0.45109747854444887
P 8.239430706296309 8.24107713684329 11.023554115958891 -2.7471260259138495 -1.6377240652847083 2.579971667420118
Ni 4.041986992836458 3.2486787560434793 12.101423550527958 0.2541232084758075 -1.4272324774559226 1.28518879798689
P 3.787847341303436 2.342206483302661 0.6297278781752793 1.3923199818494538 0.9732936728079368 1.2177865572828317
P 0.3493847232039262 5.601540264306427 0.8984711815656353 -1.0035367879631942 2.5661064794022517 -0.8895176187315454
P 5.214077157344075 3.6027455161153807 8.066529305650139 -0.18752520884059962 0.2895689508779271 1.3708052477061297
Ni 1.7520920982764865 7.035768365106543 9.50261151175941 -1.520118207143066 -0.784426605227462 -1.5848714402600512
Ni 3.8643689428619483 2.7828324584382442 9.683819902892619 1.3269288580381535 -0.3355451604977253 0.5683796347980856
Ni 1.2784439650111294 0.3214749190169063 8.591848229405525 -2.0995679837123844 -0.5916293493546456 -0.7718035171468127
Ni 5.463642351277816 8.964898520778489 8.003671206687757 -1.6176000408413238 -2.592146612219755 -0.08810733446189342
Ni 1.9859694284188314 1.717891245550579 13.500155170018322 -0.24374315079306408 1.3733987194649186 -1.2599390222811655
Ni 3.178069336903668 4.743113828436576 8.43251865510912 -1.015815348220231 0.0888141307209309 -0.3908179649281011
Ni 8.165846486509114 8.708569864995505 9.023502093531969 0.8579311021745161 0.7249276785308806 -1.0098542455407897
Ni 1.3268078623286734 5.181326286065791 7.041125812687541 0.308705671707378 -0.14071107670053828 -0.0968305732675042
Ni 0.04300177237703811 4.225330130849329 5.348916077254148 0.36277699963048493 -0.8838233965602456 -0.18320601263995545
Ni 3.846089821902861 7.735332962630835 10.156836592624332 0.9886015068096006 0.9821004724662893 -0.7079902793455936
Ni 7.529566563134375 5.519452604932839 5.8905271796494265 0.6148494962248507 2.5424731562540277 1.7344247978425675
Ni 8.269814833663307 1.3625709531304089 10.769808298096482 0.023226831738424512 -1.5541500999167945 0.44044359837502856
Ni 2.7694645649630467 1.0939221324021238 2.4854730695750895 0.18630419194930495 0.5089287877306203 -0.6960727019724012
Ni 6.9050081026878525 3.845425636852659 9.829169785090118 -0.6201002031008288 0.20718206383957866 0.019417485294663334
Ni 5.461144641300295 1.290137363782296 6.1295000252402945 0.8304853472587375 -0.6382925577391394 -0.8558022287569713
Ni 7.0474524091586925 1.8796530467913863 13.256417030560227 0.09340714940825204 0.9606762411542422 1.605989453185589
Ni 0.12793794369128228 2.391402950612712 3.6437257337128592 0.9772829964729879 -0.15007811973773508 -0.11279069614118639
Ni 4.86575419474857 5.714882039915588 9.364504988496721 0.6280881064023118 0.2770937012290518 1.1052655698632643
Ni 9.198626175416562 3.3384466397299692 10.425793183608274 2.0690343338999013 1.5512684074936252 0.37489023795425114
Ni 1.4319174852029342 1.6334929705798085 6.057085145330215 -0.7763803378842178 0.47831774771298274 0.42642542971906555
Ni 1.8996440813305724 2.730118616777826 8.465447266048725 -1.8755691054257828 -0.27094876467357853 0.6179548746230519
Ni 3.0430807414893235 4.372339540200433 1.3603604330267076 3.1739402064309017 0.5641416854573381 -0.054716160595957374
Ni 1.05879516249354 3.7363870319912866 1.1538522043122041 -1.393562596007303 -3.175730722672421 0.2319703265278521
Ni 4.654711733726559 4.066159586776212 3.4474843091194396 0.7527727257676068 0.7698391943315902 -0.5478249505751855
Ni 7.206108443685878 4.3524326981324 4.11942535685863 -0.732774685379125 -0.830088368930635 -1.723246155517929
P 4.6304736567536855 0.39527149092578645 10.76923298287694 0.6329127814844647 -0.03077456217869539 -1.0436349415356605
Ni 2.6862917581834944 9.097445534529413 0.4079377804747139 -0.9920580978996333 -2.0048688549655855 0.8902771226053894
P 7.699541807672049 0.4547450525478404 1.5981078104263573 -0.6843289311729117 0.10624209638939122 -0.1759220773840325
Ni 4.784817165814065 7.751666302034399 12.217665289032368 -0.4048186500825673 0.03350275974313585 0.691089904045829
P 7.88237043613899 2.4371943002006 4.9834870754642795 -0.7039204801515941 -0.5197911843664209 0.5872271065218919
P 6.473241046461305 3.8775590966758244 12.378116494138903 -0.17785528985100338 0.6262901339616247 0.2318571979887555
P 6.670260783676933 7.43917191327375 6.764692930265266 1.4305291459293235 0.5529668997874412 0.42729729080105766
Ni 6.158576362888725 1.9406645242198242 3.60729190955761 0.2019519257888909 0.8444711200148682 0.6951396486351705
Ni 3.7081451352791657 2.2284343906187205 7.170155452088099 -0.3708181247674065 0.32543892530165885 0.3604753480805018
Ni 3.5070373858531374 7.420415701644799 7.918112946558888 -0.18012608816305106 -0.6270522089386298 -1.1733774350398374
Ni 6.587705388352497 7.63331975175118 2.002530087494508 -0.9568517252018295 1.2492576313079196 -0.30171844175626744
Ni 4.968515783149581 3.6591076981924027 5.793083749009542 -1.097025184231343 0.46248566577673256 -1.6577298189826741
Ni 5.385932700404152 0.9515058900883342 1.5643999513926423 0.09064398484081808 0.08513513920744693 -0.2693536522723168
Ni 0.40193579275344965 1.3630106249242047 1.467230614019955 -0.4094990862773722 -0.4472675632753974 1.0513104558030473
Ni 8.836982092940946 0.39128918704027804 13.24027546289651 0.31768936326322705 -1.717078079034004 -1.2744444149861922
Ni 4.344228609554549 0.6898450444656983 12.94600219583704 2.1349561334036906 1.2727384880386792 0.029630164161607037
Ni 2.56383848625184 9.594574012527275 11.642756064296316 2.9397828995540594 -1.4349141623708968 1.040904687088691
Ni 4.814733557230216 7.7433873757044145 5.784759920028275 -0.5469407481980194 0.5772553400211606 -0.329913930353877
Ni 3.174870022999877 6.00330673664567 5.595350246732923 0.5399283214359283 -0.7792208926568064 0.8156038021612146
Ni 9.255268999064093 6.926402345079579 7.7574559376339804 -1.2686028686037507 -0.021052449794925033 0.22106653513115476
Ni 2.6471235496595957 6.755220341788719 0.5191466801480147 -0.07476382327545188 -0.05960279926429735 0.5710299279367392
Ni 7.364605447989776 6.838308956097119 13.357543414077076 0.12890868474897155 -0.7350444552499084 -0.6297302699914252
Ni 6.224386811172851 5.930339928313591 11.37026619593968 0.8193257310974921 -1.5180140163158693 0.7445842764195435
Ni 0.543227597841404 5.047572513561683 3.0416251472102886 -0.14691489151840503 0.6071582982281801 0.5119068965223378
Ni 7.3316113540170536 0.2751952530963348 7.066633325031012 2.5637500633549335 -0.05965756376163273 -2.061169586439844
Ni 8.61826876232505 4.852433074868458 12.220800055374943 -0.833491481074913 0.1238901484884576 1.2522653077859918
Ni 8.845073924890594 7.916159681228152 1.2310791516845936 1.0022890315990223 -0.45755737523717976 0.6533803053101973
Ni 3.398531999975731 0.513841618993512 8.721206219443578 1.8088746894220267 -0.17074670383068014 1.412813216706799
Ni 0.4218276672710562 7.106480686155541 12.62381164081534 -2.294121560154675 0.48544304590385423 1.0998785945197378
Ni 1.7044578690422632 5.037778122750953 12.852119171255001 -0.06754802225330303 -1.2395362902550977 -0.525573595376153
Ni 2.334816255279284 7.042531826955785 11.643549344468953 0.8339871897644088 0.4281336706594239 1.2346316538646285
Ni 5.41989033043562 5.615899757997419 6.974407021186873 -1.2519572896272697 0.3367823753389361 -0.18957206406729932
P 4.083119692353913 9.189757901788509 4.084840960653028 0.6458508297023715 0.22883049534728975 1.2546116965309813
Ni 5.665994278333096 4.01291252613183 0.9420370434993944 0.14485003856957632 -1.7378448792677104 -0.03194621388929337
P 4.515747382730018 6.125254853750411 2.3423271591779793 2.355911339767962 -1.3153480951790895 -0.7231207072291288
Ni 8.230478240197105 6.833229343670925 3.663386546670748 0.8435262396030957 0.29789726823796436 0.5636117810957971
P 1.4768575553602807 1.6992005169547468 10.864799856882028 -2.2670622420440374 2.2639308955039077 -1.6056966045355185
P 1.6280578788309705 7.588417100469901 6.777028998232895 1.269127887869285 -0.14608931029331615 -0.07060814923586549
P 2.4024228096146594 3.4903485671269294 5.863499525465703 0.22216619595323672 1.5664343166007861 -0.41471431192972447
Ni 2.429860200491324 3.4596276698753208 3.511410716993554 -1.3646857650719528 0.5671362493092877 0.44888170184005277
