# total energy = -340853.6819295227 ev
CRYSTAL
PRIMVEC
9.41408881557895 0.00000000000000 0.00000000000000
0.00000000000000 9.41408881557895 0.00000000000000
0.00000000000000 0.00000000000000 13.77847057227489
PRIMCOORD
 96 1
Ni 3.357930231972156 5.721902119624606 13.070932556999535 -0.2221422846938368 -1.420819117730411 1.5620950657954837
Ni 8.577741329112369 8.70392777800765 5.549926483264262 1.0944168000742185 -0.4335815811478726 -0.506834624205753
Ni 2.35773976073745 2.401534102744376 1.6592444823583674 -0.19158575206321843 -0.5969463906921848 1.5477251702270571
Ni 5.671367289896924 2.1583022853684195 13.151784518928231 0.25521824131219917 -1.188551314566798 1.3987235713829524
Ni 6.809107015444441 6.377875840828951 3.0133792817824547 -0.8805724937231157 1.5909518421261761 0.411616132620375
Ni 6.896507417678384 2.4846605085743754 11.152900416609096 0.5045525130397955 0.2428702612698075 -0.28168620569574065
Ni 2.8825093236119295 0.7317665517068721 9.163276012225909 -1.813230138177245 0.5126088076853689 1.7243481303328563
Ni 6.07085415641969 8.885101920725468 1.8875681484010978 0.7128635482774949 0.5308199313767566 0.9369848110745734
Ni 3.0298209882130425 8.404776271998601 2.258525618223092 -0.591562243562136 2.530634768858203 -0.9084890176277257
Ni 2.5719950121853494 9.42613902938412 11.95694363657869 0.44839447779098907 0.4693319992746046 -0.05375816755806225
Ni 7.813279646324231 5.350506894664323 1.1523682784375775 -2.1487560154012604 2.6832145719718694 -0.20302536135872776
Ni 1.6441800571478167 7.224795529128412 12.425232431115948 -0.2386767920137502 0.28463371835983886 0.4227798625466783
Ni 2.548902251879462 7.477893311771619 7.188627540616715 -0.5589981935831858 0.8899210248175512 2.22975810627694
Ni 7.1549429887820235 7.8975075005667 0.011439059538395496 0.542457258505369 0.08244730796263866 -0.2236039568410278
Ni 6.543206071767393 7.953813166848605 7.8025409950070985 -0.15591349547258956 1.0407375653832076 -0.5294842432844687
Ni 1.60678729565781 4.806984466510867 7.120671939202915 -1.0864430378401224 0.21610379180924072 -0.17441849625531253
Ni 1.6374678116940466 4.502080952125588 11.568142702474683 -3.5962289882737744 -0.5783259473775202 1.6387419650262618
Ni 2.463083416596758 6.078197145836157 9.064966563664017 -0.979354791400352 1.25083423176642 0.7557235808658146
Ni 4.265005948952669 0.8522988987514717 7.42625138517807 0.8573456619846911 -0.11801080688954516 -1.1768450818734635
Ni 6.426452540045576 8.235793374529916 10.021040731048151 -0.5940652124896479 -1.2854397376554314 -0.30322433687783257
Ni 0.18574185869842055 0.3029425596475233 12.84459338091705 -0.5505711458617549 -1.00989075520568 0.4733377779998881
Ni 3.71190939229082 8.29357705278411 13.773345037809634 -0.8833117470311498 0.7525428691449878 -2.2890572582578903
Ni 0.22174321783489662 7.834338963407097 0.8082805014264534 0.40263526927800336 -0.42975269432008567 0.9522407087923794
Ni 1.2188232740654994 0.3005730334473635 3.342119269504264 -0.1703461259581518 0.5460719724398209 0.16938684736867604
P 8.7911022421057 7.634713206258158 11.744437522866148 -1.2445494271989728 1.4831804535764521 2.668650815225081
P 5.5934374611924245 5.984752898467123 13.185914357172408 -1.5517247783047534 -0.7769241262028297 3.1232565640331047
P 1.3575963599477214 3.8471239525327547 3.3043386475476444 0.5497242244804275 -0.6573336335309905 -1.7107912175840279
P 9.220328215765155 2.448896384480585 6.259063447843824 -1.4260489986707827 -0.4018888780302821 0.5007143702406279
P 3.6167047102796333 0.9415030404369464 3.0203786569505864 -0.5530810567678023 1.1534578132977746 0.15381573240329638
P 8.579850085047354 7.993832459168348 3.0309327921234077 -0.30881134404730687 -0.08428821782611935 -0.3174222256447695
P 5.644753660306731 3.915140745525025 9.746504243535558 0.455768401657557 -0.6831608790067396 0.18596892009707325
P 9.281934014151512 3.0867197421016628 11.710350048022452 0.13541074753354745 -0.25933971967974045 0.3652007785806291
Ni 9.258916566557586 2.518071110419298 2.904997699404308 -0.20965623641168407 0.2032346491560564 2.7066272944688547
Ni 4.224045247733379 2.10402064822054 11.21987789417627 -1.7974589913859174 -1.2066629365658443 -0.7245453554907973
Ni 6.368245227786585 -0.36060762038037475 5.559971316222429 -1.7271858568919674 1.1175171335371077 -0.35630450453226375
Ni 3.7773655530763226 5.021974016900414 7.6281054571922375 2.774982386004485 -0.3148431520636836 -0.34779826683346554
Ni 7.934005923602137 0.971345702552586 9.425011221522462 1.3073123693588067 -2.5820853713290113 -0.3484479846023225
Ni 3.331523712339863 3.128000522346799 3.7974844026685415 0.2628197078085409 1.158205098174773 -1.0711866259016842
Ni 9.078335511446484 1.007345178871263 1.3645637272132687 0.5963637787158375 -1.5022063598596513 -0.7975086352224008
Ni 4.211571579814382 4.857782890730423 2.2542817469039345 0.6830819461396882 -2.0349039678750955 -1.6394289637909571
Ni 7.8114344848811195 0.5497329026637672 3.5473228743830196 -0.017118404847841488 0.2557854266695788 -0.052073837877103867
Ni 4.824052209859655 6.995543633910727 1.2953871184567565 1.6216132757657749 -1.847999166227314 0.13160422930326365
Ni 5.768012327524419 2.127038095814464 3.28653754666611 -0.21260940550273705 -1.0161912435024112 -0.4340844889262202
Ni 5.328251988279033 4.680289656809833 4.447772955528521 0.16643804915299723 -0.8124076638214203 0.13440107532211046
Ni 6.435009946942458 5.387993797044285 6.631137428620681 -1.4361362077034556 -0.1644125340825362 -0.5783467733131266
Ni 3.4075613091562733 4.824372288885501 10.653803074425264 2.63877588204252 -0.2990627493009753 -1.8479942811313077
Ni 1.6120309432282869 2.585541886249831 13.336057779743356 -0.9713252362276562 -0.49220067634266196 -1.8515801987103533
Ni 1.2138338068979002 7.276893097629341 3.6857683499681992 0.44941520574601956 1.551472295974315 1.2142276362869797
Ni 3.6978541574205837 6.044748887635253 5.520234446572549 -0.3040275495054183 -0.21124723504788778 0.17241277867919338
Ni 1.7946925120073896 2.57831186590131 5.632983224835694 0.7687174220223213 1.997499301974392 -2.5558133250063597
Ni 4.017471892905783 8.225466118901885 9.583876797547717 0.033917221572735134 -0.34005179011882725 -0.895489262933948
Ni 8.85560757990266 4.594734416019003 6.091214006690193 -0.757763751224295 0.15180384417959017 0.22004734983802104
Ni 0.6851310376411133 6.943116572294955 6.099274349688114 -0.7187590878263234 -1.0582655469646418 -1.7871869200359478
Ni 4.44143539081677 7.184813893164651 11.646225039420909 -0.5121902320907114 0.4138681618793453 -0.5335427296245585
Ni 9.176213794732384 5.612227982827383 13.064373761196393 0.47798941783928645 2.2089396268696926 -1.7733312450997782
Ni 4.207024574829569 1.4044596949671704 4.960787145474357 1.3661037284654023 -3.137066473333004 1.5673596566285328
P 0.9833674941998012 8.62844561244197 8.865922597214997 1.852295479609823 1.7911986122985024 1.2100066562270968
P 4.6903344897679995 7.036824414155863 7.389091151686252 -0.6479707042588517 -0.4113739347025819 0.3368677359638908
P 3.65050128977337 3.3256963912516673 13.914739947477093 0.6901002864390503 0.3883545909892731 -0.5455271556799444
P 4.793371693823418 -0.022899771481480577 11.674139696110275 0.061051615895681956 -0.09299885822623984 -0.5239332315592525
P 4.9914535403771 7.789443172987702 4.2245065380941575 2.74174059323222 -1.071218250470568 -1.9844308988262083
P 7.3585979760210245 1.0482023251116024 0.15391094098693767 -0.3027957339808463 -1.084295138259184 -0.35294767224488893
P 1.5321429840127292 8.86984168246381 5.473635647453873 -0.3969531312915615 0.6580882523088278 -0.08470396520729928
P 2.3434585877313223 6.567070787370909 1.3081281465032255 -0.454432713565269 -0.9266931993405781 -1.1137183286163077
Ni 7.22849526610363 0.07805409467924018 11.579881130043134 0.4965998338516222 0.7210067462099196 2.5360839648982325
Ni 2.9026743022402264 2.929240861385442 7.931934824023133 1.053948664756843 -0.3659849650448213 -1.8533668582971305
Ni 6.715945190745272 6.6382507142656575 11.761054331352051 3.1729266775647225 0.21859827609632032 -2.8190297540326865
Ni 5.0326872501772595 3.982282028240716 12.026662496861341 1.1478170700722297 2.9101115977418717 0.8982321157864079
Ni 8.46093131285658 3.400801993257526 1.0405420808959887 0.4602336365177623 -3.317866190524312 -0.26245872492469635
Ni 5.661623707786613 1.0929569041960665 9.644020587913072 -1.1026407306459074 -0.3839364073169194 -0.8669654444626423
Ni 7.651978645475849 4.071226341069916 12.814074787211537 -2.1851924038514237 -1.2834260496595122 0.6703107625169488
Ni 5.7100121252233285 3.328228781191448 7.251305603739654 -1.007325308471349 -1.302476895643376 1.3761320592356816
Ni 7.556067906790002 5.954128866964859 8.776211036132667 -1.8402714585657531 -1.5886432485976574 0.612446286099997
Ni 6.901572197557947 2.597977897812847 5.358557823573249 1.368991077315526 -0.5554855524442369 0.3937040282266446
Ni 9.393603937815776 5.728435497387463 2.798021640513185 -0.6538819275369642 -1.1431880559406504 -0.3954989153435382
Ni 3.4690823807416695 6.609970790923266 3.3155687143103405 0.08415580601331313 -1.4147957943544667 1.548313181520043
Ni 0.5758786520308857 6.833244739628825 10.36302257635099 0.7478961144015959 -1.2683215899179061 -1.1499423439453487
Ni 1.639482426739077 1.1907033902360307 7.159155793607497 -1.0153183539791546 -4.320596937646443 0.6202961211617188
Ni 3.7377134102274034 8.490058504208564 5.6123296549885335 -0.08841535262061548 1.7543426198124175 0.7024757772852676
Ni 0.8076779997307434 1.098134653143575 10.770644157174742 -0.34281366913468053 1.1482294750192998 -1.19728046690968
Ni 7.549722810807055 2.997172927576753 8.821514456605566 -1.2984310077087766 2.719896243663619 -0.839695810113412
Ni -0.1913055852947433 7.110169581519569 8.16674762161044 1.9839233630621704 0.7206743025711653 0.28106682694418694
Ni 7.891972016237364 4.71658096988737 10.689048482215405 1.012705856056972 -0.058196662945390096 -1.102283604416805
Ni 7.708350210380724 4.421703460282266 3.926271964353268 0.35078306049340235 -0.6854118798244453 -0.09992978101811822
Ni 1.0616079878411515 4.680600321746684 0.835785645244518 1.4696327967990044 0.2583696424569873 1.0103106163519182
Ni 5.181213332258787 5.994600035556385 9.445830479335942 0.32751611954566173 0.655635162782645 0.05201727360755557
Ni 4.364861190927618 0.8770165308179776 1.046900356603529 0.13942243979610183 0.696588465266555 0.017787663000724208
Ni 0.3060134354778456 2.4056104032794146 8.646100794944076 1.2856536534384502 0.40904785767256646 -0.18512225582606184
P 1.3213427032261669 5.182258296137285 4.888421984775079 0.09302945435385913 1.8972373344278357 1.2524203453066172
P 6.3424223816720104 3.8690399517142087 2.3276250314498412 0.282396601499204 1.4289929117904552 -0.6965223879153101
P 2.0282654740739936 0.38079613423116 0.568280540802642 -0.9389763875833055 -0.03688478884149131 -1.1092582359624252
P 4.034501979898588 3.1868103363014995 5.906568889359745 0.004685321290811286 2.765908705837991 0.665220749588551
P 6.425689998836942 0.9558218697990561 7.441325224477616 0.6216374656809617 0.30405403186797963 0.23954351088941972
P -0.11299919303042452 4.589631979783458 8.558855725178558 -0.38700861848433993 0.3358855745562796 0.23221638110038717
P 2.3024319878890642 2.880777131236763 9.80469084479876 -0.5216202671553597 -0.06355946991920021 3.545488781606429
P 7.879620731475308 6.799297534711162 6.594389532226863 1.038793040062327 1.2183061772317276 -2.1127711126662194
