# total energy = -340897.81799753936 ev
CRYSTAL
PRIMVEC
8.99457810484521 0.00000000000000 0.00000000000000
0.00000000000000 8.99457810484521 0.00000000000000
0.00000000000000 0.00000000000000 13.16447424233260
PRIMCOORD
 96 1
Ni 6.3900090131822065 2.082379712380658 11.363429565704005 -0.8142058933724236 -0.926496767059056 -0.004692520379662887
Ni 4.5670149395102 0.2451391267053698 6.073219078586098 0.042661543424268464 -0.03957030609345443 -0.6578432261775573
Ni 2.9506622994914475 1.6593197388505445 4.77080509195565 -0.9601152264444497 -0.45012920109390864 0.5589490855128051
Ni 3.4569401081464814 4.282804265679977 4.830124333487087 0.48416675029459205 0.3476838527427883 0.03633020188960195
Ni 5.072330328325375 4.754398981788351 2.543850131556844 0.04459604144281997 -0.5247714111898316 -0.36968118294948593
Ni 7.1954554787860046 6.106796737503612 2.5119661516659213 0.21181724861874487 -0.10874069444152885 0.6932948821169479
Ni 5.045472518588776 4.56147427949756 11.417456397574016 0.09588569285573165 0.32796117750288034 -0.011118221400348594
Ni 5.515097422127722 7.867647272170206 12.334756736098583 0.08755094773779115 0.22645145359215194 -0.01828260035927174
Ni 1.7634589622699484 6.532195301298802 0.6697191839077825 -0.06616579719379573 -0.6513213658986395 -1.5752184905513196
Ni 2.586058088010281 1.4341494746355372 0.053852337057924866 1.1987377681814968 0.5909652334080855 1.5946174639032213
Ni 0.6735005044748509 0.14543692858504984 4.752466946446281 -0.25247873089384903 -0.5919335108586257 0.23212356427626474
Ni 8.516839929755186 2.3422780420320373 1.3766093606211471 0.9209413844584655 0.35128314005827244 0.6477408476362329
Ni 6.884665827135403 0.5962118951296917 4.7784279967620025 -0.7695226915324359 -0.0957162571574029 -0.49048189387934243
Ni 0.792682260045456 7.606534674496577 2.6601976956177364 -0.01326432120907393 -0.9339164565618948 0.21546821510777087
Ni 7.636882380474903 3.830529902992304 3.831756763423674 0.16922358231793436 0.287809287874343 -0.6366529652531875
Ni 7.594167129825504 3.7746016173452275 12.539082065931618 -0.09368868520441284 0.6105279860313615 -0.05843037622275099
Ni 7.984441866754846 8.728374413809213 6.729889828272553 -0.651040344323111 0.9451902297035012 0.8364143111486627
Ni 7.02107759621285 0.6412225620700425 0.4893077384507333 -1.2861614463128044 -0.06975222899347343 -1.209069746235124
Ni 1.7392815367602437 6.353311135176405 9.245607618398331 0.6299734963504828 0.6918018425111891 -0.9243964328866016
Ni 0.08551505033145959 4.874854369595629 1.4983536714475987 -0.16129789971295444 -0.4790895928820007 -0.07086037445598764
Ni 6.345162047560412 1.8195311611641063 6.8343897342674556 0.6182991453363481 0.21897648537134545 1.423347797689536
Ni 3.5038738158509597 4.130382147864705 0.5835349369773936 -0.18416374856753445 1.0732643343663193 -1.1953917345273994
Ni 5.866344685364131 5.491648557431367 4.713078790177849 0.6281935216319245 0.04608239618035935 0.488887552809029
Ni 5.168086605102277 2.983033785506859 9.1045240655375 0.3467171179541448 -0.18857061938597847 0.0633488965702909
P 0.14876672133939975 5.548827089412466 12.398722576595166 0.7444369522084018 0.12469130423351428 0.7734065999678744
P 4.025208547981903 6.128095898071685 12.658023666271156 -0.8960165961923279 -0.4195050484501485 -0.6356414932695376
P 2.3461816888591254 8.514339437087143 1.3062699621944396 0.07271593960748766 0.6624907522518978 0.33550119463366734
P 6.174283055806927 7.585370432597643 5.755666403780458 0.7829736748310193 0.3764997485332161 -0.06793523038939267
P 4.802636903294506 1.0618189207016784 12.48011900968671 -0.803051676527817 -0.323041885824392 -0.0010225277272434001
P 3.9860731393536573 6.066285158450149 8.197992035725811 -1.3737723007542533 -0.1221929632916928 -0.2616709389160784
P 4.703048936314057 0.9071301692448719 3.7980432863792273 1.3380673911534762 0.6898143797675153 -0.05285725301034768
P 0.25906273336051205 5.646013504082241 3.6271418081808875 -0.21590504553487333 -0.4285558457985071 -1.1442941445206356
Ni 1.399871138096295 1.0676384126305394 2.610054722503339 0.14011920875281028 0.8609272086883625 -0.7809322189209583
Ni 1.9107361815020538 6.453654646704032 4.790236078685046 0.5079813362156864 0.4835085478853028 0.22929560790916637
Ni 5.840161468973227 5.590238126260188 9.105129400633036 1.0977044696865548 0.05350645655857237 0.7142239189601312
Ni 8.509617283667279 2.253474574004764 10.232850694462337 0.09068383693981802 0.6637125404741407 -0.6530720300411591
Ni 2.1950368011117023 5.1280787224136 7.075127813985512 0.9280797952754597 0.14255918565287062 -0.7247153054097583
Ni 0.6095625471698904 9.044317958620924 8.896064827682046 -0.03365625460186462 -0.38350780441993304 0.7763404857852179
Ni 1.3882771271282857 1.0446392768313155 11.197859173852244 0.2038224033387264 -0.11578937375819413 -0.4795122822417161
Ni 4.002344330851818 7.020762785984859 1.5402171355658343 0.6959947975466142 -0.4058535191049849 0.11030366805327455
Ni 5.570548995143841 7.787298707408976 7.923052073381024 0.06261998882406634 0.04098929792816812 -0.4645263503558451
Ni 5.354319341403777 2.7487160355242293 4.8765822280184015 -0.4291996500300931 0.4306680070455034 -0.4942107647941553
Ni 0.7590290466732244 7.349298739916206 6.974630495175066 1.2189738927227136 -0.44061406251462176 -0.41181976399074877
Ni 5.149530790806697 4.50737189317283 6.998392371183822 -0.09310118813205902 -0.08994695877379348 -0.13949134536082428
Ni 8.247281423393455 7.09062367286502 8.973379521303238 -0.6538150788547707 -0.17578658024743274 0.5677116621967836
Ni 4.597803379807714 0.28852537286928726 10.272883761969256 -0.1638890574788984 -0.11480721235058293 0.4675664227337496
Ni 8.065150214633782 7.153387837748471 4.704785789314773 0.37184528048034027 0.5904037044776606 -0.5343022334984023
Ni 7.422703490505752 6.097955067386038 6.76682966042501 -1.342645497442462 -0.6152097077777469 1.005048082401398
Ni 2.3508049019216206 5.090877148043013 2.578854330536054 -0.17239966605307083 0.6515440234324069 0.40562880468868856
Ni 2.259428984602764 5.246510330183792 11.463110176837262 0.2835772520708664 -0.36361595059201246 0.6307628250209975
Ni 1.1990222126380736 3.2589874367857763 3.8116152050368135 -0.9706881168642895 0.2532917137134476 -0.630331908131166
Ni 3.8186390709521887 2.772947428501589 2.75707559626408 -0.0042873145214442285 -0.5671177373665265 -0.2584933125190451
Ni 1.0743123894639475 3.1830731989502463 8.339470450558322 -0.2651797234002852 0.3939572818880312 -0.3058455765507636
Ni 3.5100980637872374 2.784604401515197 7.009068935201686 0.6368170016348774 -0.5627252647257857 0.6186665559780957
Ni 4.151231579535648 6.706573183871955 6.0152697112753195 -0.6034132293634511 0.22434366322052976 0.05635369619938037
Ni 0.7132619357279012 7.342444871523947 11.206863645830577 -0.3045713378240303 -0.08045444590232595 0.2648830180954729
P 0.19939899949387438 5.372281513555145 7.847290743370518 0.4907904262586967 0.5208916165194513 1.6220146249692518
P 8.493984707203044 1.6392078625708943 7.945365822341022 -0.7816079048317442 -0.22551325804859873 -0.24564139625704148
P 1.6766432959679887 3.086993117367411 10.588042080126577 0.19753965565380818 1.366803325635588 -1.0487995164557355
P 3.8962982569085827 6.156105013784937 3.7387636209907384 -0.20561729045562005 0.3525265255470703 0.16684556900406106
P 6.828080937298516 3.9306215663375386 10.29690917911173 0.4665858039880352 0.6626609592811749 0.100299248542395
P 6.317107958957446 7.672015201918693 9.93466244650932 0.46639579946441606 -0.3709726480673998 2.2235959433302868
P 2.4873695788240915 8.426345481074703 5.879398516332223 -0.8864348660411637 -0.18181838826380944 -0.770388381966841
P 6.949822549751586 3.916095322960242 1.5211414346651715 0.0979366618474894 0.47620815756914764 1.1945365856159558
Ni 5.3553627124451175 2.753959874464764 0.5940972698553869 -0.09379230066181266 -0.25121709057260605 -0.711971889701161
Ni 1.5072843878868045 1.1263280337059938 6.906649475084908 0.1262627624856922 0.6806476256665827 -0.10376355294191163
Ni 6.759605215421515 0.6954760573042071 9.121321439845302 0.5341831914220349 0.3131660214715768 -0.3432700399458088
Ni 2.84799818685463 1.7372577567231593 9.183195141512437 -0.07166847217957979 -1.0743498541210144 -0.16421044537405913
Ni 6.421283160688621 1.9562217621577733 2.624219383847343 -0.11108348364209256 0.009717484398080038 0.5803069823632909
Ni 3.9865588465625574 6.855811221095547 10.427132678564668 0.4903834206282652 -0.5140195719899663 -0.5293621158843077
Ni 8.107856470705238 7.137107651672369 0.45566891640320967 0.23611211661036757 0.1558085944636091 -0.3071211008290775
Ni 7.666411579860454 3.810462999602367 8.221924808715476 -0.6692956909888731 -0.23176360983368474 -0.5914249466533233
Ni 2.8899309092230236 8.21382159344699 12.183075771505782 0.8541793484415677 -0.3530420317309081 0.5291505140941338
Ni 0.05506570562238139 4.861893182780344 10.23436448193008 -0.23900332211523354 -0.9354048681819632 -0.37989720425053924
Ni 8.589129352679848 2.4700370271287047 5.788234871052811 0.7447115460260271 -1.1604985221946402 0.17274316543541862
Ni 3.6671074163532342 2.734216775880761 11.342418231630095 0.06794397214014106 -0.7004685170472517 0.31526635564403127
Ni 0.9599013580340964 3.36721019859112 12.712853713951441 1.2774456637063614 0.3662747283710982 0.025525397964614106
Ni 3.157870391555086 8.33418703547484 7.989638034432286 -0.2800661535938145 -0.35973949835574176 0.428629636459236
Ni 5.488032737098444 7.749296615601497 3.592453318887462 -0.11594903926450999 0.26489124562558897 -0.06537621141296483
Ni 2.974587876818759 8.471282392475924 3.5639126236178034 0.7042912332274516 -0.8527246182729121 0.3161317889681201
Ni 3.1040468371465777 4.271920826369433 9.202836601365687 0.7126838281665209 0.046776594033906535 0.5468533306905357
Ni 7.256663581685386 6.057956179275303 11.430014627297473 -0.7278692776577077 0.5437831764056441 -0.9583756180455237
Ni 0.6353913771898559 8.983748470755467 -0.00945150250208235 -0.7476107219506931 -0.7870313898401607 1.2535336329754538
Ni 4.561762105991722 0.47429308949115384 1.6763113960419072 -0.22144551573712828 -0.17250379573110292 -1.0056664327116875
Ni 6.040245855306327 5.513244539071547 0.3807854571999013 -0.7970247536074466 0.9999290160072779 -0.22404335837129158
Ni 7.843415879192847 8.866333250292787 11.290339625342451 -0.23422415555903534 -0.17124138407891154 -0.2992784648562072
Ni 0.1374677325279077 4.85554301075287 5.684486012316117 0.022120743158439322 -0.5333010459273977 -0.4312321070790896
Ni 7.808292052326999 8.776639319049197 2.537741913676025 -0.06125113350099774 -0.08242313959292256 0.4884350386526427
P 8.462593630183374 1.6521690493861787 3.614846220133355 -0.07605246017988837 -0.04562679670017949 -0.05983934075513566
P 1.969758601961384 3.1166842191559283 1.6817090422652603 -1.0986025560207917 -0.6620873461658919 -0.8766808719781934
P 4.708571607170812 1.0242305794795599 8.15233735700477 0.37149355356787633 0.8004839158006408 -0.1779617335218806
P 8.514312453353316 1.713143293259053 12.41652104742798 -0.6601942429082372 -0.723005264697187 -0.43738244295120154
P 6.159172164863362 7.755682765940742 1.353084042012281 0.5141838654819726 -0.4297719775937953 0.3501631675212163
P 1.8300728065128316 3.266866687063493 5.843604593409653 -0.8069098739316427 -0.25708280532476374 1.0404616860140017
P 6.928487410871742 3.8213734226467384 5.997366003880577 -0.36457420074022373 1.3359169204693768 -0.5116245893952286
P 2.37728493938463 8.420058271092827 10.050628640465446 -0.2024466060371223 0.08694982381868252 0.40539766251448894
