# total energy = -340889.56393894705 ev
CRYSTAL
PRIMVEC
9.05819615121203 0.00000000000000 0.00000000000000
0.00000000000000 9.05819615121203 0.00000000000000
0.00000000000000 0.00000000000000 13.25758568379705
PRIMCOORD
 96 1
Ni 6.559048894584743 1.944667899896313 11.390161725413673 -0.9669564177359992 0.929016448157116 0.18650113845145946
Ni 4.551064203559641 0.6331488890759644 5.884339189906903 0.7302547471707488 -0.6851005192316137 0.35965310928952254
Ni 2.5824826658121114 1.476975115981915 4.663660299234632 0.1275529420520255 1.5525189920712745 0.6279477241697056
Ni 3.7527019689790846 4.66358511620654 4.682168005620089 -0.08542875918846578 0.03088974760032099 -0.04472793903499393
Ni 3.576764625045684 2.6958550488976516 2.6867289162707197 0.14366218890906227 0.7795474227582897 -0.6402401683838135
Ni 5.375160773418722 4.483562525806889 2.4503199606210546 -1.872164450619608 0.4372361471813244 0.8278677071302324
Ni 5.066566146784161 4.719383604526044 11.485258291935343 1.7106636908672281 -0.034554083825785654 -0.24900465630231958
Ni 6.004768813617399 8.129821631759594 12.103406808177363 -1.247565331207161 -0.06137274668052657 -0.39413494511647607
Ni 1.8484517403297895 6.731118388759633 0.23467884018391366 0.14175314481180748 0.12228320901265392 -0.37068159918954224
Ni 2.6249021984095533 1.793323558525811 0.41216785311879683 0.7025099729573127 -1.6835318676474424 -0.5939469417442288
Ni 8.151054043548703 9.09062449800146 6.743471050857248 0.7119070979014964 -0.3824418250492639 -0.4953952720205598
Ni 8.930158553102105 2.2263778003405683 1.195167387019178 -0.5677193755062675 0.8715227248160216 1.2077664540426682
Ni 7.006904228918018 0.6128268260005083 4.676096296736881 -0.7809450744367646 0.5504842425749036 1.0759313396755212
Ni 0.6362640027339316 7.506653969027664 2.384549304153669 1.323365309056611 0.14176265789350423 -0.4729896506318499
Ni 7.571329489579818 3.9545095211333465 3.610636843750547 1.2870435918074414 -0.14253193195936098 1.0187312363154455
Ni 7.671051171058623 4.056894312281945 12.211880518781866 0.6935532779846573 -1.5168981575438714 1.7777489145514997
Ni 8.392980346476843 7.33399569210265 8.57578833219439 -0.35086353602235054 0.3758919397458881 1.5976714202381967
Ni 7.188720342156509 0.5575392199441882 0.20186280715081245 0.0415107176492769 2.281530353753226 0.07802295364269789
Ni 1.9630922708771366 6.704777154338672 8.782832427546301 -0.3690846870160676 -0.11106574303027968 1.0738544025418344
Ni 0.24499884306417538 4.887712063688603 1.2024365894341782 -1.5449350090764298 0.4173301522860167 0.234833249897944
Ni 6.550824052475309 2.1197718897833835 6.789089938336906 -0.03218738336582199 0.5561542963764874 -0.3569981881651787
Ni 3.687546364030675 4.410490057418342 0.5589251239560201 0.4171681727868557 0.1613837745585414 -0.12047726615216672
Ni 6.040802317925028 6.005955437313804 4.488899614981865 0.7903036328335291 -1.1389768460727805 0.5269198249914022
Ni 5.359173057203799 2.8592377329591634 9.365675718451616 0.20446415068778334 -0.046811561036900026 0.17870863899023415
P 0.3850113810438169 5.954287486441326 12.027865075516756 -0.03257484861222777 -0.38756706209097125 1.158664811420011
P 4.147286051720313 6.248026671380436 12.558579353365264 -0.22643705541444875 1.1703584457078555 1.5427757966415816
P 2.387097374732286 8.624471607433543 1.237862288779755 0.1964767616069326 0.551458690673031 0.5891248377652369
P 6.372622159502968 7.899353946968494 5.72454626898192 -0.3053922910634289 0.49945144436780436 -0.7234109847760379
P 4.768922879301917 1.3342722937440117 12.344575845906881 -1.3485114693049356 -1.7556842214419766 -0.2977288609809001
P 4.008360497279363 6.294295937344078 8.081082195704274 0.6270663500060168 0.5006521495441248 -0.5423443870765885
P 4.438362126989627 1.015269799726477 3.7322621493536032 1.5450139419434812 -0.20778575886184858 -1.1496245555946136
P 0.28039012126436025 5.683655759895571 3.397720319830856 -0.5651634418536331 -0.9130540112905887 0.6761561655541323
Ni 0.5118243155852793 0.17659496897430926 4.602358050930885 -0.40233059355339096 -0.28816024345585856 0.3683143845089463
Ni 1.9396224846375527 6.483711877157255 4.652298603796457 -0.35036577045032563 -0.2075528169154361 0.16824142091032315
Ni 6.350728499394487 5.682731823887683 8.950381881839464 -0.32574102992311 0.9407841302160055 1.0562534016306195
Ni 8.403025886013586 2.232011998349453 10.039148073534577 0.8406170363761007 1.9831391765979778 -0.9571620573533968
Ni 2.563098126038777 5.1543219511412 6.771815958267864 -0.06272334717115004 1.7631548187874087 1.0579187051481844
Ni 0.879086161261877 0.15076824009499545 9.03666210604273 -0.01086573906991032 0.008603682508610988 0.1168818354914245
Ni 1.7082308638385657 1.558680045306905 11.291976314002886 -0.20735021398632678 -0.7233168824003349 -0.5398329335086445
Ni 4.161887863923404 7.251674805439068 1.3368946415311056 0.1749435155208471 -1.255770492725773 -0.16285110313268727
Ni 5.708937185366308 7.75831783282325 7.8190720602595745 0.2906945798419381 0.42870651244375846 0.5668511139687012
Ni 5.284361415153346 2.9550462736986773 4.554564290554228 0.367819961371031 -0.3025337385687112 1.2123134499834025
Ni 0.6590843163091473 7.153800995976041 6.629588691328138 1.2542977648349882 0.957338692140577 -0.9409227126763989
Ni 5.21532890225027 4.7265848704698765 7.044842671877204 -0.6856641050445675 -0.06208854180062856 -0.004498402090985802
Ni 0.9442535418652886 8.006793211572008 11.378482087290429 0.33962755809721507 -1.011070120225762 -0.3285589589878793
Ni 4.802682776374448 0.3592589293729803 10.213776508123471 0.5330961290054432 -0.1920575494933144 -0.09285333378731106
Ni 8.233664792489268 7.423010585725341 4.388923398191084 -0.6551895906047942 -1.4749580656666597 0.5580463711928776
Ni 7.456607435267069 6.346253750493539 6.633141315860429 -0.4961843435807583 -1.9323215797254785 -0.10979690362018509
Ni 2.331425701158961 5.611978253715011 2.2924093328572397 0.4810690852058747 -0.6439710961811554 0.9305092306525587
Ni 2.4657768665412503 5.347361169416684 11.564088149800494 -0.477312703487236 -0.5299143888433518 -1.471709476822375
Ni 1.185147210431672 3.4394514295204597 3.5844930780057815 -0.7049046984417343 0.3147518779014579 -0.589918794421442
Ni 1.5795501292497847 1.0520823089035012 2.67278201164969 -0.6561429556569991 -0.06071454427123737 -2.065386709844985
Ni 1.4650001806639952 3.461381322413564 8.082752527075398 -1.2577332728790984 0.3180901982460716 0.521292708612612
Ni 3.691405155593031 2.840894885743742 6.8864012338186615 0.5717948311272217 0.4682012281042711 -0.2528857365242806
Ni 4.2481128331301194 7.080637945625936 5.806610808694294 -0.5264426282446676 -0.08559562378363324 -0.11288891228194751
Ni 0.47040661948266477 -0.005474773756543656 0.26094398575716643 1.7222837916046598 1.398001091394631 0.04784488739742082
P 0.23105012680391468 5.4500086482537995 7.874210206079325 0.9076991747365788 0.12392382993987046 0.5461709599115304
P 8.84564558296883 1.8122642466875132 7.954246615672422 -0.34866704259166403 -0.020803824119228688 -0.9365986313797482
P 2.237528439808313 3.480729629402276 10.114716074964038 -1.6700898832099238 -0.013737918411382792 0.6618796010304601
P 4.219932784889538 6.264286133480032 3.379000651655354 -0.707607184974562 0.5688730294947364 -0.2827033341063454
P 6.777469178488677 4.072392885904457 10.307202743274019 1.861081967553201 0.10976759304414645 -0.49505177263821193
P 6.822877915817521 7.693008238540194 10.066802746398125 -1.025768345667885 0.7640410995925744 -0.9155497811292489
P 2.221468258024144 8.655278532559297 5.674936340276033 1.299537353399078 -1.8462847546393686 1.3787273307666834
P 7.049278470534682 3.721351552083986 1.5494932227657292 2.3693744072514034 1.1897934145040154 -1.4602441564952526
Ni 5.6944350133209305 2.684323965191364 0.39998276765006335 -1.00666376362795 0.8569065175647437 -0.012923907150519678
Ni 1.7297712542969719 1.3750522928372604 6.898001159815732 -0.4144548876207507 -0.74269374426505 0.4795009693878064
Ni 7.08911641722773 0.550825284953536 8.721237599506722 -0.8328371353203656 0.1503776532560249 1.5940831886663063
Ni 3.113736812151504 1.7090913924733633 9.10633050431594 -1.2050305431687438 -0.32634163962158635 0.18308619923263955
Ni 6.297140210936988 1.8535877375501078 2.7610514157287613 0.363449085996845 -0.17772827735483585 -1.6176380931681107
Ni 4.211698884583949 6.984095690997805 10.535087030521494 0.2649789202433888 0.06990109586651187 -1.2609828901646476
Ni 8.180167085993327 7.300598122876348 0.2317611952021421 0.8644732741684079 -1.3447000659786454 -0.34816413481331654
Ni 7.746062093424502 3.931193724228411 8.002384587502998 0.38634321698619917 -0.6765644567361445 0.027042091719456655
Ni 3.2833243605797144 8.619426192174783 12.374272236183936 0.5098782961280832 -0.01567215931961817 0.022895416540934764
Ni 0.06550978041809957 4.778597032796273 10.235784301503514 0.5532849452484923 -0.2560235108223139 -1.110547901308126
Ni 8.824059901529644 2.3555839103063834 5.65131075306257 -0.2545225007967552 -0.10530415795615412 -0.06907371486921006
Ni 3.6110951884760283 3.0720057024619005 11.66621115908019 -0.11271587703919297 -1.2087776689160021 0.30484747430355236
Ni 1.0583958716240687 3.5474975932664106 12.660875374191535 0.5720696820551632 0.6967324470435872 -1.8560017248168164
Ni 3.385337765685927 8.410299617526665 7.702458654589502 -0.9873349813923512 1.2033253875521792 0.8082046814836662
Ni 5.66537632005324 8.103136185884713 3.3998018933074508 -0.5493205612841056 0.49436657364572917 -0.8551404268032563
Ni 3.1175684291253924 8.2514732061315 3.6317034905500067 0.20105306812370538 0.3958987218851182 -0.9513539353120518
Ni 3.905332574203705 4.6342637352503315 9.415166078968246 -0.6527100187160502 0.6265662704411467 -0.6042277548449465
Ni 7.339249445872993 6.209447813953037 11.566991301668416 0.11214972012307782 0.30510689861252616 -2.2581569691346077
Ni 7.920495776796046 8.86148836804526 2.4754301861844477 -0.7977510902505099 0.6415881977712757 -0.7587525975001256
Ni 4.752264856571467 0.46947090781977435 1.1889081734755451 -0.1965585226874615 0.6710039319292315 0.1496549161573874
Ni 6.19950191457401 5.643183739471618 0.24342815185076594 -1.590087694353668 -0.12565392525709973 0.3547369029348278
Ni 8.0987157861607 0.2841764472574695 11.167023932951816 -0.015079005820309516 -2.666283857654802 -0.6677129198827856
Ni 0.2190788147644572 4.6764930457285026 5.756841455736065 -0.5169022928544 0.9250682621426455 -0.47211676110859335
Ni 7.288297092496822 6.0704226193543755 2.2098674262074574 0.9038240080518887 0.7415624588740841 1.53286316551356
P 8.446016084968841 1.6777319173821088 3.4766163025279435 0.7875952327634307 1.263649124142901 -0.45278232244603955
P 1.882954409487094 3.457558763635832 1.3618327613675387 0.28911695094217305 0.7974001346689945 1.901518992522325
P 4.921154923895684 1.3745903248333164 8.014940153194503 0.55458412367589 -2.6706063962895557 -1.0262555697169486
P 8.818063375674528 1.883950811064228 12.296330987361667 -0.4153347191225428 -0.0594107378581493 0.4124026330774124
P 6.366761506590188 7.915622467264245 1.0697584728818588 -1.1348561390361875 -1.3465564024610939 1.9537067302694742
P 2.108286097057875 3.5307036975936246 5.5629362739080905 -0.8045961381968013 -1.8203749767521422 -0.28346463775240216
P 6.75379105373751 4.251337550961572 5.726242869121895 1.6417743240946823 -0.6964833071472586 -0.1423090173152775
P 2.6708997184885224 8.576834553850382 10.186148104028776 -0.059011702647517726 0.8513071691000952 -0.7359433129150939
