# total energy = -340869.9836672726 ev
CRYSTAL
PRIMVEC
9.31504793467997 0.00000000000000 0.00000000000000
0.00000000000000 9.31504793467997 0.00000000000000
0.00000000000000 0.00000000000000 13.63351423187774
PRIMCOORD
 96 1
Ni 5.271879168307112 3.2739504860045483 2.625556100526979 0.7999802366913449 1.481192733722462 0.7612478531181536
Ni 2.8133772695046324 4.115276275606035 2.547790356642425 -0.12727577713123886 0.7859859792947819 0.006815994480568906
Ni 7.157729197164828 8.915040883362519 0.7350820820108496 -0.1717959710308009 -0.32393585839357114 -0.18919411190259028
Ni 5.992118653376553 5.43628044445805 11.865314887792474 -1.2739746744386253 -0.02825513819095134 -0.14959758055689076
Ni 7.565383627908413 5.6378953360105974 5.373621844868447 -0.7994894130978554 -0.15755051685538027 -1.6359106662250533
Ni 4.00248036349137 3.573196392081318 0.6602831808059982 -0.3348170240824492 0.5168215602151358 -1.0050547672696175
Ni 5.332175471810144 5.402625177262552 8.766772338253894 1.2352335491146855 0.9878039506089699 0.4210790778054877
Ni 4.771567958489733 1.987663499781268 6.309126492331368 -1.2182053899878051 0.37885153659484433 0.0926144783036276
Ni 5.736290184442939 8.862177987892148 12.441890255811618 -1.127011446180788 -0.4505449484750886 -0.8455617819758856
Ni 8.096117783383278 8.65226338887456 11.927402474960521 0.783796942063263 1.565250066484698 0.49358958627038857
Ni 1.2852437008853625 1.8010924101995835 12.94635783989488 0.15716793670498094 -0.4910670769588511 -0.6715940001047467
Ni 2.3693196325058565 7.080982519494276 8.47058363081913 -0.8793787305253307 -1.9917639421525113 1.5205049010585234
Ni 5.118749099824744 5.683436604020226 1.1690123991936985 -1.0536036227125984 1.084262485249036 0.17660316261145714
Ni 0.9784153460133718 9.261206684502593 8.445294207927057 -1.1908354826152845 1.3386217209950495 -0.3915232185252418
Ni 7.262858825055331 7.1840162616612835 10.221235989444702 0.031975781575648156 -0.5927266961838824 -1.0169188656970551
Ni 5.2112754682313 7.08742853247498 4.054416411719573 0.5771036449346447 1.555333321591618 0.36790840731977925
Ni 3.8042840944300336 5.541233086443014 7.118848188232083 -0.6745993625899737 0.18723673106590333 -0.7126753435260887
Ni 7.112905187825017 4.144413744686443 9.60734640350922 -0.5071596116453394 0.20524705160039491 0.7486592178198654
Ni 9.158163627287925 3.215116644984132 10.859857026917425 0.38582256859603875 -0.9625441476009164 -0.13684233777375143
Ni 2.920220866164572 7.252779943487236 1.1628961389001573 0.9352534302057636 1.3046769886184886 1.7280849716674689
Ni 3.3979710305494857 7.865160491701801 11.957545969188208 -1.0565475358322707 0.33090251951939137 1.24441213029016
Ni 2.5171960141079954 2.606750882311017 10.51435632018027 0.16969435130676583 -1.4489001922373435 0.17621672580631587
Ni 7.548439556214914 0.6373933141911362 2.976291864049039 -1.9011538958734224 -0.08795126850000337 -0.42467785090033955
Ni 0.41143727159830173 1.8210359272395948 1.7785602414148645 -0.4703822949159899 0.22402253243568515 -0.5900051834876614
P 1.3071247478386494 6.597540860989115 12.088590991173534 0.9936663229270178 0.027370421593152863 -0.7652353770109918
P 2.5314014617894607 4.821077436802511 9.13088264720615 0.6565553606040693 1.3736889970118278 -1.1471727516200112
P 5.372109081128467 1.1815020150961961 8.559215377799047 0.48036408871905006 -0.4685354715152383 -0.07945865764795992
P 3.2599499693716023 3.2552086101126743 4.928529306074648 2.683742162340565 0.27202374290531217 0.7525860636780974
P 9.027697069762283 7.5070062242233355 8.820842463900998 0.7959127514901906 -0.1589139728618102 0.31366558681581463
P 5.158487093142209 7.217829884667002 11.003240761033155 2.0018586073843525 2.2210186695214134 -1.2247701876895165
P 1.6402122220641162 3.6197064250475846 0.6516686247300513 -0.1560901302597699 0.0747586810691293 0.798896773819179
P 8.370501827255568 4.381258146489025 8.001550488034422 0.9098645578190137 0.9203752275423505 -0.4327351739871773
Ni 7.1853110532860205 3.5052803795924237 4.523408568294577 -0.6037083920063668 -0.7207861455586811 -1.6721909887133266
Ni 7.096436183562178 1.6799036401432794 6.060410062286145 0.09347888318645191 -1.3962478561489502 -0.10362651314341507
Ni 3.5533832857085463 9.091644871948027 9.841310592575338 -0.2876215973435692 0.9365513230815807 -0.20043986001973868
Ni 0.7832455359367622 6.4191949584911905 2.8707411960043046 -0.6192280849085207 -1.7831721424495999 -0.5207728315533998
Ni 2.281050240879912 7.844425195610691 3.7273893075016873 1.41863290871237 0.5041269954666028 -0.5612288826859173
Ni 7.702519759558598 6.618769854606204 7.33570342926112 0.09225246697851855 -0.49043458558117475 2.833451585884972
Ni 0.8760839584399256 5.507633709533476 7.234759983789011 -0.42911891739082875 -0.09375990476198046 0.5284686575357608
Ni 3.162169914084821 8.818276168270675 7.521364438686424 0.32701938241490125 1.870086999265289 -2.2082107191234677
Ni 5.160713389532943 7.726794773760499 8.818047949603006 0.28169340478459226 -0.18968236439291847 0.3217203387994911
Ni 3.703215827319281 1.721010945466759 3.3003325639871357 0.5279001866268006 -0.6310320195219843 1.0174132888349703
Ni 8.448077544167857 6.327916806471073 12.12361557037505 -0.5749086941658551 -0.7816685828663505 1.4206738504017986
Ni 1.8564237932998484 1.1739381963962945 5.698727254754079 -0.06695486875399437 -0.12914651179139047 1.0780630413065433
Ni 1.559991031616392 8.737244568676532 13.4935386435182 -0.5784593876315909 -0.4130927171659015 -0.8232219808281049
Ni 8.47589227648055 2.2138328569655163 8.595030804546894 -1.2630572561951732 -1.077418722854325 -1.5594887385208884
Ni 7.36560380074488 9.20084517566594 8.135635941575964 1.0830021304793735 0.20495703116380187 0.29415939846208694
Ni 8.829556690986907 3.3899228293712653 13.437027975384181 1.1235615399589747 -0.13816928411529106 -1.3268828352915665
Ni 7.2167493391384445 2.882466977998684 1.2376354237999851 -1.2777863348752316 -2.231517512170208 1.273854089700361
Ni 6.443376822216492 0.22603987802177422 10.376399532831242 -0.010858025760426462 0.9747291197028827 -1.2947080503312347
Ni 1.064272140295382 3.411244973464953 8.808913613867631 -0.5095988172144513 0.3429147134889191 -0.2471336645318518
Ni 8.954024357819524 3.3662346631719426 6.200467392882498 1.420085581998496 -0.3584914848812536 -0.01814221812666553
Ni 2.441297005774501 3.4655889615132605 6.913622784206527 0.4835725683540188 -0.5611895448075497 -0.2264311418771778
Ni 6.550043432970892 3.8543804207453913 6.834562248697237 -0.6982283148628233 0.8192128596687116 0.9145781612445991
Ni 7.5020785640112075 8.277016008940036 5.79686128185194 -0.10306164177888058 1.002512203353422 -1.6660738200719953
Ni 4.316760756491343 3.4143096241450857 8.97543313185645 -1.339858421615628 -0.9069751520863606 -2.4492169306013434
P 5.041890641582273 7.927841447405789 0.48606570743097555 -1.4001471912033565 -2.2307330685957 0.3125273594463134
P 8.968211175405669 1.1026315065591685 10.27825153316189 -0.21261814725348546 -1.7951869075222886 0.9055389338604662
P 8.944271502919527 0.4731243117169691 0.14353184337352565 0.8289755954824305 0.4044134442243486 -0.3841768054624996
P 5.968048570223171 0.5084982052057327 4.5706768461403655 -0.17345510390077867 -0.6914637424454801 0.09044215324265714
P 5.350870772463718 1.6486050800057557 1.1840543381550297 -0.6546177772617242 0.0369143565278461 -0.6230965667249914
P 5.684470574310484 6.456892956371119 6.341138585119646 -0.46277979997838364 0.31197765759043045 0.15216148462932502
P 2.6513699606023082 0.5443266730203034 11.630382865274486 -0.7820606760984466 0.22174273526257296 0.8546110366623475
P 2.718503509087764 1.5956210889158051 8.201526862703581 -0.22962548044475936 0.30762709393121856 0.030740623616966414
Ni 2.9403506841577824 1.1373300590925837 1.0339442081240282 -0.0037345273417677626 -0.17980855692263228 1.2544846840348136
Ni 0.3067966837099471 5.659431726200466 10.199558942035168 0.6869758818774556 0.1133213718336758 -1.0267723614523672
Ni 5.117873485344708 4.880712371921686 4.715750329901617 -1.0593222703639305 -1.2269643671273578 0.6403242434571875
Ni 5.425055812027778 2.700432316627408 10.703712609012289 0.9438028624376713 -0.33996771504545326 1.3928223754071691
Ni 0.9678613970146174 8.217166827724682 10.670146766274327 0.12300337500813008 0.3648112564516943 0.18392077931879294
Ni 5.435432775120992 8.833105724145359 6.834821207022185 0.27847978294330106 0.2845930949298905 -0.669097458935138
Ni 3.939072834069905 9.146678173523174 5.106636743352477 -0.35866220613116295 -0.10215327103199826 -0.8182260702754102
Ni 7.682138435278568 7.555435157007557 3.373258209107566 -0.9482403293837347 -0.4964964755045385 0.9753281867394621
Ni 6.73116521967149 1.6258391035247712 12.359053399980974 1.3047273822404497 0.8318110080486965 1.2186512192759722
Ni 1.5532935123488685 2.774263384380388 3.9576591486658574 -1.4029049564541516 0.748866191624349 -0.8402401126526562
Ni 2.267077669389946 5.266560276093265 4.985216960114205 0.1638970278986984 0.004099109770038102 -0.4899185651767047
Ni 0.21560143561400372 6.721328529342553 5.147142296597122 0.2893234105260243 -1.0598102657439428 0.7379793695085162
Ni 1.574364150155737 4.106659856520555 12.17604997365306 0.42378284988989595 1.6679175581489536 -0.05818432165021593
Ni 8.95898927822229 1.6855019837869256 4.176054167073088 -0.285693784193237 1.039152737394591 1.8008482195731244
Ni 0.8884049719797774 6.029304323635182 0.4305750370157249 -0.8948935383314781 -0.6261147847260249 0.8692642677991481
Ni 0.2845961306219233 8.844591177910111 4.636471822277082 0.2244310807280135 1.2224207136207335 -0.35534188350867835
Ni 4.013406914396524 1.8391350648429308 12.807732232123863 1.2752483989447263 -1.2984351214738348 -1.8230309263177507
Ni 3.1362554514947645 5.771892296599371 13.199027576166996 0.8677791986131894 -1.8581349691097353 -1.2120123738032158
Ni 6.740927389619145 5.441617966767217 2.8896917289637623 0.3178066055673817 -0.7091058810072756 -0.34935635534920484
Ni 7.129737478946596 4.922732551915844 0.29874289350313077 -0.12021784184319295 0.6125481017851838 -0.5888013929875473
Ni 9.234481812766118 8.50112674059143 2.129486963413954 1.992270706585601 1.1042924073167175 -1.877763027753308
Ni 3.7077429404820292 5.798216621286467 10.752370691968945 -1.2802232264514986 -2.0012227735725663 -0.7471492089332422
Ni 8.833226819764938 4.394019761783194 2.0526070805618635 0.6916907708546217 -0.26756467869269407 0.18457589640428854
Ni 5.361694857844612 9.006365610620936 2.2309064078214886 -0.9314980769283893 0.7300724559566136 1.975368531513624
P 9.170394284865475 4.376339801324558 4.178889667580785 0.8546274917225798 0.8019268188947544 0.20688870096887596
P 2.190088800480234 7.413352735049924 5.858048103911267 0.5697389770394575 -0.009443661911403091 1.3282005256617255
P 3.729642617530636 6.031716920979116 2.9526921908024866 -0.5348624768772465 0.5239288606838783 0.15636960917340167
P 9.077430109218902 1.0734660923357797 6.6584584781710685 0.5792060359896283 -0.9522250250630955 -0.2646559896863313
P 3.853923983410053 3.7691663647519196 11.830331294800665 0.3457709519907916 1.2360475603755487 0.776784772411488
P 1.8637454207605906 0.6620576973852239 2.9428350073686986 -0.6410634356160573 -1.0707693358586075 0.9155353829515458
P 8.1612113364312 6.478690167895466 1.283879046403176 0.5786784456209324 0.9891874612200575 0.9280204027924341
P 7.424595997575517 3.9647264753254823 11.758251456007761 -0.10801924289447203 -1.0671335388782333 1.2478643505048188
