# total energy = -381164.9436841422 ev
CRYSTAL
PRIMVEC
9.30156955235575 0.00000000000000 0.00000000000000

0.00000000000000 9.30156955235575 0.00000000000000

0.00000000000000 0.00000000000000 13.61378725693627

PRIMCOORD
 96 1
Ni 2.5709445127856925 9.172473033161262 2.1377183316139035 0.5440960796603725 -0.1666869319390097 -0.10817222353256854
Ni 5.397505457453785 9.22750111842076 11.244756683540627 0.6446655511450188 0.3795583328538818 0.21864892682859763
Ni 7.87903398247755 4.427286645898254 2.5533608257717373 -0.6701086738084717 -0.6471080991482404 0.893979511157641
Ni 6.519990961994102 0.7022415239426795 9.146926272484249 -0.3665657772489558 0.09357607088594852 -0.4996715307984105
Ni 8.459442618736418 0.12402619777579926 10.924587359213854 1.2605154636099258 -2.398126025462799 -1.530775686856912
Ni 6.181534751997925 6.891123585701673 0.9262233178995298 -0.29695367337777245 0.13566554385683088 -0.4238586974331539
Ni 5.125667088334643 2.793196214812477 10.948371472467494 -2.0682177515358764 1.3198061309504432 -0.2303289342696872
Ni 5.47085763466075 6.039527690189819 3.0281557211126775 0.7167160892543656 -0.24276818847430445 0.3055221317730738
Ni 8.007590974764828 8.31241270938941 8.364351743412485 0.35707300726717217 0.010206508219356616 -0.8192383135900084
Ni 1.4052346147022905 1.7058613414749404 2.4837674128063822 -2.7775257212516293 -0.8128758617070904 -0.3674191263881866
Ni 5.5489908185991865 5.201158626530398 11.701594898930004 -0.3714760700663796 0.6716060842896046 -0.434378108907239
Ni 3.1645706793274773 4.658142299727783 10.635267620345438 1.6259448132615935 -0.8661324070383857 0.16494809487103207
Ni 0.0062292611051869866 2.384243409450896 4.400792985444462 0.24040251645560531 0.3555457719893683 -0.3066037948730268
Ni 7.338873237516496 7.293416467289455 5.365220639819033 -0.4060311823334298 -0.15769038486735423 0.2689330197951304
Ni 4.145960675872301 0.3415024740128231 9.1012118487816 0.38667077552894696 -0.10710007351431232 1.971114641333276
Ni 6.880101225824643 7.475848150216186 12.240605039741869 0.2520449857905401 0.0769492609625449 -0.21319767390603928
Ni 6.991831678856608 2.3401353668037452 13.50331170474313 -0.47033138707339645 1.236221881169884 -0.5015679764901749
Ni 8.353023361898364 6.6894934632929255 10.17105140001559 -0.23893544499177558 -0.02168159873849169 -0.02133552825298261
Ni 0.6374644636729577 8.181148960372838 7.25650225850635 1.3904047671046118 1.3250817775270856 0.30092628487227524
Ni 4.790940807714575 6.0609771094948215 5.5966957781783595 0.13993100400140418 1.2819607779678956 -0.29441316634410586
Ni 9.07276020794459 3.733752321179952 9.646089419644463 -0.7610879305015215 0.1424861663230901 0.07028110491374992
Ni 3.442399259215233 6.072436643139126 0.6378681517899729 0.9733841756392141 0.20841362225383464 1.3921664869907249
Ni 1.03605532059318 8.238353612899191 12.105679262806659 -1.5317478209621942 0.3309081759463462 0.9148913216096437
Ni 1.8076949245413687 4.8280912763633985 8.897644209442571 0.6045157183990105 1.080215825983488 -0.10820359099113623
P 2.9804926185963287 8.178786361715652 8.140227635442033 -1.2649696427265376 -1.0193719552232379 -0.20380183451343611
Ni 5.242271563793242 4.178823120974027 6.886860676392271 -1.5776720942981346 1.3507850958304608 -1.7247011427969008
P 7.623622185124511 0.9126346549929035 7.223993273046251 -0.9776159543323745 1.1263601857500343 0.1734324781929594
Ni 3.395891411632831 8.48166406831129 0.015862896653405834 -0.37090348539236123 0.5160368595303113 0.7531236813491223
P 7.278896717274229 0.48850633896518414 12.443055560581971 -1.9102432597692003 -0.6876088874757642 2.5759679455773634
P 4.694678864788519 8.977791183181326 1.780192973951991 -0.026159174893871078 -0.49156638519277274 0.7807545556925134
P 1.5315313255970628 5.03967407815478 1.394963821642193 0.5099924531084442 0.47847612766771785 0.2882965119234067
Ni 3.0326837251533005 6.128366980641723 7.4136597167429015 0.4816997768113382 -0.19628470020078456 -0.32947504304424546
Ni 1.4167313546246607 7.2985323305235195 1.0291340227159667 -0.9262332289850242 0.2942033643261449 -0.6685762963243453
Ni 1.6628973918783168 4.099955113043789 6.475615964301828 -1.1539895174315289 0.2553789352597795 -0.3355289625478093
Ni 6.706794382593579 4.968061294447397 4.907865257164541 1.7436553153019 -0.3261493211051222 0.862060036741225
Ni 8.584595236580663 6.733582902801043 3.3750345023060264 0.24763322987608966 0.5977375191349125 0.6670097231681739
Ni 2.8195289581136334 2.9868455905760847 3.2781316812402848 0.9576960754799959 2.4968371035824677 2.0430445947043587
Ni 0.921870183365817 8.38149546618831 9.579355309148474 0.4827976378612072 -0.9599879568379659 0.7331948036356791
Ni 9.271841700305822 5.795938187692227 8.090578647833913 -0.5414298456821192 0.5942978973257442 1.1407200540161324
Ni 7.067583660998825 4.785080818919192 13.436767346265277 -0.5318404022214711 0.1675683061026985 1.0627891458666083
Ni 2.491378887141718 6.300204175889184 12.218442190054953 -0.606526321071136 0.3813174816368336 -0.9442834016185156
Ni 2.542146853562669 5.808392989274795 4.963042167536304 0.6762685227622804 -2.183376690798924 1.2072087817669854
Ni 1.8356647440774256 7.258544883172169 3.3623062345796746 -0.9341244588076428 0.4203614829131728 -0.15571012121253183
Ni 1.5655564668883484 0.313192217032463 4.386198822873105 -0.1546521122616627 -2.202156799619904 -3.373886414643673
Ni 8.882040826578676 5.894916188917096 12.370562848398329 0.10663264695959056 0.5429606805043489 0.9941553467482943
Ni 1.4207124263777144 1.44041315061362 6.05923771599524 -0.6722676291330035 1.9479536298357805 3.4632062813564293
Ni 4.363050006817439 1.5595290498416692 12.948645162121123 0.8357507094227348 0.21078546492012087 1.914552942888148
Ni 6.260226030107351 7.6973092188340715 9.551841266518727 -1.1156952498370203 -1.1813026034241847 1.7093889379198628
Ni 3.099245756613235 8.684549902604761 11.345729871426782 0.29650501587612804 0.7170040528084296 -0.9441396769517999
Ni 6.288735340675363 2.4542563232014443 5.661933266139147 0.7755678692852513 -0.2524797593351136 0.19400670279988524
Ni 0.20627532622527803 3.590945324393427 0.49256275343132133 -1.0310352504937792 2.0730388270736038 0.4420235412676387
Ni 0.42380927219330405 6.370300803765381 6.077916197741285 -0.15742504702110952 -1.3350928819061845 -3.196390565014618
Ni 6.547477099915301 0.3507305611301234 1.0098444278526895 -2.699102446846719 0.8718749659491178 0.369407360462809
Ni 8.414348609720518 3.5526879689721422 11.975967015585434 -0.9370927974073473 1.346782402428971 -0.946453412686641
Ni 8.628554454115548 0.00489262556566874 5.600943804976536 -0.024448877070983702 0.37623235380444237 -0.8625554883204049
Ni 5.541530959846969 9.149042379549247 5.588078804178292 2.5290034039023674 -0.4831845888869807 0.525499804715424
P 6.975060949018393 4.855865762939609 10.125744385057764 0.35026626875798383 -0.6225129263073795 -0.786907976888419
Ni 4.184171523446003 2.111949263425446 1.7658992520760153 0.8859669252658096 -5.133288194146553 0.3018390264945318
P 1.8680249044252613 2.905224318068968 8.279115880991263 -2.102703444017572 -1.3349455576950429 -1.4482967543253895
Ni 8.483515080645068 1.9879686433402772 1.813601421184334 1.337087286628394 -0.9390859165779764 -1.0035303602052912
P 8.468511649014985 9.088424051010344 3.3017381345161603 1.2295889492343985 0.5694111613863935 0.02671093363228303
P 6.526250918278692 2.798693442396717 1.9814324304410464 -1.5316004967510528 0.9643164090099908 -0.910863174286857
P 0.886696298239246 5.641290292911222 10.714935563254093 0.7438844221390415 0.5483733668794878 -0.6133639128182597
Ni 6.670146198698647 8.046164583549672 3.0390060019536524 -1.5620757825217744 0.9541237847477052 -0.06453160402448241
Ni 5.016559677906327 5.310842734268736 9.101715063692444 0.8380449047735503 -0.5377331135568223 -0.3359233697727505
Ni 7.0562264446192025 6.048354879660958 7.46403143630245 -1.0708814359564396 -0.2807572661235681 0.014471454143297658
Ni 0.8550244540356299 4.956341316856632 3.556056997451012 0.32650619022390864 -0.8251857894226949 -0.2946671913364409
Ni 3.3244367546072278 5.438209125657904 2.9018329658232593 -0.4601130517794979 -0.8955622822637287 -0.4439847787590676
Ni 8.334327207170237 3.7384403122162584 7.169973477922339 -0.5617798700933809 -0.658446406979195 0.5276767577620848
Ni 8.46040998196613 8.825440776070892 0.8944612484716039 3.2740227109768 -1.6736506039779886 0.057157937268230596
Ni 5.0785174324556035 1.3780647301446514 7.3583879303620705 0.3730238741694737 -0.1879116456457409 -0.5626293625778698
Ni 0.16716966766409075 1.6899091497541763 12.795720848171522 -0.9385598688711773 -0.38277272602612145 -0.9929883230233867
Ni 3.479642743559221 6.877236342413568 9.906820784603978 -0.27008230290822516 0.5849748201526055 -0.6218338979624839
Ni 3.742244654148499 4.305259355411547 12.88237240947315 -0.4768925852306819 -1.4858430880102798 -0.9525687815557594
Ni 8.647650576332882 6.019036332545012 1.1540103839455724 0.6318457736725311 0.7318017799428946 -0.7211340158164032
Ni 4.752655547584741 3.953046124100496 1.2008140214385987 1.8567748555374153 3.9549816972362146 -0.3244122838093574
Ni 8.901704344536514 1.3434814946823768 9.05439332877735 0.1185967613000022 0.6382254519466298 -1.5015234748600141
Ni 1.3790227918048488 1.2695154138873237 10.705950247101173 -0.9669705588033861 0.1286618588454881 0.02496078371039572
Ni 1.957571114160419 0.811334982016721 8.369456444763129 -0.6471605496527307 0.15927495574565476 -0.218631700437417
Ni 2.4198963254075654 7.81975507994902 5.738837712744456 0.1320120062646436 1.0345360645581863 0.9069736094244638
Ni 5.3271762903396755 3.729836360413514 3.584945812055297 -0.7735582950543903 -0.8773984668705084 0.038561405212965846
Ni 5.048222220540426 7.621650252387018 7.664153774292576 -0.1461553876445612 -0.030833183330772704 -0.9818047956027414
Ni 7.159380850556971 1.651093700161903 3.5821004619402053 -0.9966061222816319 -1.4960285131837139 2.2342853047233326
Ni 7.099683377400199 2.04478262994694 10.931993268862875 1.6062643041135303 -0.0368783610835881 -0.28192711806195314
Ni 1.3355286527457857 3.984531936913782 11.962312311535241 0.8685754692622396 -1.149355618203943 0.7368606825230406
Ni 6.211523012119058 3.1509531815553498 8.415117849519532 2.550316049337214 -0.5208975300567222 2.9270078592765785
Ni 3.807337037624829 2.920823050148106 8.888114751472937 1.050333693712075 0.17923083004229132 0.39480111794556527
Ni 4.662979115876353 1.344709301858552 3.847814677689697 0.049800725572211005 -0.23067114810045433 0.7018152608831333
P 3.2940764317054354 1.635550777499864 11.259174116291174 0.7987263096795857 0.31574483794234653 -1.3019503337159448
Ni 2.3275782479564966 2.705677747231912 0.6707482698737799 0.2413484253086424 0.31932252799127586 -1.7932698930052344
P 8.891454014929353 4.323285797134486 5.264288378838752 -0.0637445893468128 0.909217411153318 -0.92414549321806
Ni 4.239701893459392 8.120298092596022 3.88092361438361 -0.4754537959016263 -1.0854858161331757 -1.2420343740866029
P 4.59416610459343 7.180262874121469 12.429687344872885 0.9321117992529884 -0.23636434183048974 -0.5939258586983062
P 3.558352624807679 0.24283049442504637 5.429981887420576 -0.887855143427458 2.328192533696455 0.07263752096106844
P 1.2494333253012424 0.4175372238683413 0.277405358474756 1.6889244994179233 -2.026978799490748 1.74362677605681
Ni 3.433525561896511 2.585529373787534 6.219689790154529 0.8410119578216743 -0.34726579136876323 -0.6491256437989015
