# total energy = -340895.290451278 ev
CRYSTAL
PRIMVEC
9.03664492230812 0.00000000000000 0.00000000000000

0.00000000000000 9.03664492230812 0.00000000000000

0.00000000000000 0.00000000000000 13.22604328187155

PRIMCOORD
 96 1
Ni 6.355418127593947 2.1658126795343646 11.507160578522608 -0.32415697326544174 -1.336589263946053 -0.5170516739480708
Ni 4.652317812739675 0.5426469106728701 6.059630667225446 -1.1658225055107148 -1.8125056013063945 -0.24065679855825653
Ni 2.677575952649023 1.6202613911955273 4.702480228495069 -0.30888719159056477 -0.007249482473561708 0.28302035112613194
Ni 3.608079276434451 4.290327891945301 4.720507431375709 -0.6283817263833306 0.033443110149794016 0.9115589148023011
Ni 4.926670351441487 4.46822328314701 2.7404493130993433 1.444334427243532 1.0324660694030348 -0.27032707192917965
Ni 7.450876367106084 6.054524962865547 2.605226766372526 -1.0819747176561239 1.1234941770561488 -1.2236764404047054
Ni 5.251555808338969 4.411762325906926 11.522898799253934 0.06106704251464967 0.48477147375812646 -0.3982124576199593
Ni 5.3651825811201475 7.750793574186929 12.197122874107103 0.9639243157778947 0.4720828225468644 1.2930442894755667
Ni 1.8495933650813834 6.443597708379596 0.48139110965692467 0.3303780144744891 -0.4987235650628443 -1.228726087013471
Ni 2.658779731288688 1.6444163429725347 0.2937587335918695 0.2117069482931257 -1.1574401949842907 1.0878563732478814
Ni 0.5890446601692663 9.208521870484867 4.748466810649207 0.41319119041697877 -0.4055380447470951 0.4823080998192984
Ni 8.495277563019235 2.223746609890666 1.4010748585218098 0.2890251625593151 1.2264483467228877 0.08508603113706638
Ni 6.672812205881949 0.5557157065052338 4.7163677443539935 0.5005040540020348 0.5678636143936155 -0.6482468407383739
Ni 0.6965165741194237 7.308657649909473 2.37474894591528 0.07766994117865333 0.642340502556268 1.1267309388258917
Ni 7.447071939609593 4.00199566360674 3.6466982820140315 0.5029003221483532 -1.557172431682886 1.320853598378351
Ni 7.458602698482569 3.7902218907320044 12.712978843690076 1.752529992083711 0.7948655411725988 -0.0958260432623898
Ni 8.041113864400142 8.92042459491331 6.698290122470088 -0.6980964172706493 0.9106855110584122 0.4891271796236608
Ni 6.827953325263791 0.6579725726923868 0.2248497980230069 -1.2518433897572248 -0.2564451717407648 -0.16856975078401937
Ni 1.9758804773461338 6.497094646097473 9.173398239146719 -1.2260066311997788 -0.03943043808148048 0.12177747302082899
Ni 9.205810877019434 4.775424026004984 1.5000053357268768 -0.395780451139699 -0.4577165265228633 -0.43223715130483625
Ni 6.40722521271837 1.9018432458051606 6.939797168009203 1.070544621442311 0.28936866194166294 0.8251395095657919
Ni 3.3134123600316614 4.239442544599124 0.7063990489654152 0.41715814548452673 0.6502109064432803 -1.2463340299032213
Ni 6.149970006138556 5.820304164097028 4.8398191574539 -0.8427428244698518 -1.0677164079648966 -0.3466027038634676
Ni 5.298510215160267 2.7791388045090253 9.363959391818929 -0.39311601693365844 0.541941495211215 -0.08315076178756647
P 0.2384128983305678 5.3708304841731325 12.319490793485325 -0.41443123347166694 0.03524673901743607 1.8674153659703967
P 3.9417393155150506 5.862071536754464 12.475531059033202 -0.11623983103205142 0.7471589791252552 2.0536532234581406
P 2.419742400796582 8.458380941954692 1.3513046331544152 0.16856615123959356 -0.2704934223037148 0.40435456596195524
P 6.263750401882776 7.719571966110027 5.815200267066105 0.3896118604351419 0.5723080233182143 0.027855074539055252
P 4.556032361492382 0.8945790457104879 12.697583111799883 1.1972182462131769 0.35610627247852866 -0.8305964189153049
P 3.991016140071736 6.3348055406117725 8.36727077723291 0.6166862923232734 -0.804011212227609 -1.2324343891029936
P 4.553827420140496 1.0952232867451326 3.8559607712752872 1.3540601670373067 -0.5927092126823856 -1.4086673128592258
P 9.240601959825824 5.629152014849351 3.7839179272603842 0.4747886515138017 0.13954045343120483 -0.14125280813662122
Ni 1.3312604511354926 0.9363952162503022 2.5421780950114408 0.6882321228820598 0.6299547272974054 -0.23750873984757806
Ni 1.985902116523351 6.639159740331043 4.869234340218337 0.013700123194911889 -0.8249055391781148 -0.7184258728566207
Ni 6.005239101663976 5.874876462556191 9.301069765407817 0.07086320266946505 -0.38430613195151236 -0.06870579000683007
Ni 8.617326488833024 2.467446849143317 10.361083572688395 0.8397112367323796 -0.11729706865197219 -0.026549725464070403
Ni 2.493906145365942 5.207565421039877 7.021574285893988 -0.6164489795014867 -0.5157301269231699 -0.10718749102179605
Ni 0.6113850536534104 8.847977812872058 8.63937048036495 0.4902340395345944 0.5356417782454324 0.7697818587310936
Ni 1.4943176714363984 1.0235717294537403 11.416217591731193 -0.6023698757006013 1.3691224606870678 0.07244391689302362
Ni 3.96903901971196 6.733339653320182 1.6139212811443682 0.6323738782618593 0.596338839015173 -0.4024552920567134
Ni 5.870041857542836 8.10905136064389 7.9535469681376805 -0.6892703343385872 -0.2653378462447043 0.5124817951892013
Ni 5.364929555063374 2.701703794491376 4.985702234151288 -0.19229897608015914 1.1630863375264742 -0.5020282039560451
Ni 0.602102612027768 7.336092903779654 6.657964094671773 0.28441414614986504 -0.9029919990688965 0.524456193942258
Ni 5.094390480502938 4.387706777223651 7.26663905852424 0.8910530815394654 1.3699626972001762 -0.11390938312666189
Ni 8.121033951761103 7.190286638563786 9.040424009667232 0.13949828733935973 -0.03323767900720727 0.6678013658315338
Ni 4.513587240468587 0.24596934078321786 10.412745167830172 0.4184231282398794 -0.09196296076255775 -0.10416207393191093
Ni 8.03329716657481 7.518172261563014 4.45021957554307 0.22032220076596248 -0.5694656687734128 0.2684967035886601
Ni 7.214522920144757 6.097602649031277 7.09791495821609 0.25152870827575396 -0.7945811771629606 -0.6346958415268167
Ni 2.28664165828871 5.225891736866204 2.7300137955864034 -0.2608625840821701 -0.10140096624700602 0.42379004897874756
Ni 2.2224091864477193 5.032399096593371 11.411919763423994 0.5437206985988249 0.6983599553446812 -0.04574121079085671
Ni 0.8925873691778832 3.2937486207623876 3.7784426241246982 0.12836283954783057 0.6865791606596693 -0.4280187423481145
Ni 3.6884060128152285 2.6098553358825085 2.4414484218098154 -0.6244800773360794 -1.0054890265935585 0.7466912954602172
Ni 1.160766072094416 3.282958866769965 8.245009490264328 -0.4877454687847858 1.7798962999118055 0.7611648064860439
Ni 3.703741199184694 2.6623853525977137 6.9978332124527025 -0.7383490941431091 -0.09081933407641779 0.12966741729186698
Ni 4.167059019072066 6.836547174549214 6.187063626061586 0.2973431955067073 0.6057575612259116 -0.2387135587889566
Ni 0.7428953466615617 7.244786643863873 11.424206889473826 0.063643030771942 0.22766552850491112 -0.0669633533944266
P 0.234302128572483 5.581068027417457 7.94438200289554 0.5389109359150074 -0.35043261913251905 0.6532139549356621
P 8.58858092145455 1.6858041765448106 8.069513328279527 0.3302800554440441 -0.22177204583861163 -0.7352123482863402
P 1.8537050385039566 3.1551535981645715 10.477023726560075 -0.131137059858858 -0.5957107185128708 -0.7657565396217845
P 4.038051876696998 6.261120738221305 3.8232652864176777 -0.04841438674764565 -0.4015222387194827 0.09614665982660216
P 7.0402873701213835 4.1059532263612075 10.362141763804402 -1.1399662065692433 0.3620200668598023 0.8856694486300489
P 6.518547641053932 8.097863994276537 10.242988179011693 -0.9805606387829953 -1.3918178454020547 0.3149251702545286
P 2.3583112888698716 8.521881445560016 5.962803017285066 0.3002385147766313 0.6111005707053798 -0.4916221781313726
P 6.852370339742458 4.016011499823028 1.555012296804999 0.19099157012264525 -0.01650288275102964 1.027186309061334
Ni 5.357176113752236 2.861345163025836 0.47628269430356057 -0.9158603703911324 -0.2364687286188379 -0.5743343097196238
Ni 1.6073209157205275 1.3936133008404499 7.066171935729336 -0.26939478992289734 -1.1547523637394823 -1.5370453219157079
Ni 6.935832791898251 1.0060587116670436 9.30372744266843 -0.28353739997186655 -0.7283246200275715 -0.2910061975450859
Ni 2.8637579472100714 1.5944346601148363 9.291321936570608 -0.31211161206513344 0.2291256579902054 -0.3442084925996781
Ni 6.224567509662386 1.956713753545523 2.5372711968390074 0.6345528881910492 0.1976260447200274 0.7579288160472495
Ni 4.085774398333502 6.685571948459254 10.538207234416944 -0.6433298630527308 0.5148423250015778 -0.7846796017785325
Ni 8.37640049956 7.011740608930374 0.35121372176927795 -0.7902984906272067 -0.21895360255321 0.4837096081525153
Ni 7.473214953261252 3.6559825309686507 8.361199959199318 0.7869642840476511 0.46829404492839344 -1.2982949963515447
Ni 2.9969761661014456 8.242296689469919 12.318299763689511 -0.32840983500452475 0.07872177948193539 0.45760494064566354
Ni 0.016807255821195664 4.929534967869961 10.185282875770978 0.3836630990508747 0.13161399949527655 -0.9466171919580149
Ni 8.524185790005633 2.2850421721441045 5.650681821287331 0.03474743078351435 0.43118119923649606 0.6330084265220646
Ni 3.7883693785306254 2.596182892171842 11.518098533491141 -0.7486245079271882 -0.056668142116005626 -0.2180801988093212
Ni 1.1436145201031103 3.306969232228816 12.725304827312911 -1.259040421726296 0.04909881440917996 -0.09866222715960427
Ni 3.0871347721168596 8.501576104503924 8.039146586808725 0.7796494955537928 -0.3341662778723277 0.16956322504554025
Ni 5.640637590497902 7.761366448702117 3.339813821727024 0.39907249162740943 0.16359055240187312 -0.2876678772004723
Ni 3.232064482778904 8.38043084317861 3.688584938383947 -0.6123197878244615 0.08320681183648251 -0.09662642767649811
Ni 3.5370422109952235 4.3624493547707015 9.290899021590002 -0.43341291678049226 -0.20567359761485224 0.2483999328387851
Ni 7.2924187990515295 6.281118833351316 11.577787380284065 -0.13055804742693644 -0.5103855747818049 -1.315791096253779
Ni 0.5390223124095863 9.01662871635664 0.31325619859526305 0.15924178851487414 0.29189219969446506 -0.3049909418599521
Ni 4.586268975276845 0.33986098480053334 1.6982105863071204 -0.4297161846551954 -0.5844713981536257 -0.7905820833058965
Ni 5.9800449357252194 5.625085524651202 0.41855118479267794 -0.5604716928049186 0.7398986980184161 -0.15370388941578045
Ni 8.139233754559044 8.936979728342221 11.34318342777243 0.1090487126002509 0.2001974049916294 -0.17853560374747962
Ni 0.18692119211262329 4.768971861557254 5.8828513016670065 -0.5852028770030115 0.10134414486714158 -0.17791262545150005
Ni 7.840753374014879 -0.055238299187172824 2.259100675673377 0.12960031149935744 -0.8950812288622522 0.8598370609479773
P 8.4730383799578 1.6416692029275626 3.5483886223125483 -1.5402314329531732 -0.7041207690878584 0.3839387213097646
P 1.6911357970268288 3.1565271681870577 1.7088178000728709 0.14908824502064 -0.3521632286703806 -0.23342299981397865
P 4.836195462855105 1.0290117896743758 8.181061672737208 -0.9024970617103489 0.35897125273114955 0.9921231468096141
P 8.463405316510627 1.7262250891144157 12.503398264528876 0.5764855517346716 -0.21175168548813209 -0.6999386126857107
P 6.314626712584066 7.736334942371286 1.0810131626638215 0.11803446103862898 -0.703306243606363 1.0569982502164441
P 1.8519790393309643 3.336374474683878 5.776117681603936 0.46507065289508936 -0.1688911386791801 1.4467376373683858
P 6.885444460020739 3.9540291525583466 6.022862366518267 0.4656092990073788 0.7195134494938448 -0.0882906541172931
P 2.098345088824624 8.437497255625974 10.247207388508397 1.3438606007964855 -0.010744383000697624 -1.1029302368618683
