# total energy = -340864.4836014114 ev
CRYSTAL
PRIMVEC
9.30941823374257 0.00000000000000 0.00000000000000

0.00000000000000 9.30941823374257 0.00000000000000

0.00000000000000 0.00000000000000 13.62527459549666

PRIMCOORD
 96 1
Ni 3.281802676631086 8.006760683335296 5.311146008973453 -1.0178922853539178 -0.9471404114513365 0.40066837535961963
Ni 0.21575321600756467 9.048568372829964 12.64492232877273 0.18594089507261524 0.11955346878631669 -0.5836316758611497
Ni 3.1417052410431956 0.3570850804584334 1.821031134360278 -0.7661789718711837 -1.3510146953427635 -1.4033929518341637
Ni 0.4798278985021056 5.125858795205567 1.0695292752275165 -0.24371306888607705 -0.47821053271115704 0.21049107360815358
Ni 2.6967243570199653 7.4960087592144875 11.393127676948689 -0.6893328121454063 -0.18979986380738928 1.0524841643961744
Ni 5.875294894423587 5.841976486425111 9.286782422304398 0.5480002998107852 0.9217335413424578 0.41980252508590926
Ni 3.2434571827652796 2.8259111543920934 5.282900302991845 0.5226160554097258 2.319932607680508 1.1607168088530333
Ni 1.9545775323095753 3.9943734794886803 4.111957948867374 -2.551163484939174 1.073529672212564 -1.2183542568608439
Ni 7.324277920335504 9.229841365438604 13.629771273506886 -0.502605930836386 1.6668173831062392 1.3411030926560066
Ni 2.365141496978135 7.1428280487796805 1.6467914072567658 -0.8985211077817363 0.4395323994146688 -1.1664205441060298
Ni 9.119040669155325 0.5879567917410817 1.1997363848423477 0.8968516904991135 -0.1559546331231701 1.8207225898995483
Ni 8.525202186949466 3.3878555695952204 6.831712875752506 0.3850494378754401 0.08275018391503813 0.3397257742379762
Ni 4.951269964916823 1.5449538188865712 5.646517802252326 -0.655570885203613 -3.2219699561456188 0.6262423114428247
Ni 4.363268487968032 7.789022699351963 2.522147628974976 1.625254729173104 -0.9098095362113622 -0.5526671091588353
Ni 6.840039219455728 2.108173624393076 12.448064439033539 -1.3596271196021228 -1.7150371373445754 -0.6463758489679061
Ni 3.5669222300731978 2.696156482505322 1.5782703650013927 1.7873262738272897 -0.5847007405556124 1.3413095522398577
Ni 3.907935530825409 6.880898256255201 13.604714043283725 1.2662575083000258 1.0472252299900804 -0.7980444531212126
Ni 5.430649149458178 4.976470560181387 1.0464307466089589 0.8114442714668864 0.7954363260744044 0.5564018936109192
Ni 5.2513032064320155 8.51864835648539 4.472033214475043 2.0187980634521683 0.790315202797755 1.0006023879252186
Ni 2.885193529953505 2.2969593175478935 12.463120561206194 0.4130500368534242 1.359303417714117 0.9334405453667407
Ni 6.143648185556323 5.185439072151709 11.984191952509242 0.5793908983069248 1.7828834075645876 0.615155971721676
Ni 4.046431746470372 0.051985653519164066 7.470792337938859 0.79381216020742 -0.334972575823707 -0.8286909743624761
Ni 0.09598848086937228 1.0242780548869213 6.298051404204078 -0.06599044795819603 1.1014906762018641 -0.08788621959002284
Ni 7.125838360431757 1.8087548044838908 10.101642320318417 1.5158846286776926 -0.002533565055131121 -0.15588701311002828
P 7.917176151295806 9.190927997058155 11.014263212440959 -0.770136413857035 0.7687637018792244 0.8628655633616559
P 1.776683858533975 3.0753011605030647 0.7620587394541563 -2.8803927305212005 0.4823327824096467 -0.412331927740477
P 4.910327143352895 3.5675273422609317 12.608311179531153 0.056451912340141484 -1.1020663461996762 0.25630093285341665
P 0.5606829890271576 8.361300568837937 2.89824533437202 1.1994851878704826 -0.47447317715591186 -1.6430912431338929
P 8.088097070785054 7.379250035236593 8.784023564712646 -1.722898542370523 -0.44325998477790113 2.6149870071530383
P 8.360081035044194 5.521890757950231 12.62130992026551 1.3819790049347618 -0.5024714621410508 1.4630551435814867
P 8.07226175030296 3.9316931662576837 9.044593251227464 -0.3271139990112366 0.03509581526186859 -0.42774646252333426
P 6.032959202292316 7.564637790721826 0.7497377243700594 -0.25410109698862043 -0.29185954668431674 0.7235138289024894
Ni 6.199262650318237 5.992202569093846 3.632320893439862 -0.7518507281739696 0.12525926092184234 -0.10325370318502863
Ni 3.7678194764009723 5.365343580274242 5.175083275265008 -0.5437147850615539 1.0859920663456328 0.6225437795453149
Ni 8.619655544745648 0.2996701742025521 9.015149423114142 0.40275893934006124 -0.33041349569811485 0.30009427588928317
Ni 1.26692804216836 4.601505810988146 12.014536001369548 -1.3572907581594624 -0.5455356403203766 0.9005702770012812
Ni 4.625905796281247 4.029367582776266 3.4893915328133747 -0.6497702193614358 -0.8175879224707789 0.14755946708093942
Ni 8.711036794511793 8.26965865536015 7.100770889848495 0.32684711850309517 0.06902049303377146 -0.4873518328907929
Ni 3.343133124212522 4.5900179888394685 0.19946731968106748 -1.8857694429975522 0.25232523603512025 -0.3692878041658092
Ni 5.450468900961043 0.9638785491327692 2.2670006786040835 -0.9679210956421138 -0.4015176107337924 1.578526214768314
Ni 5.912327760312923 7.810266791850572 7.129534199486073 0.2727307962746658 -0.34059223600332955 -0.28652399340401624
Ni 7.038273972157473 8.223660819674073 2.792827343734093 -1.5663934360605216 -0.9632666275892379 -1.0062287329730606
Ni 8.85949408770869 2.894642589500433 2.010831554106834 0.41162770258460074 -0.027256007502475643 0.1284785391900884
Ni 5.148657560555739 1.7903500845584965 8.933997362146187 0.9304565230377524 0.18459877922242401 -3.3236802261029275
Ni 7.7439651149114415 7.011630417060619 5.297071099486754 -1.7636014194065242 -0.023496540460043406 -0.9672855189406437
Ni 6.1012344759052874 3.8090229616765394 7.915480906228323 2.7600525041675303 0.9490491984382752 2.631696349487919
Ni 7.632931683171341 5.804971548790592 7.356013727227598 -1.0941023541575932 -1.065909436663145 -0.3629055547885492
Ni 6.627291083666636 3.5151432456396905 2.823933833950943 1.0571072649904827 -0.7999077315821966 -1.4600600655089047
Ni 8.721388867631186 6.1024726285355735 10.545921274203877 0.023152012636431095 0.5404980778964692 -0.8064655873053724
Ni 3.3566317807081325 2.7880032031851103 9.718036569084333 -2.4877299990748774 -0.26180052251540714 1.413553180196617
Ni 8.444526768197079 7.3597654227915505 1.0321836128842126 0.6169120351808344 -0.6504320213151508 0.6221789400067285
Ni 7.9584913495906475 4.448356570981741 4.539110365956299 1.0940846135457802 1.0641775415737025 0.18425116607501815
Ni 1.5847981290943043 6.492611729513535 3.5456371761341883 -0.8093151409390256 -0.8815276585475333 2.6060580800945248
Ni 7.558847332556122 7.44921962297522 12.332004852367932 -0.15189100457675775 -1.2183074627833084 -1.088443613209919
Ni 1.4519154926678604 1.4672294857266737 3.114587836556255 -2.3540709441251133 0.3105733210437361 0.016180466414604393
Ni 6.776139372430991 1.7044800104098685 4.536985025764611 1.472455096739148 1.1406853441234548 -1.734795293808109
P 7.371858357127962 -0.04377940131166019 5.501899713151146 -0.8885156598295924 -1.3963704977697435 1.904467533627688
P 2.281263638339894 8.762545805815389 13.483721395875346 0.6027192886202201 0.0750571861461546 -0.40250517145804227
P 0.3715491236289368 5.990526873804736 5.570257840586745 0.4846670869697782 -2.1878686651320063 0.5474883931713732
P 5.721372972700536 5.894909838724449 5.879101515555348 0.8691058878444129 0.4476370307996742 0.011359133766561082
P 7.878933061031001 5.464470266043387 2.3118683509118383 -0.23761981150414563 -0.8045004931592016 -0.35381361978961
P 4.413511418386521 3.012741869709615 7.132109184580338 -1.6347351578597136 -0.8616774565908257 -0.05805422383025485
P 3.436134212758142 1.4200307350834012 3.5974403650552045 2.6252084277707306 0.2290572666461152 1.0347353250531857
P 1.6981682248208863 5.868750373377784 10.255035467083571 0.09566406376322881 0.33815842975085636 0.09760678931189641
Ni 1.1674382890865747 6.856237607250462 13.201147037389028 -0.43170724694329515 -0.4100570156633712 -0.7405859538934277
Ni 3.3458794026030083 4.8658746711001095 11.208899874980252 2.6972445677023744 0.2631902037740822 -0.5008902336968599
Ni 0.06421543630418713 2.447231947307993 13.205316725833429 0.8879271343159741 -0.6020348609586857 -0.8664699928834626
Ni 5.607667737916132 8.861644563329715 12.251056667660153 0.16526459767018636 -2.768962919283283 -2.3479010678689756
Ni 2.8548168981292457 6.698415039271094 7.473286331094152 0.18608847639407305 0.06544048899199696 -0.4466109035280051
Ni 1.9044090772372684 4.494028577028269 6.64653178935293 -0.3116105040589988 0.5642077628085831 0.16893896119798002
Ni 8.366057681575354 3.8393251181546164 11.226530982247173 -0.46986756006310043 -1.6588670179109108 -0.48333191309812235
Ni 4.84817746696345 1.4738205538638407 11.115853170285096 -0.4974009895966788 -0.15141406494033924 0.9778257563503353
Ni 2.386692800279748 0.9018154503332613 5.551372754678472 -0.8653813878049741 -2.2404947759681546 0.3824631652055026
Ni 7.438085558720909 3.781038850348398 0.09179924264659664 0.37249525535951333 2.2100727120328707 1.667269383041993
Ni 0.46991616086701843 5.916582164463609 8.354255201089055 -0.4843937787037335 -2.1413252701548284 -2.5244615501679557
Ni 6.107481095566359 8.98908119006655 9.440503260592754 0.5089331586059944 -1.1139978075299395 0.21422020163328268
Ni 1.1397986262345283 3.933573668748796 9.334226010648246 0.10820461943240073 -1.6190845958066504 0.7038250922243104
Ni 1.667698498813898 0.8974632972907111 8.729563467816561 -0.39984150858295014 0.5339091118250417 -0.21592355747763461
Ni 5.781632837180596 3.6414906704386043 10.398469398180447 -0.7906535599737803 0.00282898480836287 -0.43605421105808123
Ni 7.0281639439131744 1.231096091236219 7.381097023821924 -0.2480608043318115 -0.021273307556479493 -0.5586693494888573
Ni 1.928567017655275 0.4378470768007571 11.040300724408251 0.7757226496955608 -0.8906319348416468 0.411540285077117
Ni 3.87299728404746 4.597512070549101 8.488696234134371 -0.45598591698500174 1.3026131641109242 -0.19732548276047307
Ni 1.1661163516918323 7.680549357636892 9.267598504069568 0.8336426619407965 3.8332880421784434 0.8655978746911545
Ni 6.068279135219451 3.5112519088016456 5.768259857831668 0.22792649547578167 1.9324208243075043 -1.988991264503381
Ni 4.069491175532184 7.549361035336104 9.518603694250874 0.45754323416979265 -0.06836563305859193 -0.9028061083103354
Ni 4.44221235492167 0.8893315204293899 13.360603408275278 -0.8837192668822135 0.9493898696071456 2.5074243921800106
Ni 0.5421972771627896 8.004088880290992 5.159864238272578 2.169907709778211 1.850951821097735 -0.9255452017790641
Ni 8.467167273436614 0.26853110102174693 3.763232726017947 1.4280156354788502 2.1765504119057093 -0.1239341143525156
P 3.628392318928726 0.3942892396439903 9.49511323912303 0.40633791494057114 -0.41921245691039416 2.0992391396180556
P 3.0771909724124504 5.1418523757982975 2.6886344725408717 0.3892328798291684 1.2885286609934001 -1.611225504773548
P 4.73839149727191 6.808871287078278 11.531042984893428 0.9234152999202548 0.33496871916896503 -0.8395615985283928
P 9.336881056739658 2.803065841950557 4.278172957419703 -0.4295881437177634 -1.0891064436048985 0.28433315640028456
P 1.3319915664772026 2.405693322974604 11.117134146239438 -2.086431446330426 2.0168969897747133 -0.9539695185580281
P 2.0232438014900045 8.711697763209164 7.291429637959806 -1.342127420155463 -1.4785660947328925 -1.7669687932168598
P 6.855958324702277 1.7746171676774056 1.0630033730182595 1.9684892878952873 1.3832740695971018 -0.45615303869048535
P 1.3233151886469205 2.591984092032301 7.498806239405474 -0.9932330920443411 0.6493200191978946 -1.1470621941840762
