# total energy = -340885.0805347417 ev
CRYSTAL
PRIMVEC
9.13463463317323 0.00000000000000 0.00000000000000
0.00000000000000 9.13463463317323 0.00000000000000
0.00000000000000 0.00000000000000 13.36946112867078
PRIMCOORD
 96 1
Ni 6.627533758365797 2.249842268462452 11.924343061692001 0.5518762378264237 0.63531856271248 -0.8771776091089538
Ni 4.831938606510466 0.7044082237379659 6.349691967566706 -1.0468873870346873 -0.6893798633332578 -0.7634399756734658
Ni 3.1103339960908998 2.3609925040415107 4.948799815732197 -0.5316092600472715 -0.5185979353892681 0.9159691280548549
Ni 3.3865927546886554 4.958645125060526 5.201789919243616 0.4811814424140229 -0.6288398969666719 -1.036041445459119
Ni 3.779372914095622 2.9818918969392603 2.6468855619049827 -0.503937505163616 0.9211301034305038 -0.8837408641487684
Ni 5.42095812414762 4.532550952737976 3.570033576177405 -0.7838262526393017 -0.8864860309940733 -2.3194266145783664
Ni 5.5055174379835305 3.171764414752074 0.8216083279087419 0.11341444576811437 -0.3883116535664796 0.07589125201167574
Ni 5.848404222412453 8.274901192211479 12.999273993816887 -1.1854505641542874 0.20449628947729942 -0.5364077098771795
Ni 2.4035142287802125 5.630945107669268 11.520919225879979 0.3103709752249429 -0.6074416337965538 0.886741598648305
Ni 0.5692375526330443 7.468331213483688 11.203408456773099 0.5007539652293118 1.0695850857425193 1.9714802522028112
Ni 0.9154822287942874 0.16692083455213508 4.546846656114145 0.6825844376779793 -0.9050722786366928 1.7852701626292093
Ni 9.132140989870653 2.7520096789426622 1.2622055598161768 -2.3266814963685674 -0.3699742887098725 0.3700861316973884
Ni 1.460317518169122 1.756544588319788 2.8185500122802774 0.5717999733335443 -0.4584945423394684 0.30372904442839305
Ni 1.9748714933637637 6.595626479200966 0.5181110019644057 1.867285782371068 1.097550974827826 -0.9413862825763787
Ni 7.8471079778263295 4.047218674093088 4.155107845068127 0.1603069965545949 0.04877562674180632 -1.2573766608706278
Ni 7.63672820501064 4.444684901124319 12.979019768196451 1.2514129870880255 -1.3415409515243735 0.1118195904771687
Ni 8.026795377898296 8.916801110388343 7.39522399122778 -0.6760620631784292 0.7219320862376664 -0.19457285971600038
Ni 7.460758601279953 0.7858261366850166 0.7167125767396911 -2.079884646350844 0.7844469169424361 -0.0708284927767877
Ni 1.8497087280856352 6.730325803153038 9.490980500418516 1.5795448858408152 0.4443840710800153 -1.4936111619914727
Ni 0.35133997542209117 5.3113790457447285 1.5066986260876516 -1.0153183539791546 -1.08902931051006 1.0082552764847863
Ni 6.577786537543677 2.103989555486545 7.27884235033017 -0.18769104499450256 0.3003696410378569 2.261874527195511
Ni 3.731242523623394 4.427402172186484 0.19927205696557987 -1.3033850092799424 0.7103379536421638 0.2993370860082844
Ni 6.19554774663262 6.136857718394992 4.804288980600353 0.07973222302432074 0.7569767365466253 1.5635263989253718
Ni 5.411732143055013 3.245672744475132 9.268954068302753 0.5825217306264227 -0.015125285677212663 0.9257380345161605
P 0.32247361616392345 6.01877429504436 12.791566101664156 -1.688231587115957 -0.4986929689352251 -1.2891894345058508
P 4.318508191389478 6.4595660946718665 12.899431522588854 -2.24894804894183 0.7120891320053155 0.4946853904377287
P 2.414064731910868 -0.10621570588972587 1.399528350867057 0.9509533574395234 0.989867518006218 0.7530388349447998
P 6.3504620172757225 7.979779412864977 5.87789721761414 0.5404708242029596 1.8128028208318394 1.2403659852452442
P 5.014338993101743 1.5604879227845034 12.954887890126699 -1.925530524945574 -1.4483641172282151 -0.264943439019763
P 4.121209215528852 6.673307413073774 8.35757146358209 -0.10887233492338669 -1.3684933117435014 0.02044592655917769
P 4.964043694194913 1.7276700078903497 3.8250561359196213 0.22861529401269015 -0.7611300965933666 0.40101521717607713
P 0.5169947495985476 5.912465415880233 3.6888751742118857 -1.2139057341711867 -0.33499314464899727 0.016097934003127114
Ni 1.1921155074165941 7.662898933555512 2.541534905925623 1.0513289677458086 -0.8861088501603126 0.34122447027068975
Ni 1.830041859479314 6.914251673746755 5.039966210879278 0.4169077200366175 0.9792041247551007 -1.379659869883282
Ni 5.933767384105938 6.122479803306117 9.369692647199283 0.4759844715941158 0.06055127922049571 0.3385700633669782
Ni 8.482896825358683 2.6958773484336778 10.462833473688637 1.677270974339395 1.3460334400780885 1.0860931106998715
Ni 2.2609956574862875 5.975613145873497 7.07793976106258 1.5490073793735903 -1.475000488868821 1.4982872273109036
Ni 1.046555102752532 0.27215365374328215 9.23198711495258 -0.5266488307182027 -1.232413306057071 0.48399088683836
Ni 1.7593580558212962 1.6026533967681438 11.540291959247504 -1.837537604574358 -0.11410221586375834 1.3124962275525913
Ni 4.005701759176354 7.593630998282993 1.408967168949227 -0.0952251764535973 -1.2675831690899846 0.6564486598228759
Ni 5.5520766712795915 8.557124867297821 8.376221647341277 1.273412374177252 -1.4080348214815492 0.17458613218142835
Ni 7.071193833303282 1.1432543461647542 5.397104852437594 -0.3238492122170358 -1.8858005533458038 -2.127872487084032
Ni 1.0589782060059443 7.981268358328437 7.124826927745992 -1.427217050836955 0.4413445129227431 0.2765550551167624
Ni 4.925979671211848 5.183530697851524 6.9184426441678335 1.1932379214091902 0.2292297876682375 0.8902555253388345
Ni 8.477589602571747 7.437922014417063 9.305760252081411 -1.4921029528770624 0.30277207983176246 -0.6508410838281113
Ni 4.828403502864091 0.6043830598150323 10.618667602050575 -0.6143964678478321 0.8811373650876503 0.9627809462020709
Ni 8.329846020203593 7.342428542791201 5.100876868823453 0.6689203099273254 0.9186312482680503 -0.27584363087203456
Ni 7.1667329781028695 6.295709016613256 7.217503278016447 0.8099656300388308 -0.1342925747687042 -0.0846779970653703
Ni 2.7103740137742407 5.569240649965739 2.6491984514224565 0.05373682740182358 -0.6986941987556482 0.4152514153801171
Ni 3.5430964517774144 4.653639670919764 9.401405358644041 -0.3830046395312694 1.0653990726856295 0.32742433116280384
Ni 1.3232614584528 3.926303513971457 4.285300140236938 -0.12721329932441963 -0.6792160354263787 -1.4016165766600313
Ni 0.5315745401152913 0.31546643785091427 0.6402008761142638 0.9870099939527647 0.39302937075712313 -1.1776552364795847
Ni 1.3082258496622732 3.709346804139255 8.485409763377076 -0.9647180153237837 0.3313072111569778 0.09524754505110047
Ni 5.391535465633473 3.101245034519469 5.40973896575362 -0.10593973465762399 0.2629410638777536 0.39861174994090703
Ni 4.1517097609429285 7.309041452797656 5.864527766201129 0.3369929486878454 0.6105812078668001 0.10857588672889042
Ni 8.177279350689997 7.566793441401725 0.9586853972849777 0.2507229245450069 -0.9239539460325442 -1.2678629051139327
P 0.30886118346669184 6.004113206278384 8.002906481112763 -1.179891582009271 -0.2224158500701976 0.8931842689498554
P 8.790432573323853 1.6949314769637105 8.5971921156805 -0.9831517965489389 0.5644396763137312 -2.276623146259595
P 1.7419383073622836 3.5954835820408846 10.6363020144261 0.9039222241926496 0.8055469321458448 0.45192511665206686
P 4.32825484666256 6.631324631785036 3.7162553283970166 -0.5211651818958121 -0.44486229626801455 0.043303290773325426
P 6.878699675318608 4.290775440303184 10.538317527905233 1.8629850981131852 -0.11814270448171912 -0.3285144789031891
P 6.4045025164280664 8.154780745312676 10.780317752354755 0.059505354454484606 -0.03555784249995166 -1.9614130977747963
P 2.625997392633234 8.925351128509808 5.989718848846968 0.1645446887850263 0.8154050558868473 -0.44965328989875464
P 6.99435328582703 4.066666311465525 1.9281569712770354 1.8419925550219178 1.0240536769696233 0.9063454889221617
Ni 2.666838344578827 1.9948672088209103 0.3926193898354515 0.6592161952656841 -0.30694986535853586 0.6318370319217828
Ni 1.681613179505273 1.4861685344979134 7.175470256236612 -0.04345010076383485 0.07549247391136031 -0.18408275881795394
Ni 6.9253319856926305 1.1637616011676295 9.682056963090742 0.0970015516277297 -1.1387837562253678 -0.7176486283709641
Ni 2.8746695543006178 1.9335464057766776 9.50957770329618 0.21088059573708842 -0.026865714042592442 -0.8844458606355929
Ni 7.021720651523517 1.927773316617739 2.732918292325286 -0.25155981862400545 0.6132633826846534 0.6507086720153052
Ni 4.131348660095975 7.517448144508393 10.899854496093342 0.35030046443002893 -1.9461397165554932 -0.3355279341065447
Ni 7.295668347530747 6.34475287056 11.633811436304939 1.5328618799619795 1.082117928102207 -0.19608466837483648
Ni 7.776871771270825 3.861164433603749 8.357384203569815 0.5867771634686668 0.9066236822842129 0.21394406515376055
Ni 3.412863964215724 9.132058778157946 12.758289540751026 0.10642747292731992 -0.8263160463723962 -0.2975463126564489
Ni 0.16825266429797886 5.251748150128349 10.261061267193307 -0.8293936568564555 -1.3521166701576905 0.1337007068209762
Ni 8.842874511395795 2.7627246054987307 6.016645011685265 1.2433716048407877 -0.554559955306174 1.3554714455625365
Ni 3.851088931479842 2.9959866383510363 11.536361325916666 0.44216186661771584 0.22299923337749336 0.08640243595564476
Ni 1.1108263928194502 3.8063200865938316 12.90730557773918 0.22485711252183851 0.8011408326583492 -1.8457566500500404
Ni 3.095106559970725 8.485555004069523 8.232606919877933 0.46829738736250315 1.5343780594961898 0.005851573684770567
Ni 5.753477098140792 8.885359697595515 3.5899278971888804 1.1110099285462092 -1.6233513415028042 1.1378620157420467
Ni 3.2226443302825936 0.10689623617823998 3.8355518312418058 0.5143859541904495 -0.698773645843332 -0.6799724539764289
Ni 3.86472694115436 3.18993320326019 7.4429798616754566 -0.9338416374599013 -1.10536481444529 -0.7130383832924623
Ni 5.3166040568189565 5.187495129330921 11.608797152518802 -1.7462554719289087 -1.6261551295001864 -0.07742928592275698
Ni 8.622254813030784 -0.19324137110682785 2.797105543752549 -2.8762015752579884 1.7053062832100567 0.5849226267584313
Ni 4.784703410243264 0.7319363590059682 1.6714234944470512 -0.1701329815060812 0.7577308411038306 -0.722797262451439
Ni 6.102548030292186 5.774505027324142 0.7156018051546802 -0.8463860776493939 0.4471150968579332 0.2985495571099826
Ni 7.95953706226971 8.8810481499958 12.043972978704987 0.9886254180690005 0.5973168866577261 -0.5198076394266532
Ni 0.20455552970217816 5.231944262000851 5.914061236570212 -0.9100548194529489 0.022513093500851553 0.8159393311237625
Ni 7.470788430230136 6.246080546042824 2.8335636979474157 0.3349944302005779 -0.354879342049963 -0.146704832390128
P 8.716469435792325 1.7188642199960193 4.167929218396427 0.20962075518805837 0.8784685600062355 -1.7113062095472336
P 1.9462070095334638 3.5881576049752693 1.6033859944747053 0.2197303328182345 1.4071958705200216 0.7968625169979695
P 4.665615177070665 1.3331359986123135 8.51542434622271 0.6132656966774986 0.4992239017380305 -0.8427160849969744
P 8.736949286890964 1.8987069088586521 12.550434580978896 0.32845662908206014 -0.20640327669202516 0.7068492237626148
P 6.089238867468494 7.76811165655022 1.6873597782234506 2.3813259231863246 0.6697137523628982 1.3159672168203271
P 1.8805107164463013 3.6721048982832536 6.451781558942044 0.8356830894095931 -0.2750892692045133 -1.5882907503542452
P 7.166477208330005 4.0701374726686845 6.186490756282798 -1.3003714192645992 1.7624382523363582 1.305847868998138
P 2.467794653481876 8.863655805441024 10.739447569577978 -0.17359471480243652 -0.3468140485433253 -0.3337093928405672
