# total energy = -381176.063673847 ev
CRYSTAL
PRIMVEC
9.18091442141444 0.00000000000000 0.00000000000000

0.00000000000000 9.18091442141444 0.00000000000000

0.00000000000000 0.00000000000000 13.43719627679416

PRIMCOORD
 96 1
Ni 4.638253074260594 6.794418379600046 0.7384842988978594 1.0064539616099892 -1.7366243765970477 -0.3507210969072153
Ni 6.034247842639473 1.798550325017368 5.9564405106223335 0.37515506157986356 -1.7065933774525963 -0.8582473478633542
Ni 5.338205993231523 4.599004664913784 11.954294290222816 -0.3516567213476073 -0.16656506164916474 0.40584374891297204
Ni 6.023561258199781 5.145884196974926 7.070491231899777 0.5384748768188533 -0.03292863240722071 0.39942267587797664
Ni 2.8776291069067734 7.080615026282637 9.988016002623288 -0.07792216639877547 0.5061201146372316 -0.20058332757613842
Ni 7.392086730493127 7.390287271257577 6.879616347763193 0.9700983057990905 -1.3960917901870602 -0.4718938464645098
Ni 4.982840336953877 2.60087044029635 0.021733978817941795 -0.4025100565540487 0.12701995236669092 0.7089858104896435
Ni 2.7194419506388154 0.6335198218870678 3.5667825161900657 0.6931946090936578 1.4011658622758578 -1.7716641418100008
Ni 6.28616295470195 0.9913184204984934 1.6224337608866302 -0.10742043296820855 -1.5356044757041232 -0.5854964969840304
Ni 2.894163933862002 2.585841283313724 8.732820656603147 0.19500403371614805 1.4169706905185984 0.11324706695231464
Ni 7.215675459007995 6.754876180990289 2.091432513614895 -0.7348832470816956 -0.7030036247642797 0.1093778138048955
Ni 9.197990967998635 8.814788779056771 8.174276772711568 -0.35765021992688084 -0.4096986038826879 2.3853787530994595
Ni 2.323331395956224 0.4135818349134634 9.255782988386072 -0.11174811380928497 -1.057144031765689 1.4636387839990987
Ni 4.027345844705968 0.5037677939065804 7.491451767770441 -0.7415454895932196 -0.21741891107623845 -1.3095191472021384
Ni 3.101533248930161 5.5223292328690095 2.615953764674332 0.9493495032875136 -0.593675433250397 0.7190977021126647
Ni 4.243372762116592 5.209948618126278 5.368724271011576 -0.8421470998673819 0.9363723743015552 0.8748628449328482
Ni 1.4754739449204763 4.173001052726348 4.156084299729288 -0.4708042129447569 -0.2699573472945867 0.5341813916498219
Ni 0.5498752644517523 8.217478483827906 6.088111349726442 -0.35016548151406146 0.3998919022049113 -1.423504120761742
Ni 1.4209393129859627 1.292314701302034 7.302551698335727 0.507872578551964 0.5109823278255393 -1.226016401391792
Ni 3.732684394884719 3.4241230405602963 4.0228012920447584 0.05388389450264913 -1.1182655816673581 1.4120521701710584
Ni 7.799820322891055 2.8090660376665464 1.6507862609438972 0.9235032316483709 -0.6381771152071977 -0.6182217551311934
Ni 2.572198444415628 1.4312311181035704 12.537589919517668 2.3242592600803196 -0.19623353524787493 0.793906262583123
Ni 6.986336215620091 6.225982060370177 13.176971755291973 0.5452314788163964 1.2417489816357004 1.1289045494384429
Ni 6.8876689278422765 3.043528231327087 10.335273075243602 -0.1457992898567231 -0.021558957117698355 1.0780625270859112
P 5.113521473478434 3.837787503703964 9.032926388703379 -1.315179430811709 1.2262416300287204 0.9256668149585929
Ni 7.50249640787435 0.6690609779720661 9.732386292567426 -0.46559412949872714 -0.9079169471743396 1.4489531569624658
P 3.4853872827991874 1.6843581108757046 5.542453797380872 -0.38938843157042613 -0.22775603133618838 -0.2319911524634585
Ni 2.9046852618412875 8.553206164060448 5.457570734583945 0.6116520723334755 1.1709850235482608 0.917249023208543
P 0.6130583178142647 3.582484634203129 2.2696634423474036 0.13580746875133384 0.03781707084777358 0.0411816164446323
P 8.555822724683567 1.9490071513040366 11.426225533813295 -0.4142126897029576 0.1981253529539491 0.005853373456983468
P 6.183676406505827 6.312714159340775 5.144874296383545 0.21073687107037253 0.5475444432202893 0.31637090156211967
Ni 8.02022653650248 7.459107406102883 4.32685757164018 -0.6544239160833633 -0.8116268197913377 0.17688778373141148
Ni 8.689184688232515 4.9804624801069 0.9847485581058439 0.2952816849919882 -0.17552175662182026 0.011459921010483489
Ni 1.3522660727721307 4.790509359782811 9.691013419612933 -2.352648095635658 -0.23220275425363235 -1.548177170162811
Ni 1.7791785954918085 5.4906918016154185 0.5840649899271949 0.003974668377031864 -0.8989605093120002 -0.8931547012635006
Ni 5.130717326275293 1.5983145804901386 9.136030812443138 0.39353844918305775 0.2502706674989367 0.29694981672303056
Ni 8.152670408604719 0.8914025283531545 13.366113282777171 0.47835477159850515 0.0034213669767231398 0.10588779837376601
Ni 7.447392559242876 3.3681286432255155 12.832522206315696 -0.6730099066156666 -0.6684395136361649 -0.8980164002311759
Ni 5.532905646335098 5.1147517160170235 3.406745405656989 0.10054067512923974 1.4429817698703795 -1.8939481221536025
Ni 0.7539770920610734 6.5129315420390705 8.106392173050459 0.07301007380913878 0.0014606437059265169 0.5793520746491894
Ni 0.8813448365544576 1.4461960086849268 4.927621726891565 -0.5234498641649308 0.05547772135233026 -0.09184623267903537
Ni 0.972791335103906 8.282763966603381 3.339734829053147 -0.17951236583845212 1.317264595475512 0.6972885766573733
Ni 2.7375926185402517 3.8317372810701515 12.421411873576774 0.48795269969958543 -0.07777201397415638 0.41659635944378576
Ni 0.5873719553182407 1.3773666929251542 2.356494695194246 0.4930661096667508 0.8425517915049684 0.05580733677760712
Ni 1.8069692235836894 7.598326793081833 12.419583953506375 -0.5789491827838158 0.9617923570365565 0.38555054588157467
Ni 0.6580897851838937 6.056520741136633 2.871327327216563 -0.17544616618887848 -0.8193123613610535 0.41120038523919505
Ni 8.047530576127606 1.328579313447039 7.089411260433556 1.4035425900381504 -0.4080620967205295 -0.6844880824585954
Ni 1.61686002771366 2.253143304855322 10.7861716551 -0.16112177914640638 2.783925711240702 -1.4308232801309744
Ni 9.120329612521521 2.1043206813437956 9.042641632392453 0.8715229819263378 2.0476990627572347 -0.05733765737920448
Ni 0.6858115564172714 0.2795918968149674 11.261714563660405 -0.4952163232405342 -1.3151197812183673 0.07267480195690709
Ni 0.09911531640380856 7.4314912153858765 1.095200467693615 0.317295213148602 -0.6610123679341583 -2.3980172677990765
Ni 8.43662691215734 3.270507979696949 5.818883787253372 1.1958560757583274 0.7183477113205177 0.4769414361907463
Ni 1.4268610028172357 0.25153777647788095 0.49034621504714176 -0.9614025777973055 -0.4236908043967219 0.7532697200086834
Ni 3.3599668102642726 6.124615583739039 12.128615067483791 0.644779965235696 -1.1486668196670347 0.4810253764521328
Ni 5.401444132080838 2.8025934929672482 2.5254942144300956 0.07941366334263744 1.5030237135546243 0.2905647391322931
Ni 2.4578868783858923 7.519582089697604 1.3099622550906742 0.864839142148259 1.1246928253499404 1.400260576852769
P 6.773192105352134 8.46221412077712 0.4236193287003328 -0.3290132729164785 -1.8164563584240263 -0.5573035794895821
Ni 7.363010774375854 5.5827580118913955 11.12047629359014 -0.5553354000196179 0.9210624834173622 -0.5756879955340408
P 7.844182501596032 9.38353724937852 5.2956258300246075 -0.06367979754714839 0.3474974477635951 -0.5262071151950937
Ni 5.156901294335433 6.039187174622767 9.717605938366859 1.1054306346862188 -0.7075009984140008 -0.6613412120284868
P 3.435489012670554 9.173422840884701 11.18263659308102 0.3345336885140755 -0.7926011706184543 -0.31393478131680125
P 0.14854995035185387 5.92702394257833 12.477095037911122 -0.03781758506840584 1.6181443433805682 0.7381176948585934
P 2.475495872333771 6.997986796078829 4.001785260738143 0.5235542509532789 -0.4137884576813454 0.4145132516625119
Ni 5.076724368294338 7.608343170765429 2.8070710249528474 -0.34534209198348914 0.6883146552935371 1.5224144593764104
Ni 4.126720062897749 8.942440213807188 13.335651008575368 0.3980671902913467 -0.12307150924190419 0.0924157320292602
Ni 4.3319135012372065 2.3463204057818166 11.167654258762177 -0.3820733859662517 0.5157170142970474 -0.33596527875427945
Ni 5.377105527828583 7.112206552963893 11.761618110667788 0.0313754289874879 1.543626060457019 0.10086360568629725
Ni 7.518526284533889 4.9576111839983135 8.99672696105109 0.2846234339471937 1.0630310866740853 -1.0066961595277824
Ni 5.986516268325073 0.7032690652764427 11.822690471794315 -0.05081399732807378 -0.03700768757260078 0.1289174264997199
Ni 5.408338998845623 8.590563305027036 5.742009236146089 0.78997350318762 -1.0587180611210283 -1.3512890320500728
Ni 6.314724779609068 3.8677540085245448 5.051942325873322 -0.6118922133687397 -0.6599731280363667 0.4435451201184878
Ni 6.400694862678897 -0.08169636738539901 7.859724871697368 -0.6236663231855323 0.650892248781021 0.4648066006004253
Ni 6.451529586083174 4.5607202515860195 1.1505788256676541 -3.1499127331680525 0.11436883926158367 0.805861120952154
Ni 2.260726740205138 6.473462790745051 6.166826674184378 0.46584249806410744 -0.9770482547543625 0.034444554831114874
Ni 8.02338477107916 4.358354534902425 3.578621305395378 0.5374235527362035 0.6635760148962765 -0.4647801182378641
Ni 4.942095438548932 7.113767308423298 7.535956250649658 -1.2897746175853595 0.9851837393773033 0.14251907644355455
Ni 0.4502412263805532 7.067688298712974 10.599233547086902 -0.9602702639650752 -0.5453348371634802 -0.9938984935424819
Ni 5.10737944169995 0.8482540665407257 3.8969887944620996 -0.08461886169266072 0.2736275970573223 -0.36100550955235894
Ni 3.2871070730534475 5.3444949196414795 8.005008252681833 0.3182994860434002 -0.15607393230985378 0.18023664559898636
Ni -0.07205181673772112 4.19965324742431 11.377771421530335 1.1630104899832163 -1.85512086487376 -0.7275666588156244
Ni 2.327719873071493 3.731142001254248 6.522455822707229 -1.740725543249615 -0.2953829864565429 -0.6766986683211637
Ni 7.722599651308362 1.8501470643224132 3.699568836401926 -0.6919797628499502 -0.7742185543462085 1.9104276078658644
Ni 3.345075366998653 4.5819373449194645 10.250067762348882 2.5222347177199658 -0.9777915606782903 1.0167329749384941
Ni 6.621275513665197 2.8837160531984543 7.9383594041079935 2.1776158770557466 0.42882221208601634 -0.40602012658983627
Ni 0.8059557574079493 2.6000625198232457 13.301561355067616 -1.1240533919937286 1.0247820704952157 0.911121055933934
Ni 9.245639914082831 5.819423625024037 5.985424657594936 -1.1110937465092672 -1.6585610566347178 -0.8965940659623527
Ni 5.028432758197445 8.582080140059444 9.7344024213844 -0.20565817099588451 -0.8724658054555814 0.7989469103308241
Ni 8.185969585376853 8.868212520340768 2.3082682695900694 -1.651393849462317 1.512248574587002 0.652026105275148
P 3.9457642387514076 4.567339690916791 0.8303246586779459 0.8403763811202043 -0.38555183143315536 -1.1527790420631954
Ni 2.8125547851640404 2.83148583079518 1.9142362739428274 -0.40650143710162895 0.2839436342713497 -0.9634782293794117
P 2.690365994521542 7.872294461694262 7.944957727335491 0.0959034334675445 -0.6839188402186867 -1.124490222420831
Ni 4.515779675269615 3.190009721649506 6.952378767280666 -0.49767532630398803 0.2582266891212198 -0.21450276587070802
P 7.528946622454036 7.506618638470074 9.404290706531377 -0.010623798262433317 -0.10199411974631467 -0.14218894679764543
P 4.085488576026048 1.0165567543685234 1.6838421434826543 -0.5087596091426076 0.09179275373328062 1.0118414511741476
P -0.027362797477714577 4.2064012195576215 7.869332698687178 0.9506882767035949 -0.37993757057017147 -1.10554479166658
Ni 7.687739719076822 8.094481772712303 11.749659051482956 0.18388426965390267 0.08936434679744609 -0.2620653461410196
