# total energy = -340895.4713188158 ev
CRYSTAL
PRIMVEC
9.05059908171541 0.00000000000000 0.00000000000000

0.00000000000000 9.05059908171541 0.00000000000000

0.00000000000000 0.00000000000000 13.24646660467282

PRIMCOORD
 96 1
Ni 6.360571116853181 2.0367287625190933 11.32710648227037 0.8778607512189076 -0.37705176438194415 1.6548884928791372
Ni 4.6443964799079955 0.4137074187431857 5.880093806924468 -0.8607066080371241 -0.7896629139257368 0.6588354148874975
Ni 2.559147454607217 1.5536982785313045 4.80473237159032 0.5646782746870985 -0.786272143076633 -0.44725573620085557
Ni 3.623706094631494 4.412492974357703 5.033048219582945 -0.3777855572241752 0.24177034333740943 -0.6525904624190503
Ni 5.400184874631028 4.616203863126621 2.85244117512639 -0.2942445019767255 -1.2923305512379937 -0.8216024429468108
Ni 7.387234897659604 6.159240535696942 2.525691009280081 -0.5787805184164355 -0.29628338678362526 -0.4392313232344823
Ni 4.817290078102088 4.581386207666605 11.52180297414868 1.5003307401034935 0.0284885943579961 -0.08039891007404217
Ni 5.4062306749552524 7.849639065870585 12.555783259419329 1.68188301919011 0.23666516090036016 0.29248586741440596
Ni 1.9879550829573511 6.320241646426918 0.2299150888867715 -0.237226689830785 1.1120980194040653 1.2445555978465597
Ni 2.8313804305837706 1.6263474390141597 0.2859011910209304 0.3514538613081818 -0.5057305925082968 0.7877921792655852
Ni 0.3663501579699778 0.14378053546515288 4.73883043287649 1.2361187799331164 -0.6079237156392949 0.12598791155775074
Ni 8.68455685016651 2.2896477596155664 1.463986023211234 0.3041134243510053 0.2701771766148766 -0.3744102129940391
Ni 6.818513339615296 0.6842777996305782 4.789869477439959 0.177712593625552 -0.07141624695945765 -0.0581750656788353
Ni 0.9444843392735561 7.459856906344595 2.641491617047121 -0.3446772047059806 0.31139478850376695 -0.9836557327685511
Ni 7.622749592325713 3.870760303389498 3.7537306242391795 0.6436947025913172 0.5486417900495261 0.509475918483342
Ni 7.708875095148043 3.982851975568414 12.548987164414147 0.22973372388784952 -1.0385719251904566 -0.28888426610607665
Ni 7.808513142707001 8.932289853871097 6.9020051180448885 1.2438757981707158 0.006932208343459029 0.8390622902944712
Ni 6.8347772665354025 0.716220984756801 0.26931506276618017 -0.04989765616139148 0.10843910404071001 0.47204605577165804
Ni 1.5873484066831987 6.499506866519595 9.145400695060282 0.9088443440846153 0.022830110520638103 -0.19238176560195253
Ni 0.15169347442244208 4.764570337250882 1.266120011462352 0.06336406607894247 -0.43053765211522627 0.998801587271054
Ni 6.264118880243514 1.909160565558106 7.185903411443437 0.6778068137836778 0.4498173262804447 -0.39581670369427313
Ni 3.5415990578929293 4.336947622102764 0.6904095806480361 0.8626984416561724 -0.13032176304641427 -1.1843696723852828
Ni 5.979088356874066 5.615299518502525 4.953755014162945 0.7318241485403977 0.7376063024398136 0.155866444284738
Ni 5.454588026949758 2.817424406482044 9.429708980606568 -1.2976406505969973 0.28034691805902684 -1.7034003244365952
P 0.3295422757265838 5.4285132504017195 12.453229108769854 -0.2777297921511539 1.3302111283338511 -1.2427311430433114
P 4.077457889923377 6.147909185388667 12.720065212391118 -0.7261327545825752 -0.10895615288644463 -0.5194854802005441
P 2.4421051046178954 8.543376551876731 1.3475364874752611 -0.28526389574467004 -0.37747471085197576 -0.7168402735370558
P 6.335546209822522 7.844344465287245 5.941914830419447 -0.6321162537250984 -1.6147887966447738 -1.054906400684422
P 4.708357065074599 1.078605170118882 12.524534255258477 0.3443990113439295 -0.396236307730195 -0.05248212905911607
P 3.818909420069917 6.151013540944369 8.201854902932867 0.44625120619574116 -0.6506747334535762 1.2154568807083905
P 4.684707849135681 1.0270077035793581 3.798556432391601 0.06629358102091164 -0.049639517403998384 0.003190481912839667
P 0.14734194628488673 5.5670960266959115 3.4680575083203005 1.3055928155645387 -0.34471808524624503 0.8859646112729646
Ni 1.498163801301605 1.0361126064628454 2.444463690792286 0.006886699817504268 0.7524788486762718 0.8733168406019669
Ni 1.8415706900771092 6.512114351327446 4.6714994045351235 0.5588007328603989 -0.6251907302498587 -0.09832361287326291
Ni 5.820594262146801 5.50073703271805 9.451977075094174 -0.2718910739821898 1.1034120615942933 -0.6821949155490444
Ni 8.629882179869147 2.2660075942759352 10.124711740393142 0.7533622797224897 0.9987331959269637 1.0327566040602603
Ni 2.218292834830861 5.5254813711707875 6.867948617984974 -0.0003532695743606819 -1.1652866876119026 0.4268154660686327
Ni 0.43525146528777126 9.003427564272895 9.19883633831515 0.41861621808729194 -0.15078208778329516 -0.11493036819200853
Ni 1.6239309290043278 1.103901595128173 11.546335528578084 -1.1826313495379375 0.27805735069390175 -1.07216184533076
Ni 3.9638728688619804 6.899760569421524 1.5816012761354707 1.0899101704531167 0.5513931275424182 -0.2299550958700362
Ni 5.608221949859495 8.126650758271078 8.0714031850388 -0.22523763578970887 -0.6214441187232329 0.15021233132275422
Ni 5.44835216404049 2.751581296663585 4.940296773022044 -0.9689878463437313 0.5476807116878374 -0.1960389027385656
Ni 0.6300049759415923 7.4301437888828765 6.6622312113539595 -0.2870991491811959 -0.28839807049827754 0.7796224989705993
Ni 5.115163401860868 4.618376006955683 7.1224532800766625 0.007152037663748973 -0.3816571243644395 0.4228598238549944
Ni 8.086819070805642 7.104005443548419 9.275825261156486 -0.44946302826481943 0.03021303324827055 0.09217687654557673
Ni 4.596491657877878 0.22210442170143402 10.454932811066309 -0.13547014001657312 0.5567340801393573 -0.6449581426847731
Ni 8.130823084542735 7.281677758166451 4.531735525033878 -0.4268833431920906 -0.506714810798437 0.8505126982232578
Ni 7.168608621264455 6.0797310209539654 7.30298920430934 -0.17338157035036592 0.7517106030516796 -1.6013285573748097
Ni 2.4412271964869823 5.170118640736152 2.5613367945749257 -0.8013390647120845 0.13893187331292844 1.0277581224044041
Ni 2.3269724310782913 5.290229143884023 11.361799239460217 -0.37742920232602095 -0.5330683610913013 -0.6166448975623766
Ni 1.1033223567737565 3.2945629503335008 3.6842926163836216 -0.5343518557894152 0.4537559992132185 -0.592433847533812
Ni 3.8223305466006905 2.709921388142022 2.698106735831779 -0.7149389427492848 0.3868165570781919 -0.07265320469035229
Ni 1.1478784570674023 3.4945630933944365 8.220399580873488 -0.2926355056183928 -0.8833575126674207 -0.562382022453754
Ni 3.6630128473382384 2.6697005249072134 6.904151015136017 -0.6385154723832229 -0.1275645120162513 0.43951491591317216
Ni 4.2512022444505195 6.882139052608254 6.21606381826522 -0.21468685685705605 0.5454042569488349 -1.2551161469712255
Ni 0.6939094473926132 7.472437239354582 11.181143847316939 -0.2703252721569667 -0.5829498193027768 1.5347734951623955
P 0.14587303402048316 5.438115936246033 7.913611416816265 0.01723770403452515 1.6923705489849952 0.5260808740298746
P 8.521664164185394 1.5639435569250497 8.112082913657497 0.4506025411859014 0.8737834958257402 -1.4191730974865557
P 1.7046441734525777 3.3070075243541717 10.406675920723897 0.3982047443104755 -0.5842135165065486 -1.1281489022193412
P 4.204392544934221 6.1564620017156 3.6608995324045464 -1.0506926197133906 0.5268812584439829 0.8562891956957189
P 6.978274518242848 3.9899657466085943 10.427208110268111 -0.3804355932525125 0.17098967307942164 0.39855415723009424
P 6.201977465533749 7.739982004900076 10.276237778728762 0.030354186811825147 -0.9752752220143398 0.10124670005732886
P 2.356006753593428 8.378646594240198 5.644027930761735 0.46034110862990396 0.7847459362400936 0.5582942255376256
P 7.08282704121506 3.798934747441829 1.4756033724570037 -0.7461176823449344 0.5204301035020005 0.4135619434928361
Ni 5.376988188656498 2.797105811081021 0.3934956204137585 -0.12714516509064552 0.5742299229312756 0.31111196715602546
Ni 1.5614455915216279 0.8555468152525179 7.064486906818341 -0.8864189252015637 0.6854003098602196 -0.7169549447380492
Ni 6.982528299908096 0.622638693181284 9.31216070211706 -0.815840086541737 0.05543761214301421 -0.046180869431436594
Ni 2.6131342793587096 1.460413751672355 9.120298857935678 -0.027078601384346913 0.5162788003377883 0.8371704725883968
Ni 6.393651057249945 2.051264024975237 2.717287670902331 0.4457318433571614 -0.04186990076090854 -0.6452044543676243
Ni 3.8930519294352526 6.855385481113633 10.463252121931617 0.5338502335626484 0.5064461305180826 -0.526595351772448
Ni 8.395887985883382 7.04976520201687 0.3596472841374622 0.03530253195603598 0.49913159913454047 0.4708270957628924
Ni 7.604232066182954 3.9071346619270084 8.20143042982627 0.1407262462091899 -1.2068264587269022 0.05133773104202771
Ni 3.16878677203149 8.399109999229825 12.47333682520747 -1.1954274728613412 -0.15028303665968956 -0.023186465418792324
Ni -0.07725229528061027 4.934540591875027 10.211833714197054 0.22062250561520066 -0.4160194038943932 0.36077128205436576
Ni 8.608830485925816 2.1296241136086693 5.825054397475809 0.30697300528698745 1.5593252163598306 1.2559975211349144
Ni 3.6227829335041424 2.687358244117635 11.254529726581818 0.014307417761607617 -1.086774195927296 0.36161280411905466
Ni 1.3238130566221828 3.37770175539087 12.532786591689057 -1.103531360780977 -0.06817485720402452 0.877533964007108
Ni 3.114609884694955 8.238126989698426 8.076966588420985 -0.26764155467721645 0.21953415764702838 0.04619141095439787
Ni 5.820820527128995 7.884004191366213 3.571499522759904 -0.7880549460086687 -0.26276134376677973 -0.23040581025420964
Ni 3.227561363806208 8.385344037713141 3.46208320773045 0.10042009039097545 -0.28990627961268783 0.8695185499017992
Ni 3.3857477381576895 4.177620872241025 9.208890649063925 0.09446412991785667 0.6225059843288441 -0.37992368661310055
Ni 7.182338380383988 6.25581043009735 11.696034250917503 0.007551072874380544 -0.4990120428375405 -1.30044906658007
Ni 0.4212393274704601 0.16021461365186876 0.26740538631646266 0.5694494708234967 -0.4717403516057811 0.2979751726637513
Ni 4.8034064587946625 0.5414412416711388 1.7114701354354067 -0.49971472533152006 -1.317938481614085 -1.1352104370518128
Ni 6.022920409224691 5.416738420728342 0.5152361364933564 -0.5926981569387921 1.1305955639876206 -0.34398326396274953
Ni 7.72384478637 8.783443697984584 11.472778592986664 0.6466632983013378 -0.060537652373740904 0.28596477846643653
Ni 0.09276864269954722 4.76866120812895 5.841188900826101 -0.7931333889728406 -0.22842914614381307 -0.9816834395335288
Ni 8.053150841455173 9.010450829320197 2.4531531711684647 0.025862983809690942 -0.3976262460991862 0.059383998385271926
P 8.451558222102399 1.7455257304353928 3.701181939714512 -0.00829540723957281 -0.1350255962799868 -1.244389761692657
P 1.8933310674038126 3.1731220090903274 1.484703750040847 -0.3950870246171002 -0.08065910571396431 1.1309447197969233
P 4.547165891759581 1.058521890299341 8.241275693190639 0.2341557642149451 0.18903393217564218 -0.24922834227735138
P 8.479940901468817 1.7229625864110054 12.362808191525552 0.21859313388999774 -0.24936255386237052 -0.123540992679155
P 6.498266934417171 7.840733276171429 1.353073644119513 -0.3828197772139729 -0.25877459120488977 -0.1910959569109935
P 1.7815109132035292 3.3175876749215636 5.771750892970543 0.7245643816541908 0.19964616047384973 1.378385888266865
P 6.913092102172396 3.868036073003882 5.992409933965721 0.5797696218025821 0.4721082764681611 0.829788578302029
P 2.309432369658611 8.520324675490805 10.233663759679134 0.6789501833595016 -0.06339980441288436 -0.12017876107514142
