# total energy = -340867.7213495534 ev
CRYSTAL
PRIMVEC
9.29270697738098 0.00000000000000 0.00000000000000

0.00000000000000 9.29270697738098 0.00000000000000

0.00000000000000 0.00000000000000 13.60081598261291

PRIMCOORD
 96 1
Ni 7.467526302891168 6.402665731487091 12.124242957875136 0.7063434877707899 -0.8201970779588519 -0.5023128250759994
Ni 5.530842559615062 0.5294612658613561 11.019340112625992 0.7022181527485067 -0.029162737606885262 -1.060356625165716
Ni 9.13130183120279 5.555449647371327 1.4331314734016216 -0.7092979424134235 -0.08102445947318304 -1.3111150309343484
Ni 0.5352013708866749 7.401826865415041 7.916096414107235 -0.2782931208537917 -1.369606599412338 0.6195201622276427
Ni 3.3354126866239264 1.3896313833352147 2.470683567166222 -0.2546371719977486 0.6826623421037662 0.5781853080345978
Ni 3.5746069611126816 1.6869515392119714 11.488024287833161 -1.0917593078467134 -0.9483853396020312 -0.08607873406763884
Ni 5.581348421380657 5.349430336360616 5.229663142580762 0.17556289427240088 0.955170995065297 0.42017764903714083
Ni 8.19808174512924 2.3155009382852 6.382060083303277 1.5428850685259363 -0.7027501139925768 0.9637021724647598
Ni 0.648620716612788 7.723168668516095 3.501584870633558 -0.18583625117395092 0.1742158933262032 0.6925286933748848
Ni 7.526869528877383 3.7517817100405213 13.256279577874855 0.1876851314572316 0.8918100143101478 -0.2957257145079423
Ni 3.0575235807843097 7.829886114057232 8.353049712481875 -0.6848938025374463 -0.2826634820073454 0.5164950301136524
Ni 1.2895117596622603 3.826114072186425 0.7545157575971162 0.74621692692696 0.126854116212788 0.2336024628146364
Ni 3.0546985978999053 1.4902063496441424 8.708330339564585 1.5215420840737859 -0.8858193439443518 0.6017957483646862
Ni 5.647726226457315 3.0184756265728976 12.057884667482877 -0.7365462366064154 -0.3743122539635941 0.026181286381058138
Ni 6.948314892692635 7.982881239744213 7.428099206240007 -0.11681267281638592 -1.9110942949155862 0.10981747244547538
Ni 5.403402377783719 5.30992703951323 8.731180176454266 -0.4223540878631694 1.6415812342472695 -0.07761646223289859
Ni 9.383868310858187 7.989804306352376 12.583719919128791 -1.63196865085817 0.44496282640162077 3.0077083597514394
Ni 8.07835450998887 5.329339504136657 9.585147412101348 0.30301170664639426 -0.08370072075376553 -1.0563351627111484
Ni 2.828012306840127 6.846950046300898 10.752981397454038 -0.9738292335964325 0.5238686968699042 -0.5307345707518021
Ni 1.2306052908983045 1.373452780697883 0.8333206995530986 1.949351795734888 -1.2060127045763551 0.589528758071875
Ni 2.7565513911129114 3.813931333497429 12.202896428709357 1.1831494268249365 0.8130193292634901 1.1197907600626327
Ni 8.157955836922461 2.8324728061312925 10.890282070530915 -1.2447312041924756 0.1629130667188743 -1.3301062273248705
Ni 5.141217946531747 7.259202400580021 2.332009432015941 1.2195673033323384 -2.273414152403994 -1.6522484841531286
Ni 4.014598045358741 0.6921616945893639 5.091492672142108 -1.8292627661600753 -0.30188556346175105 0.1573923940109612
P 2.4527820966776774 8.935876206008599 3.8126489399512185 0.8981207870195241 -0.855171794261824 -0.9317179062486793
P 9.08240360772339 3.086107947075196 8.654199392854235 -0.7332472541401694 0.17014455147030697 0.3433739125135247
P 7.161350197380076 5.796548926765683 7.3006869025292325 -0.03246840494135054 0.81549453027686 0.5486165932385455
P 5.329655456169781 0.45556659020839846 1.8870857789704008 0.7824329718362009 -0.38688829085639176 1.2126132406120085
P 3.9625031307206697 2.647139060583362 4.497843892210193 0.8767454066675416 2.2163870842866733 -0.4414756391839687
P 1.2995571757742395 3.2749450431080627 3.0511385619031435 -0.530068655033029 -0.23344948217653988 -0.3027939342086334
P 7.17643226060833 1.34442236447788 12.290499705517163 -0.4782768671727182 2.306880145371924 0.7062527278291966
P 5.5538791799125615 1.871458233849665 7.991744623544033 -0.6715284369741338 -1.019706198634205 -0.3843488122639897
Ni 6.773788565218926 5.389825733066234 1.384508314045174 -0.3698799292238533 0.022621336943941684 0.9858357711390053
Ni 2.150072170824096 8.645404775085153 12.814198563856745 2.0791343984483803 1.2063909138513804 -0.5524488225004421
Ni 8.887266056441751 5.503577757697813 3.8681403389453757 -0.8486833583240029 -0.10998382282001058 -2.165465614846458
Ni 6.732659044671636 3.697986230047693 7.678014476629214 0.8589235479947724 -0.5737923211732247 1.2374866068149202
Ni 3.107955100895051 4.599564649274539 5.335436449105268 0.2590766958263409 -0.15241268140818265 -1.2822364002267852
Ni 6.192483287804626 4.091188535270796 3.446854544330956 0.23427300651909977 0.7255959082424988 -1.0052247171885786
Ni 4.629459287232205 4.983818077794742 0.021040546864702376 0.7369527280162147 -0.9836508476725447 1.043253904047158
Ni 5.967274537135046 7.387897097837005 10.248663408534572 0.7524567371890848 0.0731910794716933 -0.14632739444605122
Ni 5.4304348620295535 2.941940892901981 1.278069649709735 -1.1828396088940016 -0.5614317427253428 -0.20291351837121183
Ni 4.534190456538393 7.929271613888516 12.326337958780309 0.24708198535831 -0.1310020769428905 0.2651506699345627
Ni 0.2648625893680417 0.9185106603902476 3.05928547800432 1.3067750087980978 0.9010053076561709 -0.8262299144164932
Ni 0.4981671462510868 0.2885134575887616 9.020060695963863 0.5198721741160015 0.2831363078787059 0.35341021370360426
Ni 4.621133021888696 5.504683589813747 11.252784989382572 0.7651047649703985 -0.8822444821088999 0.3552236127632592
Ni 6.493483355596593 1.7553272762627974 3.362937684333161 -0.7301241351301554 -0.9821017580178699 -0.06353555865980026
Ni 7.985009269614372 9.258825647395843 11.044066147030021 1.3135897177270859 -0.8279340415917935 -1.3473758130385955
Ni 5.433129747017967 8.652978331173278 3.909881319603829 0.9561094477191664 0.8050010869447038 1.6201459471916293
Ni 7.955356242034978 7.629702622952464 5.221312716199425 -0.19888254283494777 -0.7987995861196824 -0.7517998203313762
Ni 1.2604441726148312 2.2892025778810363 10.226712176397925 0.9597766121581084 -2.4757897959938653 -1.3066739644438592
Ni 5.33702457270706 0.8466808242008252 13.398775803355251 -2.154020863344626 0.6932254623315932 0.06962058851161558
Ni 1.459540417017379 7.41659297661017 1.3037537621906778 -0.19134201148352853 0.11917037441528511 -1.0232306668476958
Ni 5.06621650949217 3.1737474654397433 9.676640615999325 -0.9438188032772713 -0.08995544341422572 0.2666007721175279
Ni 0.19283017216914566 4.8450222081846395 7.099788802267192 0.2980818734449447 0.12110307266162368 3.0471807068144487
Ni 1.4431666675360584 2.438434157291095 7.356559302504509 -0.9702919098671354 0.43479205651620606 -0.13974819856663676
Ni 8.481434962600535 2.9318118424282926 3.9193877587181256 0.18382204895739954 0.7823267852756398 -0.5033890888593138
P 0.6457864410215265 6.129330052007206 5.490295691787682 1.4815087223009842 1.3942462523378891 0.8185500292737323
P 6.619892046966855 4.645089620164998 10.971179730071004 -0.16851292940415494 -0.28898582468094747 0.11440303493362877
P 3.648260955658053 8.824902700727142 10.364243308604843 0.27017486262203144 0.34372615364662096 -0.22799771503334926
P 4.251524899374487 6.194862220759914 6.731261421560404 -1.6427225469405644 -1.3825773006403932 0.7350922777687082
P 3.4336644762187056 6.119990881616329 1.6710238396597676 0.35104685567775024 0.26811772298268666 -0.5165289686753815
P 0.6770898533386523 5.930614808585779 12.434205841430291 0.13563469061889544 -0.9881099118851627 0.6207730607981373
P 3.0847233337535633 4.4107461386553855 10.149037227595702 1.2491157064134166 -0.5246487695690384 -0.3482055295742132
P 3.4611894739279396 2.4892095075555303 0.12088603568538724 0.22732665710825367 -0.4569302831761421 0.6856777318913224
Ni 7.395452068511418 0.6288969463096651 8.45361445681326 0.048602077278419524 1.7248602940825841 0.8073919557743837
Ni 7.622147652278051 8.970222050550573 2.8295548961783212 -0.9034074893397602 -1.5383247028487634 0.18011760352261882
Ni 7.043100502629904 8.544811223362512 13.246746189910672 0.18104937130826884 -1.1053768986301478 -0.36453691974438507
Ni 1.7098859397340478 5.565522941603875 2.7200812337835187 -0.7624629564721772 0.03918438350894542 1.7255547490464476
Ni 3.5612068778254717 8.620416686347768 1.2024381671452797 -0.19291372684602262 -0.15227769849221515 -0.41016345933424847
Ni 7.852997076009585 4.596247152926734 5.672859281421661 -1.2235391434958929 0.3713657697407604 -0.9069910929259606
Ni 7.585868924709905 1.1564494901826767 0.7755999801840446 0.6564656291037404 1.7765849761503856 1.5100240561318574
Ni 2.8089343796635373 6.234179663470168 13.087113283716027 -1.3048240557193143 0.6530139231097141 0.07026130741940803
Ni 2.5939476065362124 4.633798981334235 7.596082538815988 2.1956706776749284 0.28040862453489773 -1.7193139103430581
Ni 2.1309013165789406 7.848861821458399 6.144168646315817 0.12207880631133168 -0.8929194453242428 -2.0353713944298173
Ni 0.8810025077049732 4.076227277231679 11.1435427153885 -2.187700772095574 3.8128909665793307 1.4848922940612364
Ni 6.156855049716441 0.7228973225175518 5.96364480583686 1.4155337009617557 -0.36130504307064876 0.7539330646242951
Ni 6.161027475095052 3.01604093737647 5.524365542936016 -1.6389224564681837 -0.5725296524107173 -1.1728218196466833
Ni 3.606899117439349 6.597989136905862 4.461706413786267 0.09740264372089032 2.1099051039723338 -0.9271012334122744
Ni 0.05754601648015013 2.378012977309514 12.889670211863267 -0.08998372554899986 -0.5082474453928796 -1.5060288189295352
Ni 1.0310722892734971 3.6136084517898106 5.362420611275449 -0.23811577730395767 -0.09396662145614784 -1.7618088462824752
Ni 1.4812760583549545 5.242471280441207 9.186821108317519 -2.899228632280781 2.2412668782474885 2.232110922779833
Ni 1.4354723062587977 0.9655029496933628 5.090322720348863 -0.4481152559876734 0.8818377335887845 1.6070117238025163
Ni 3.350178797819056 4.052586630988501 2.6513021932551166 1.8705181732654366 -1.5147111771948818 0.32500852263245966
Ni 5.072489086620371 9.010821886807037 8.63685827258914 0.5521973686112683 1.2257544059796568 0.2919932440487036
Ni 4.093437370330093 3.1399498906023076 6.764678924687405 1.1058258132421084 -2.0698707137582675 0.6650027200404741
Ni 8.909122502968462 9.126859917325339 6.609276058653881 0.8882343811437476 1.7624853035242098 0.25038173915550427
Ni 4.708307904910414 8.185341444028849 6.495803744498685 -0.3141486970998203 -0.015549774809140963 -0.8690562655534001
Ni 0.30049826162171217 7.191365640526878 10.580087798575033 1.5555269256596629 -1.1916497509864639 -1.1533714242315556
P 9.182114352294652 8.926146741929744 1.272016380463349 0.009194522015074489 -0.4256481852334089 -0.6004248361590885
P 8.216871598393274 0.8253048106186 4.7729479738048886 -0.5815483109695598 -0.4268254933709617 -0.2880908236705038
P 6.917658252772729 6.5473345918305625 3.6601834985550643 -1.4291626045991002 -0.4750678733171173 -1.0778375555592985
P 8.159554182501797 7.931037228191269 9.367031784575408 -1.9280597191253308 -0.08701153029455337 -2.342369339417469
P 5.949181636885255 6.749079257687239 13.599822586926999 -0.754028709661895 0.04500510395578055 -0.03892547342060393
P 1.8690142519463804 0.3379088408849923 7.19143161874556 -0.12635635064076303 -0.13687653344579653 1.1294236551667065
P 0.9162255837742108 0.6693276553013386 11.604434026625727 -0.35753529161557135 0.22065207330155545 0.03564603133838377
P 7.5107188043606214 3.2584411957307498 1.714478395462577 0.7080139334946774 0.29892262417868515 1.8120695422102404
