# total energy = -340854.65740470815 ev
CRYSTAL
PRIMVEC
9.41791535221502 0.00000000000000 0.00000000000000

0.00000000000000 9.41791535221502 0.00000000000000

0.00000000000000 0.00000000000000 13.78407109543473

PRIMCOORD
 96 1
Ni 9.192055026921365 7.369782561496532 4.720134920018517 2.324008577522094 -0.8433935706799732 -0.1138034536764169
Ni 7.460411162120766 4.831484818272746 6.947778012313205 1.2853014123053543 -1.5126113572430595 -0.1592412742942419
Ni 6.353645989143712 0.8658709055607737 12.275928846495733 0.9711928244148499 -0.4022570600029782 -1.087011765859399
Ni 8.987912291066547 8.61947401973529 6.631309682160859 2.329479885049311 2.983463628271462 -1.6089421080560098
Ni 3.2228295116714496 6.537766236696845 12.294081878575462 0.134286147010801 1.0602596945765355 -1.2421266766900931
Ni 3.2729610757494707 5.740991751607838 4.1813152562303175 -0.8171546915881023 0.7863495332817877 -1.1635841030984992
Ni 2.183176404375399 7.403084310619184 5.064047055867529 -2.702441795632597 1.00316449222544 0.37102252746872877
Ni 1.979344459731285 3.8688702595692597 3.2922291890215405 1.1893187888604422 -2.2204016047627047 -0.12740433228930317
Ni 9.385668533274167 7.733766158807705 0.42497495972441324 -2.6676198028574056 -0.002548991674098836 3.0423663161449412
Ni 2.2672972254058124 3.979850975536835 8.600060870564892 1.459300304524745 2.4127093225936123 -3.1546301932483796
Ni 4.364968375175847 2.7017927558847763 1.3600430574525464 -0.0737315253561956 -0.6775283633113105 0.2795776439931701
Ni 8.30989772012818 7.136152332286785 2.6917673848607193 -1.4110360702017182 -0.00430916889831516 -1.3463404297955457
Ni 1.2081772868211522 3.1296769096996835 10.147668307260094 -1.3404420620332398 -0.8152993835469183 3.0734686939767006
Ni 1.4304118383051037 8.488207113832704 3.04696877599065 0.27507024304111977 -0.6152644722750823 -0.7815809082485508
Ni 6.710735672326554 2.390690753970576 0.5226170820035235 1.1350322596027356 0.39395265390234085 0.8141917523050364
Ni 3.4320767577141855 1.7504608599213738 9.736295642857472 0.4549047681056811 0.32885232185858204 0.0889120897513759
Ni 1.569165987011001 1.4922027817422443 2.0615459095877173 -0.10411810806785293 0.21092661848367542 0.19532619294225714
Ni 5.593789732720092 6.142355055442714 7.386746110851656 1.3193430752710955 0.3164097252198551 0.8815610828886302
Ni 5.205413734326432 2.5747074044534735 12.693021010966849 -4.062315741138204 1.5730428230562392 4.211009321823586
Ni 7.11854083034692 7.9301862039723146 4.932037076433898 -0.8277766900783228 0.17398526537263584 0.6409549350626509
Ni 5.688863589448934 3.0564620347903206 10.780935536397992 0.4525794624066141 1.1329823190522423 -3.5924597510393292
Ni 0.47672075451499774 4.626607485010811 12.604499198034564 2.098071858782832 -0.7648363418003602 -1.3538632205351522
Ni 8.977665599028807 2.3264888241716144 4.056363062654298 1.3572069401964046 0.6311325496555904 0.1976836374308402
Ni 3.79994995411689 6.91513269189922 6.508177029854776 -0.42407698409154704 1.1685748714448714 -0.10563428760206323
P 1.9463346659883836 5.774067470759071 6.696673782729542 1.307010778957988 -0.9365996598210127 -1.2239911434316468
P 3.8094432129165607 2.609751467939162 7.715316462390488 0.03269851867428562 -1.5601325427524741 -1.4079785143223171
P 7.533334081650377 0.0269060427229945 10.554187919818006 0.9324645546067166 0.3967543850171941 -0.10251193992299763
P 1.6338388125837557 4.072692786297898 0.8757352302301932 -0.7420090594931995 -0.5090182621206331 0.12429792544983755
P 1.850234256472672 8.633007564274106 7.453709373468142 0.04038148914084013 -1.3203427201802034 -5.161152781767305
P 7.803185613780295 6.4113401393488525 12.457575007653356 0.6087330989144678 -0.419054076955659 -0.5879508720617939
P 9.277070549921984 2.258067668239466 8.712167027431834 0.16275982897046162 0.1454694173211301 3.05049460167903
P 8.84045598846095 4.504334688387675 4.916543663684555 1.594958392182408 -1.5528151831554549 0.08597614705150354
Ni 6.739064762077952 3.1074506291766455 4.149225592829407 -0.6397046075953177 1.1852729009258425 1.5993200115852133
Ni 8.526472104411138 0.22655643289582536 2.3139874831689533 -0.023148155981689168 -0.22484939921235467 -0.5946223705446985
Ni 7.294740610984851 8.831424207519598 -0.014770116840796764 0.7936278121107557 1.8959736372240636 1.057098523239734
Ni 5.469972397958914 5.30295508490995 12.421598570535558 0.32378159220389396 0.19531950807403783 0.07569867638489544
Ni 6.175656804565367 2.845538399792881 6.2741644332767095 1.87838317783581 0.5630314831122949 2.5096540528414777
Ni 3.5000364357880165 5.0210486209709275 1.4393880535451493 -0.3262156555666833 0.9884372133175944 1.4463267750832125
Ni 6.706733058249312 6.813051906056335 0.49366923520536177 2.203129705056135 -1.7825489070433043 0.6786753324315601
Ni 0.5176302957590537 5.449893402164372 2.975788170824073 -1.27109272490514 0.8233047703498982 0.1990244677294508
Ni 4.334501418611428 8.923974062900909 9.86996035004021 -0.4742039826549253 -0.17039960490390652 -0.06424518313231516
Ni 6.735429446704268 3.295036669624895 8.72692960994025 2.067628711801626 0.3397676832195052 0.2182653182369338
Ni 6.443737768585823 8.154586876015715 9.374174909227422 0.0774997341493762 -1.4019474776368888 -2.1650511530168584
Ni 1.0390786144520225 7.710522743413273 12.426450680588722 1.2545700446597685 -0.3000976183233929 -3.5043408466132098
Ni 3.361564824546395 4.520062607232367 10.645383478953887 0.7546270053675261 0.4012702706096767 -0.984905546015252
Ni 1.6694196972515682 6.35711178203883 0.38264990578433494 1.9213661091552392 -1.1259009867254288 1.2475889853562452
Ni 0.6682180552603735 2.2620326106548045 12.804519712285597 0.3542849029990737 -0.9377119190485851 0.5459130782644533
Ni 4.601810113562863 7.34605883241283 0.492063480616727 -2.211572950727481 0.6967103355564 0.22690576752075114
Ni 6.439264258734788 8.029940764692661 11.719465659855052 0.7524621365057234 -2.562851977020696 0.15241011030502138
Ni 0.5362118429929325 5.754977356089496 8.149749834627311 -1.319712285685056 0.2546104325248712 1.2065711481829866
Ni 3.786105618367371 9.36519398502964 2.153389421308338 -0.05987687886129042 0.40182871421630795 0.7851442001197767
Ni 4.736994872303407 4.2866301542476135 8.32681983065521 0.06300616851889149 0.8259663763424613 1.6553890866646392
Ni 3.1064334943052523 4.439087369970893 12.887059265307613 -0.442060050932529 -2.5166795922296914 1.7342785020726907
Ni 0.33471930855302273 9.351566261336066 10.774622707654519 -1.66057320196874 0.36112352318746194 1.5983291084268538
Ni 7.706557800997935 7.040899535163901 7.1277572024316 -0.1566485738664012 -0.9261290993069922 1.328477433472196
Ni 1.6244114791924165 3.4255313064584603 6.1380331740308405 -0.7597481286441754 1.6030766504141682 -0.7846492627612293
P 1.5078647751786052 5.791594211459653 10.966841420725345 0.16345788347875076 -0.35590649776289673 -0.11105365884542165
P 5.784615536092039 8.403869680746347 3.461552007778995 -1.444648358939525 2.0335040022037756 -0.4419878029336968
P 2.9675569126981687 7.286415173704188 1.9679384222984666 -0.264365455029106 -0.8221511163614291 0.5672228954858232
P 4.78216319492565 6.506545846894356 10.55177504987309 -0.28960803164597865 0.8201883362081036 -0.021126754676286195
P 0.10726911547853794 0.26012941798418365 4.218022523589043 1.0034748243770073 -0.9404300893106964 1.4658759008597337
P 5.202362329712252 5.839851610357978 5.139597573814907 -1.9698512012398206 0.016870293392777395 0.6600548891168955
P 7.483362622135445 0.9024199519395049 6.526964829437576 -1.6288427036346789 -0.32110198848920185 0.07436401673387193
P 3.281239423452755 2.372372908370022 11.818531770954111 -1.088317886265332 0.7387938949900116 -0.39608949773968555
Ni 8.998328505582851 6.611565022365711 10.370542335204856 -0.027200471674191862 1.1638599824677054 0.4700549934835582
Ni 8.85188933784865 5.540230047408856 0.4411982609231357 -1.9322143647236527 -0.03557121223639035 2.113552470916934
Ni 3.9485081528331616 0.38774970701451505 7.3678895604858825 -2.6388429878350297 -1.0477019125161828 -0.3547106776825827
Ni 8.551344819182892 1.9855414481144034 10.804589572907169 -0.9947230463263061 -0.1230563397332526 -0.6366311108763164
Ni 7.1100081989257875 5.589457491601195 4.605575396170113 1.1177824713833522 0.6538919548392932 -0.8099561169571341
Ni 9.088439120855913 3.3944145137262067 1.5946649931619012 0.4208463929693913 -0.5472544227836962 0.060181297475586676
Ni 8.917692313278508 8.39577969135258 8.847498705653802 -0.11862941431015053 0.18115555786882995 0.22345946084336352
Ni 4.493042607732114 1.8175352539404737 5.469753902319874 -0.8600520051722608 -0.758325794375352 -0.03916998533124222
Ni 4.38153448849789 8.59324512513501 12.239979721332814 -1.8496423582576917 1.3497162882463143 0.6317616985991571
Ni 6.782264740365737 0.8230175065624995 4.297735760176752 0.025562936070768878 -1.1211328759128238 0.46327499444724735
Ni 1.7593702079615408 1.7503855165975668 7.833308816429844 -0.38865978093451775 -0.6739077358395877 0.010478788044136792
Ni 8.243699192248336 4.559052777302442 10.999730665150159 -1.3257613200926135 -0.8487268099674287 -0.10504319098528361
Ni 6.041856479399774 8.669021673053807 6.868064775725497 -0.6340296686977275 -0.3662490173394854 -0.06919507093842277
Ni 5.824971303906113 1.1402458624937486 8.182017496630715 1.2333882683758306 0.7788912772315295 1.342253661320682
Ni 4.502790150249633 3.9325165323551454 3.773141857714845 0.9333680402575925 -1.7340584156420846 -1.5888335102315927
Ni 8.799177264930242 2.55297085553518 6.836402685687191 -0.48913000783713834 1.0466171640924362 -2.566545366711883
Ni 1.856713782320066 9.252131909741898 9.219792671580878 1.1842771126714764 1.1752628249880082 3.444658857371545
Ni 2.0908902506274125 1.1437775807971973 5.532623197079 -1.1537239224749678 -0.8512333784393662 -0.9037224494770177
Ni 7.05549730415149 4.463347920236717 2.4667008661931753 0.3236815762909199 1.0691472268741522 -2.343040911563197
Ni 5.432724542251873 6.492861615707927 2.7385094411589774 -0.3850468667722788 -0.9634424910454698 0.3702648233670978
Ni 3.803622941152477 9.00996904911102 4.773506247020236 1.3290741865159303 -0.046836757847880627 -0.40657239954888047
Ni 3.060003171009245 7.077657659266197 8.840524739243925 0.022427989986212985 -1.0566894607267738 0.07403774374270475
Ni 3.949515869789079 4.160524266025801 5.984603087638905 -0.33757941731893476 0.7006094135004901 1.5136534253543288
Ni 2.3088867401472255 0.19805687887431475 13.6979069414922 0.4127679868366311 -0.15372702934423202 -0.44252464927377333
P 7.400032906005005 3.053561316823754 12.29532221804363 0.0199774715631914 -0.11193091924405241 0.48240323063626595
P 4.7899518110241885 0.3944449031263064 0.3205500547195861 0.7098872392579904 0.7685109624384701 -0.9700623103548326
P 2.3543281823182673 9.257321181169099 11.416918892359126 1.683596659447107 0.09166522701648085 0.8254058758533012
P 3.322358042420375 1.9377737808208233 3.7776351451883796 -0.9840665950537245 -0.07484995523135496 -2.155022565136263
P 7.379671372746188 2.062288041327215 2.4984185219327886 0.08348834763264332 0.24753244263216725 -0.9260599366319536
P 7.3883923624768375 5.5592542366701 9.153643116861508 0.05541575776614327 0.030831640668875927 -1.4364272565813132
P 0.09184445351216866 0.31747510531671663 0.29024414450980485 0.46036476277898775 2.606197433885866 -0.19591703244872066
P 5.55123959060014 5.098030662070636 1.0007024924709738 0.2309053755984475 -1.6671567687235287 -0.7771580965905067
