# total energy = -340889.8316706645 ev
CRYSTAL
PRIMVEC
9.09771119761695 0.00000000000000 0.00000000000000
0.00000000000000 9.09771119761695 0.00000000000000
0.00000000000000 0.00000000000000 13.31541994845247
PRIMCOORD
 96 1
Ni 6.768397061173371 2.2072776434772265 11.419224462182886 -1.3692929248266612 -1.555787121299585 -0.3149156571728319
Ni 4.911181157154788 0.37275870987294357 5.718986058038041 -1.5879781042098329 0.10588882681503055 0.8836812145554265
Ni 2.8372395720357364 1.6043814063499104 4.905360441397584 -0.7364012263881189 -0.4559108407726922 -0.18968570682702815
Ni 3.3802364772696145 4.388417562086615 4.627227937623796 -1.5169161552660004 0.9502851277279053 1.1943375822312723
Ni 5.196367116581216 4.73142857520604 2.9451575344982444 -0.4887584834303325 0.23802347470046747 -0.27343039344485165
Ni 7.457248475659314 6.05118808023666 2.727983336225488 0.11444880056989966 0.4087660647660896 -0.3750465610264573
Ni 5.200024396566204 4.069788415533777 12.163329917118649 0.5519515711490494 0.6465967067294606 -0.47873143821163355
Ni 5.729119998772564 7.6754661814302745 12.585202622013878 -0.6773622700470915 2.365100719576714 -1.352089416464181
Ni 2.023121769208245 6.63251364362167 0.3973016059314078 -0.2898936812071975 -1.9378044572169204 -1.4697328127119786
Ni 2.7218078097234732 1.5967939150377708 0.5751181948930765 -0.10612871073997852 -0.7831271696897482 -0.3839204664773194
Ni 0.7500298846029871 8.948727283467674 4.896199955783445 -0.439676638302017 0.3583068796742732 -0.4654226369178694
Ni 8.85639461041383 2.1619437475439027 1.2686149008226393 0.5217002284636757 0.7986658887552955 0.4100292477492293
Ni 7.148317489464678 0.5565652320239561 4.998662020716107 0.4828007231850008 -0.37504424703361217 -1.0786286840020263
Ni 1.0663518515434043 7.260273926020062 2.449983659038219 -1.179233122489666 1.0405568168309693 0.922240048665231
Ni 7.444766415611046 3.6819347828969224 3.6594898190885536 0.35969913203610954 -0.06337203649874247 0.3288425516665691
Ni 7.634453698414537 3.6533861645066414 13.007501099802882 -0.4890150795258288 1.4846130722579205 0.5616703410987101
Ni 7.937452976772823 8.894377555531555 7.247916504618049 -0.8259717756591001 -0.5445012855185912 -0.9178434622594323
Ni 7.031730317803924 0.7544559212017352 0.33584383607421725 -0.5321080540605609 -0.22859575362866436 -0.5787157266167711
Ni 1.900593791999736 6.423666580598316 9.210156389101067 -0.26097468418000214 -1.1069938654082805 -0.7097550845555003
Ni 0.33168345264850807 5.076832286425097 1.4917799420558804 -0.6785719740844764 -0.844964514711519 -0.5410428946563456
Ni 6.385074088816426 2.0017603428282644 7.088597382485927 0.2910319085766988 0.32690188300043055 -0.9768004004096145
Ni 3.6021387561597797 4.742109288396031 0.9660377562735659 1.1377504298648469 -1.424478054639237 -2.2947332255967448
Ni 6.2659941442305795 5.746241891637609 4.842765457614714 -0.5435481775767026 0.28200965047343046 0.20399595280211322
Ni 5.071919522266159 2.806543893753771 9.51060557895241 0.8689673053840196 0.17890584260270478 -0.14713549216964336
P 0.26336054976477014 5.7315217945836014 12.64458975275519 -1.1237091212804324 -0.04143435588538671 -0.3732609298809443
P 4.200549821564213 6.055063705295379 12.543498712931326 -0.7780836937285697 0.004562165449385692 -0.28927610222785666
P 2.6013905015610264 8.306437955954788 1.2896078698906996 -0.10098650441740673 3.855218780813263 0.958466120876801
P 6.224908879523597 7.756071904482502 5.780223663279219 0.7924828998730352 0.15204861320054458 1.0636394096820456
P 4.895314748463694 0.9007280154073106 12.501088821443712 1.1065362090455717 0.3792703692998178 1.4315550160906765
P 3.6944441360794062 5.7039739244479195 8.050010772052106 1.4809240534421078 1.1089841563654321 0.44815202276287974
P 4.5704991581551555 1.1421721783963679 3.589597560987376 -0.04351180723970571 -0.08536319605785299 0.04367918605550542
P 0.2607431381934241 5.627562246353603 3.9193140884300277 -0.4555516576610606 0.07052484549343983 -1.6636376998266769
Ni 1.3378275598818297 1.0155138402097876 2.7705260542996215 1.4019870726255725 -0.737673151122007 -1.0188777891956389
Ni 2.011585871146143 6.575216257190188 4.742486843419357 0.15244584863896327 1.2189839200250425 0.46024597781293636
Ni 5.925421317767813 5.784506865808903 9.154165434027409 -0.8527575283933765 -0.6315781218334413 0.1795876991610778
Ni 8.935990487500053 2.4116941210461302 10.127242999386505 0.01674945154419696 -0.3787042123837026 -0.02163737576411757
Ni 2.138562629231914 5.223914986716897 6.669148307909109 0.18355619689052258 -0.050259410376184414 0.4080713526919101
Ni 0.46947738959535096 9.008189925213651 9.058227337943588 0.07211250169553388 0.7764551569862111 0.7254074463807765
Ni 1.6447388541444565 1.1940382311187998 11.414470907973541 -0.43927220377474674 -0.5875402668869365 -0.4395784221612558
Ni 4.212859025095777 6.893263150213079 1.7918024492423055 0.8078444699307701 0.19985262005770096 -0.15329199868934243
Ni 5.456598053622513 8.021233801105549 7.9847647151656895 0.5506737328778903 0.33273674451465274 -0.2286482041331546
Ni 5.095091393215822 2.985359411427757 4.7474669306426955 1.664260163902024 -1.6538559378495645 0.11112127885856346
Ni 0.696042245580806 7.475789611503607 7.062565191070392 0.9644053691793714 -0.18228272949473767 -0.21983266272405363
Ni 4.859196834184085 4.532261477118078 6.520175103187257 0.37152903479150207 0.8423489314655428 1.5097749162355287
Ni 8.318710768640731 6.9922280548814895 9.188026206107327 -0.20683573624375348 0.6110576332825863 0.30296722656170405
Ni 4.755073527148787 0.5610858848213208 10.443883386226114 -0.32293467082256644 -1.6750837368800893 -0.5759049966408534
Ni 8.177277747131711 7.223237142888503 5.122469136148222 1.2603766240392165 0.4036755376170596 -1.206308638550219
Ni 7.3286523249433735 6.282479197297242 7.169341390751517 -1.1616593752719606 -0.43238421840566177 -0.2732133923380391
Ni 2.4091376641412006 5.315601722260954 2.708702556443932 -0.5711607970876486 -0.20253608042713506 1.0097524298556029
Ni 2.21565663568164 5.3828702003928015 11.658489723290339 0.8430171611771611 0.24651582844219477 -1.0086381137455016
Ni 0.8590304747227427 3.355354236575727 3.587787116417693 0.5368013457711723 0.5784992397305908 0.14472431162498947
Ni 3.5892927876552942 2.9371688341131246 2.778941437349656 -0.8567553366988601 -0.800956227451369 -0.7198716041642118
Ni 1.339801763256811 3.6248739369619827 8.330832559317344 -0.3236561223696232 -0.6598031781174056 0.27263952211244014
Ni 3.432566513273724 2.817215509232356 6.967187514009147 -0.02487490886480877 -0.6385905485955324 0.7315678095552175
Ni 4.182154249102407 6.870891877867094 6.068662964304235 -0.753188987369419 0.6683451541501457 0.6850902348189686
Ni 0.5698815522081033 7.359630032278908 11.152170241587505 0.13610700226962366 -0.12768972474020587 1.0096359588823967
P 0.23090719363927306 5.505989528842664 7.928480813784775 -0.19783327563482703 0.19322328766664143 1.6261952387095024
P 8.436780867260573 1.7077950918955833 8.056454681040583 0.810779641299694 0.7038245780036783 -0.130321248825782
P 1.9362022344406409 3.291078905496271 10.49806389673009 -0.5113047441619646 -0.08858941630463453 -0.2586930872346771
P 4.219072761985695 6.448676189251879 3.9475561139459447 -0.6718004596885979 -0.6596190871310575 -0.4941053495645426
P 6.7480454807593935 4.114248931172178 10.480514411428992 0.07353200775087981 1.1024905782212884 0.09012590755381897
P 6.42467642656432 7.762558572714582 9.997524191083135 -0.5193911207145249 0.1931996335175576 1.2116670746486553
P 2.477152154608294 8.543569803737666 6.066798843237259 0.1074417731244472 0.382062073112342 -1.089543274032001
P 6.581029694778267 3.8977233997226297 1.6220446130435784 1.548868539802881 0.24028398859987002 -0.5540562761968781
Ni 5.16044025424112 2.4919450333535447 0.913299233027352 -0.37478662249685135 0.4131050584610756 -1.1858866232504415
Ni 1.3968171206347235 1.2212039973754532 7.158463257224029 -0.5636385205686745 0.418408215841544 -0.8727216302201294
Ni 6.91598013559247 0.741129593535042 9.31754486475978 -0.1354120330851281 -0.048251635917536256 -0.16328690511852526
Ni 2.752376120045762 1.5408429898942948 9.161967631328716 0.27462312820137225 0.3862275173439413 0.47057178521897663
Ni 6.493582492749146 1.5069631126204246 2.709807928379693 0.43972677481366207 0.32881812618653694 -0.3483898776708774
Ni 3.9540837218793508 7.074316704892803 10.508116867833106 1.2641340341991196 -0.677521164222459 -0.9143981840233092
Ni 8.074628269344096 7.392654724680667 0.09517115901234144 1.093520256401878 -0.0382713847763728 0.35274841174988925
Ni 7.369592026267869 3.779043754438623 8.405851377795488 0.6945184701114039 0.2191916867059451 -0.733894143695549
Ni 3.2808439801651477 8.390200584864704 12.320598415099983 -0.7017381277882948 0.7956515274090038 0.743589516606442
Ni 8.953676438472236 4.83456932940955 10.096697433342731 0.5761610785157174 0.1732823257683403 0.7088312871896503
Ni 8.4792762772354 2.2561323537244564 5.717374853348137 1.170961626509493 1.2816329623148315 0.4083760284165225
Ni 3.6202704949908284 2.451132699988727 11.719154172712976 -0.047698591627543654 0.9236032475613448 -0.26895256017915614
Ni 0.933170454279121 3.658144267571688 12.588930864147828 0.41299424391482426 -1.5701703866044507 0.2513680143281735
Ni 3.0672024232311244 8.455804181809356 8.10072869359517 0.3147979006480449 -0.37416852929687816 0.18335462240267775
Ni 5.727227674800232 8.282774808589231 3.5585989289156097 -0.0016866436738035469 -0.8984324047226722 -0.3321423054637635
Ni 3.2219999827947405 8.503703632359013 3.508213983609984 -0.6402949328811489 0.017816973576762863 0.2447831620218042
Ni 3.6117641348267386 4.540822423550599 9.79958983289061 -0.008996804181971603 0.19989864280428798 0.5749886554741711
Ni 7.325158803763684 6.214364632004689 11.462206599717902 0.06267886708645978 -1.1286263560763916 -0.5107187897515075
Ni 0.7172826723990943 0.10309253633306084 -0.029393795779846472 0.1423216157207678 -1.1435158715937146 1.3339790800167155
Ni 4.683811153709951 0.18635752042909873 1.2673193867185044 -0.1437244096055654 -0.7364773310416929 0.7557822020178919
Ni 6.030217855447113 5.7591515441219325 0.4109909322831782 0.9146342112935151 -1.3607643185303597 1.3627486959502402
Ni 7.996451635237121 9.017269441196282 11.411435001677544 -0.39216445165366653 -0.3735830891070534 -0.34326232663632494
Ni 8.919814756621175 4.91996044866104 5.977026266172908 -0.5964221427575986 -1.501777499852349 -1.7089940164742892
Ni 8.121881782383968 8.579596740903222 2.3559369771555905 1.1135666335297918 1.142335221022052 1.0565207963593934
P 8.557607572436265 1.5729579111555094 3.4476550676396513 -0.9043415711182555 -0.6201778504162997 1.2745518870983341
P 1.8749382458363861 3.359966776258287 1.4151899488180162 -0.6511390746845044 0.2470007384984133 0.5554295023953209
P 4.837198568005723 1.1247500610549444 8.164043306350214 -1.8654878099303809 -0.8082869567848272 0.03828501162312761
P 8.711932051006798 1.7531653786745285 12.361609988344581 -0.07532175266145093 -0.11506046601196958 0.2006470909345383
P 6.452624596001842 7.7796531724454105 1.4517136210263084 -1.2855032439035152 -0.47197740731725163 -0.1943705138972072
P 1.5194724658029088 3.235282641446688 5.8404095730819305 0.6165543947310994 -0.5468636151031808 0.038391455294004846
P 6.815605085656215 3.9234426298658174 5.959196571360521 0.9191459831209395 -0.3580042608321899 0.14433967459206107
P 2.206222308954195 8.339553625470602 10.143607052891477 0.8043354283362469 1.7306964411483872 1.2151946281859394
