# total energy = -381173.14209178096 ev
CRYSTAL
PRIMVEC
9.20893848396718 0.00000000000000 0.00000000000000

0.00000000000000 9.20893848396718 0.00000000000000

0.00000000000000 0.00000000000000 13.47821232505368

PRIMCOORD
 96 1
Ni 2.0202569574588756 8.571210424368179 11.711569005720015 -0.28237654689454594 0.2989246810612142 0.5006125545554411
Ni 3.4994887701884734 1.3120619497122263 0.910725353329663 -0.520171193413659 -1.5477483101555085 -0.9550223853025744
Ni 7.202237233899749 6.607109574697543 0.35414723214194654 -0.14688069584635993 -0.41045630798431887 0.836008848180128
Ni 8.642727041797414 3.554392462322532 1.915483179047933 -0.12494430078458481 -0.5995858851975608 2.2856083804773415
Ni 3.2924626207644923 6.136615690963696 2.463305441382737 -1.8196653522796276 -1.154957794882069 0.26780096307321616
Ni 6.77666455282104 4.938422267457044 5.201066722653058 1.0132740698556164 -0.9379322625895072 0.28084288385883893
Ni 4.235292175958925 0.8436354727016424 5.789660639894661 -0.3191767464420309 0.5384926174306661 0.2988105240808531
Ni 4.488712958219435 5.715536971938228 0.4760210887017879 0.19490376069285786 -1.83681820990983 -0.2790120012976872
Ni 8.512816544491951 6.286914778404148 9.995563409098029 0.641378909973947 -0.0270685740820179 -0.21950021908529938
Ni 0.08843620038091357 4.887349493794601 5.512925587695238 1.0008895801483342 -1.3858289748084713 1.2529343088285583
Ni 1.9791114196435493 2.863722064795795 1.7636646167329224 -0.021799098152962458 0.8814461545773207 -0.1522548156740797
Ni 8.243363000070188 2.925983698898172 4.513354236215462 -0.562659701595173 -0.3861694104124962 0.05092326921242842
Ni 7.186959604706458 -0.285799410496564 13.859915853316473 -1.6260453433951993 1.5052032377044464 -1.3558586536986261
Ni 3.0913946546365088 2.137763014424758 7.830989490735146 0.4037920085902658 -1.1203543458755867 0.2026497231868639
Ni 4.4011175339357775 0.13077613753702932 12.122803369346068 -0.6886350147474335 -2.0694904476007134 1.1349103893128905
Ni 4.678822287373328 5.66807410222019 4.532520800193761 -1.2093044879537496 -1.052261506862407 -1.2947363324660088
Ni 4.981952920378497 7.855077311519288 0.7458503578198069 0.04071496122085891 0.6742388939267614 -2.240844188887773
Ni 4.350459162511849 7.8285095235610935 10.235462706762691 -1.918726100429231 0.27274776555553026 -1.5334285510987269
Ni 5.691768701324675 2.268014242459667 0.5159068437120253 0.23997854154430928 -1.7888581370907835 1.0365196706471183
Ni 4.103862203778903 1.643685038850031 3.4728095540728106 -0.8880893709254511 -0.6381511470652688 0.24998758904087914
Ni 8.625266894147938 6.443024706122458 4.331237344901749 -0.6777934440472391 1.94211336900492 -2.2459537422001965
Ni 2.33156512797076 7.709032753727602 0.5347925350619964 0.11345738319090783 0.3160564556454944 1.6313824393373968
Ni 8.725782459334662 0.36552487582387033 3.9870707604509956 0.7688261796860437 -0.29765352765827446 0.766445338158693
Ni 5.794816724635664 3.1360303801940033 9.929317988142717 -0.14851077525061518 0.5290224731567017 -0.13752239455991153
P 4.52800749936939 3.7374109087284837 8.102669756518537 0.944303970443806 0.6576794469061835 0.6316560262592283
Ni 2.103938582823215 0.6189567088107413 9.681278909619735 2.4873728728457745 -1.527618629285169 1.189364297386397
P 7.8562468467257665 6.894842862307183 6.379979391342354 0.28813530375519414 0.1508959876533401 0.4695837102740945
Ni 6.380809116713249 8.70164583117576 6.692108078286501 0.4097754798672104 0.5749151219237583 -0.9085342690433643
P 8.892270860893142 6.334635498403928 1.9365633604743122 -1.044300857254434 -1.8605212099537247 -0.7918565791429459
P 3.0244456707695835 7.532801295094679 4.104587868143239 -0.812827010747026 -0.419098299930033 1.2916371247153948
P 7.2395518532434595 1.3179188346832529 6.032146728421528 1.2272970678764283 0.692239187158924 -0.22686951496617702
Ni 1.3866727705223814 6.098951131951905 12.212676164153837 -0.7052566824645145 1.419181067906356 0.6827315047788047
Ni 6.281619638689777 0.49933351685297367 4.130856365595839 -0.3579705793807771 -0.45193925771945387 -0.12797074631573446
Ni 8.186976668816103 3.444437735036275 11.34138993231068 -0.6588976355840007 0.5767218361151939 0.6329374640748132
Ni 4.321128692963548 9.173788114925038 8.031545439875098 0.14248076700645138 -0.751877467646847 -0.02721358430031442
Ni 5.971996703947856 2.7507283877604207 3.182920453929025 1.6958937316469052 2.2244852879137755 -3.3022657649828933
Ni 2.929464677701706 9.047865088047963 2.6546414011626376 -0.014045422349472586 -0.3278313367932354 -0.41668043451715986
Ni 1.073983259215443 4.72344880399219 3.2748956494268655 -0.8617610174435675 0.8583345082605218 0.5401363236816762
Ni 4.781695340850277 1.021584398389748 9.984538467765775 -0.23290646518887628 0.45088356276142993 -0.40734990114485325
Ni 3.235523753192388 3.3328069809186873 10.11987302992648 0.20144516135580146 -0.8971152285731453 -0.39785507428054057
Ni 5.768838308750025 2.6608583556342413 5.267905199256379 0.0704716236580012 0.41343390255540413 2.055519073022286
Ni 6.336643047026072 5.655789378082849 9.86336909501141 -1.3198567816827205 -0.528509023855393 0.5680032252952734
Ni 6.116945398042135 2.068143438354063 7.877381360890086 -0.8915230791973485 -0.7669767851821306 -1.3393483147484289
Ni 6.5789118046011845 4.377036159408679 0.7187024067276894 -1.8214625533893662 0.41581988628907746 0.8001666416705381
Ni 6.949709718686706 0.8930091971861704 11.35090552860087 0.055386704300420746 0.49171293807296607 1.497512553928408
Ni 4.977366868938919 7.456422358066856 2.933141806898139 0.6153364631635984 1.9432112300547886 0.8035147322071646
Ni 0.8321141695770331 0.8561863351654982 1.7132291016239298 0.977269112515917 -1.210818867715747 -0.5059020850891545
Ni 8.258327525349934 7.603185213071971 11.976928256025241 0.12728246199945822 -0.11235515126566456 0.26555767556499427
Ni 3.4043051804706552 5.332435915838097 11.28079235341941 0.5517314847184432 0.7357486804057844 0.19283016599328082
Ni 2.3794792356818486 4.276492967406053 7.748840232759453 -0.6092951420655249 1.2907722056119382 0.4241975688298113
Ni 5.867475250455477 7.295026499572807 8.290960320292276 -0.5731667717740838 -2.211268532113185 -0.39071177836754
Ni 6.653043760602388 5.713879362984164 2.86507669966881 0.17739403394386868 -1.2149372607594946 -0.9708454683777603
Ni 3.619398360137749 3.4437286467614814 13.660438270890529 0.7738621994480542 2.0030189462410406 0.37759015338391744
Ni 5.435797043062632 4.338395452901716 11.870450823967067 0.2144829683763661 1.0041134864022707 1.0072044666227684
Ni 0.8870169408172285 2.4131471153266184 10.373021227603434 -0.09251934748666002 0.9544806538664916 0.8821025572143969
Ni 3.064716359414709 3.7461317736145885 3.7609600066025557 0.950972383602917 0.2686939072011308 -0.28999652533364895
P 5.205997188397537 0.325279972206919 1.8736331574271294 0.9486398788149984 1.877616731983431 1.5830865804454863
Ni 9.025404486720394 7.849975559516224 8.065079789909678 -0.5880197776265164 1.3580741732927062 -0.472831784897747
P 3.598880844861888 7.041900403348576 12.542218033160427 0.19065218450535554 1.0742722068055433 -1.9326064579557494
Ni 7.396776062536446 8.018075525335599 2.600445876409509 0.5101384917680053 0.11506149445323409 -0.4528617695337233
P 2.4569724542843487 7.100211402777099 7.593247847392356 -0.06380192494730948 -0.350220503121713 -0.20251731137405768
P 7.2423789974040025 5.497423260399285 11.85361596325082 0.8885089749613729 0.8163087986480392 0.2968652274290242
P 8.95528762796348 4.04674836637276 8.983956895717883 -0.8261134434432869 0.3171543166953635 0.5553742236773532
Ni 1.7076226997837396 5.184448271994702 1.0243387919350846 -0.31466523172492256 0.3804947286252221 -0.4591311474822028
Ni 0.09742412448739485 8.219917042308813 0.5594724906002851 0.11103334713044749 -1.9158192111950816 0.3719674078805013
Ni 5.0280252403628465 5.534857595945234 6.750778226321739 0.15350154359698723 -0.40245606338766177 1.159239195866242
Ni 6.428714015485704 7.211013352417655 4.6634074449943945 0.22663348769597097 1.2465039798221824 1.9936938121853727
Ni 3.8141397854243877 3.6396027715000643 5.935009922819505 0.0797561342837207 -0.2969184492644628 0.08990684956447742
Ni 8.739015704151274 4.575240145621585 13.512178042463576 1.6727041809043195 2.3016898594202355 -2.835227703948788
Ni 0.2873363823545268 0.8918562380692325 12.693160825411374 -0.582750558807777 0.9965192189947807 -0.5134688416928189
Ni 6.6247815279355935 8.934567516037678 9.430718423698847 0.7646494226005347 0.7505183825157913 -0.015580628047076394
Ni 2.0428833196818514 9.34946703723994 7.362837440095846 1.341123918591613 -2.1984402700002654 -0.5379791681293574
Ni 0.9601147330098684 7.784942034885106 5.566245342384302 0.49046209638500043 -0.21879393704689415 0.43689161935771215
Ni 2.343297315790081 5.754509200236003 5.460710905642217 0.5137262091192636 -0.24963689056967978 0.27069293990903054
Ni 0.9844631667573442 7.625931291497184 2.8621252348367126 1.0413823980560581 0.7716312532350066 0.9154459085615331
Ni 9.4491998426428 0.6913739604383514 6.303328790624836 -3.352330799960084 1.7395600621866043 0.6178607722473488
Ni 1.5230755695645952 2.8629300960732973 5.993113721128771 -0.009256999821893735 0.28325946372013155 -0.6420733649378104
Ni 1.9426256047768702 0.8538398976016341 4.8242434000195145 0.9083213817016098 -0.1726207809249414 -1.629394976593723
Ni 1.6502049674026833 3.679035446729524 12.51768818332187 -1.0407553059950205 0.3596615939299548 -0.43800670679876175
Ni 4.0142316040572 5.858901728587512 8.918788920582713 -0.9157788664209195 -0.43677257728134455 -0.12211454464527356
Ni 8.941096653528964 -0.32483333868318504 10.318434322958375 0.8751017004165316 1.1490103190493826 -0.9755151059392877
Ni 7.755464222318666 1.2927047607042104 2.0531365519566016 -1.264456450535545 0.258347016749168 -0.3186021048854836
Ni 1.2658975403415391 4.87586594731839 10.302813200354047 -0.040703134146316995 -0.9357010592661433 -1.053218728569354
Ni 0.5168351047263012 5.706420122690876 7.806445827488636 0.4131649651647336 0.061346264317965325 -0.452957157461007
Ni 4.158996119378805 7.651670274978347 5.988895106340677 -0.5288453241488892 0.10213578753050151 0.36089778032990105
Ni 5.761480366781707 7.42131788399523 11.784122549639406 1.8645383015329178 -0.9731797729378918 1.5574873918201433
Ni 7.875981602217764 2.036621241410942 9.388518462409964 0.9768469373768337 -0.2652964514838076 -0.3281972047730864
Ni 7.2763968167168525 5.131192979876074 7.5877077499103285 -0.16156066645603787 0.6676496707450179 0.7443749886222147
P 7.73578472045847 2.6527544896365947 13.564338391778657 0.9580619434598469 -1.725749381555757 -0.8929796091382168
Ni 8.547147467718347 3.2867162430570698 6.9407263990495425 -0.35710540316700434 -2.1069845878914295 1.02141135425077
P 0.6212755195587043 2.232237515867782 3.2902745769451274 0.27367747645865126 0.046597388143564906 1.278059128920644
Ni 4.6310923584349135 2.2249532454085332 11.95712903796281 -0.6445737627621609 1.3561090791465356 -0.8936306124586545
P 4.672624671672855 4.316155866101355 2.2256172098840223 0.1199008248234064 -0.27741277513136736 0.18999346787543409
P 2.343877478924004 1.7626000634268677 12.020382474756033 0.9548781464152264 -1.5625131271695092 -0.4557817713939957
P 0.687714328225323 1.4768466976234724 8.470719723315764 -1.203064677691625 -0.49886986083272145 -1.8638042515803706
Ni 1.704694257298226 7.201297922159112 9.764695317551423 0.23883748596133061 0.007477796434283896 -0.5449167757894551
