# total energy = -381167.94749125506 ev
CRYSTAL
PRIMVEC
9.27256296919894 0.00000000000000 0.00000000000000

0.00000000000000 9.27256296919894 0.00000000000000

0.00000000000000 0.00000000000000 13.57133319044810

PRIMCOORD
 96 1
Ni 3.333365735761071 0.7135023703934277 5.8436802640024705 -0.5555670564144497 -0.1297219246788863 0.7539114673577403
Ni 0.13426763468607733 0.58949946258061 0.2837756533729583 0.8179702455108623 0.3446494367918387 0.8071875530730616
Ni 4.817012852860477 0.7530238869961445 12.809004016784456 1.445482681915362 -0.1804932416944827 -0.7812242962400804
Ni 4.284879026480507 4.949248869066039 11.007979333716499 -2.39509289506343 -0.3849059703190403 1.7372344993772209
Ni 9.550183194078667 2.1599692929637384 9.452446674534938 -1.8707220617461267 -1.0159343902965987 0.3186663824645157
Ni 7.772067304337789 5.453444464127913 13.502118803640181 0.23088223566999594 -2.3480424785428466 0.4527818082254073
Ni 2.478528183416165 0.5847194565253568 13.036459051769436 -0.4370147751991377 0.46788832484954257 0.1465374535743283
Ni 0.22864655928779287 6.042215103282834 12.330343204797181 1.359683169651039 -0.148084486346474 -1.3916646076536419
Ni 5.701262973987659 -0.039703258831005714 10.730133484169604 -1.0169052388503002 -0.08147954473273064 0.13755273357721473
Ni 2.519957993415916 5.6778497532514525 12.834952356154039 0.7720104909512961 0.5633675262954749 -0.5913465280069041
Ni 0.15591999577166785 6.956619598205717 10.280460557594418 -0.133690422408331 1.0719859818745279 0.6454841903915721
Ni 7.321309487930471 3.265499849595409 8.771980590414366 0.11725695944265611 -0.6857558934274255 1.2826866003903263
Ni 8.554087422052424 7.590250895547476 13.59915431744622 -0.9173948047577878 0.8431416025701673 0.9118031696026233
Ni 1.922332056913242 4.528274523947711 10.949256194341293 -0.49295143846575745 -0.12605296046773132 -0.32682115036116616
Ni 5.556240093863195 5.200303503296848 12.889794000796503 -1.1901297147975116 -0.8077637372915057 -0.47950919691792254
Ni 4.435446899080318 6.041844200776122 7.6504177729300595 0.8967064231705008 -0.3108828818643549 0.3520652696399356
Ni 7.750953679143198 0.33867200613516185 6.240342877062083 -1.733153387329312 -0.9324429573401619 0.5163124817892011
Ni 9.060786609034606 3.4357348276136337 11.832994470009211 -1.0060161027416221 -0.019691050671024155 -1.7471185912601523
Ni 5.556175185924521 1.1733593525466612 6.53323995033136 -0.3511273312066985 -0.5656920606635936 1.0059788217457835
Ni 2.7438718367180615 1.7046308305985258 2.88255135672148 -2.063451183385169 1.2072013255678178 1.438177920723833
Ni 6.961116791099602 8.121624371788686 4.331698049902786 -0.5882905147893996 1.801197375382427 0.8350606253342456
Ni 4.387173937831728 5.1382515139239 5.332163053458097 -0.16966092696566912 -0.11704201521837262 0.607403838580083
Ni 0.35090158903772933 7.233730133533057 3.2904643700659397 0.01860733068854215 1.2523648094783335 -0.08807236745889993
Ni 4.730657476735214 7.438672313616875 5.674378105788627 -1.2747326356505724 1.9827095452597274 -0.1247337274356755
P 1.3420829028500338 7.960059239864859 12.190517596048021 0.2802610432134399 -0.315229845979141 0.4799699386044251
Ni 0.7740253141824551 4.322228908906425 0.11262918244448852 -0.7932516597182597 0.6711623118839667 2.157042423779769
P 7.26294797849931 0.25032395629258647 -0.012161893195092508 -0.6744854627199287 -0.08699713211685017 0.3066423614204461
Ni 4.6114957738912565 4.865767987367795 3.048718461497339 -0.826761361439931 -0.15967707628007985 -1.293714576069714
P 5.120568736916397 2.5534319446466904 3.1456853583396387 0.4091874685742243 1.0077917065848063 -0.30145850322666146
P 4.947755986476523 7.111332306318037 10.53071682417953 0.7532941454887155 0.7206046256754944 0.7201739658959792
P 3.5621291293384783 1.52781233308616 8.530478550243927 0.8983339314715948 -0.23094188526333773 -0.38072767057163465
Ni 3.2036889468518233 9.179651589873194 10.248840191640937 -0.3857973717850582 0.11765393777075867 1.0549303119438218
Ni 3.7257156799238866 7.853230045369083 12.56279244203504 -1.2457668445458416 -0.11376977222500406 -1.4948784587396708
Ni 8.53978913041867 3.1830296772279554 4.75221896670666 1.7691118077017918 -0.45734937299143175 -2.3896619538558457
Ni 8.598299000852517 7.038700322941123 6.39789298935075 1.007553365321755 1.3831959080609983 0.6353591861424284
Ni 5.146318643444889 3.4842859657422585 7.449752098748634 -0.2774091755869416 0.319752673550159 0.14210255773142624
Ni 7.235510465565275 2.9286647381247395 6.493502383018483 -1.332562916395479 0.03458082329866303 0.1171677421629595
Ni 2.212980533735577 2.8142134971160275 0.8756600190717276 -0.39393234218736667 -1.8960348294793021 0.9572926693939898
Ni 3.3147557024867873 6.934179996549629 3.400283966022083 -0.000551758738411953 0.031127060422107684 0.2834270996462474
Ni 4.734653951245037 8.771964827057829 8.530233754589498 0.5999610091487926 -0.26770583225624867 -1.5105120515118697
Ni 2.365532734746298 2.1778653389126013 10.290761447462083 0.7944626493072253 0.4009123730496256 0.022654247064406146
Ni 6.991762610716696 7.657671698705083 9.609291144804587 0.034399303415476236 -0.30314103313540697 -2.188762380590869
Ni 6.439396052595576 4.279862570077225 4.2280539806834 0.3670861685288 -1.7225159622201238 1.4429840838632244
Ni 0.10692933817258904 4.94949922825807 2.839109400622816 0.6158666246354555 -0.9644591052354423 -0.31925747908129537
Ni 7.170537618951968 4.264905926494056 1.9897472965332488 -0.16707671117826065 -0.3312768721396746 -0.5904091037942993
Ni 6.132585499043258 6.3650300999997835 1.0855630201828204 0.27993194200879534 0.5838587042702913 2.456865705395853
Ni 5.013785905233958 2.532160685886747 9.999371165626323 0.24151837522760342 -0.5961426638439669 -1.4764824727309862
Ni 9.52820722055597 2.182816887377209 2.5634750572721896 -0.10510489746115448 0.14982512318666455 -0.8596766241107131
Ni 1.9354063702748465 -0.001684824636740095 7.981789490476859 0.9505008432831372 -0.4051631779061796 0.04839201815014246
Ni 4.025720172478037 2.7973096153726194 12.049769367313417 -0.6910503090571454 0.6534044736799134 1.4757018858112199
Ni 7.103394992674396 1.5399872078689874 11.670531754019141 0.6363616592650138 -0.8521240085744357 0.6874728761185321
Ni 7.950378684439671 8.599096441241949 2.1323277836510126 -0.6040112679587663 0.4844832530937463 -0.20892141512818857
Ni 6.871293476536579 1.8406871426232225 1.9920135108492598 -1.0464572414758042 -1.8639464335851899 1.583235704428841
Ni 7.014953289948876 6.093835459654503 11.299803571485112 1.7073202283162918 -0.3554964068086716 0.0032778994203233867
Ni 4.439499008966149 0.4706789900428284 3.516699135803836 1.8654520715964389 -2.050468912192888 0.941445160838772
Ni 4.316294468799029 1.6900358169594014 1.3149662205843062 1.027072409191289 0.7885365136307774 -1.0901801362850516
P 1.731335811081803 -0.004513883506687278 2.0401102934071624 -1.2661202113912131 -0.13743986214843426 -0.799094748762598
Ni 6.71704439655765 1.6217897557243595 4.409651556994753 -0.3767116074337061 -0.1853711386120743 0.13219069793435298
P 5.697266499477836 3.1676464957620674 13.60417541013084 0.5176566545219214 -0.7092917717658365 -0.09152870143861656
Ni 0.01848207190946812 4.2549286490634985 6.576016136430476 0.40410208363151695 0.4077286246405107 1.2403541581707027
P 2.2939578235135145 5.173338891058873 2.149549714293926 -0.23887836650159505 0.08646337110056722 0.1602936268181562
P 6.867306274589422 7.818810292746192 7.357304648950622 -1.4969260852973187 0.6349161850677388 0.2540995543267237
P 8.57531231799903 4.897665602945042 9.859953549634547 -0.49147433969959875 -0.15111993073868812 0.4946506805450513
Ni 4.379616799257467 2.7343303697328905 5.090986480237299 -0.4411048861081113 0.3484053042898451 0.31517713836433464
Ni 8.900306366942912 0.5518194769237194 4.128643763578134 -0.5118127941466347 0.31527638294636023 -1.2851726000369736
Ni 9.19648129111526 1.7965775620124762 7.198167073933226 0.5372978257916166 0.2153340035227517 0.555333857357721
Ni 9.06216822087211 8.882771950938094 8.830839109204522 -0.042600094058713726 -0.13819705202943297 -0.44051198971911876
Ni 1.6924003204396916 6.604243671703806 5.177721104175677 0.05046561284971953 1.7184207091048276 0.42403841754412774
Ni 1.4269083061351102 7.071330470969127 0.9022750556971273 -0.4194117174053938 0.6800439306443127 0.8060246431132119
Ni 7.174200281205752 0.9134800204249023 9.056584283633558 -0.3130145834953771 0.2097997039680838 -0.07697497199415776
Ni 5.130657285098969 8.568237352683495 1.0841906809079853 0.0028868346294918024 1.9780478781179998 0.560104539273487
Ni 3.715933126309353 6.693501359944094 0.9707575672801981 0.9607860272592291 -0.40178320569035314 1.2305338296461712
Ni 2.2005274820727156 4.399293177238548 4.434799674206106 -0.10163776484816045 -0.7689071694356242 -1.2984418063420542
Ni 6.675827855499258 3.63996302037203 11.242777311078115 -0.07709247140862852 1.791921863617772 0.3438734778577626
Ni 7.989991072156532 8.569266607139621 11.54984193284753 0.055474636028536715 0.3269836440809594 -0.5289947052425599
Ni 5.714281651973257 5.191930379207821 9.562510138889245 1.4672033614219053 -0.24671560315782676 -2.8032187551423595
Ni 2.0550038835641904 8.981932736107597 4.183146032426956 0.16402738282897558 -0.40788546193334907 -1.014249289284692
Ni 5.979282220456445 7.675873739221984 12.750443147255934 1.1563469619201119 0.20898954936196265 -1.1848404413741143
Ni 7.312778730276091 6.205801653868243 3.286759981280152 0.3862442295144896 -0.12173916358372583 -0.35567818380217453
Ni 2.350733724728482 4.975703490357286 6.6958649361681175 0.33912696431171274 0.5949622703826205 1.0247072513932223
Ni 3.0637659761946523 6.705583509100244 9.756743436348016 -1.3198053596194947 -0.1732391312352307 -0.9087083327273834
Ni 7.952520646415934 2.6416232881801798 0.37895943641423924 0.9222189656193085 1.1627091566927137 -2.4897611705722924
Ni 2.1912363742795753 2.797578519689986 7.244770973901612 0.39028523235308266 -2.161576564204697 -0.5983085611470341
Ni 1.0665672483015558 4.15761310386489 8.774409074577063 -0.9503679172496988 0.06709550809691671 0.02801782536916465
Ni 3.325029701922715 4.167089662911386 8.806627520822618 1.1757428499482203 0.09814209299007613 1.2972043343905273
Ni 0.5948525130087337 6.333865016873292 8.260097113644614 1.0285803611953834 0.48307300300978095 -1.815507621357512
Ni 6.541561148069447 6.099732809511226 5.820689872123915 0.17079709745264132 -0.650992264693995 -0.33439407761241763
Ni 3.8043562839095375 4.346958833541459 0.7406069983276874 1.1693145778243732 -0.4199269664789155 0.0026538926830793003
P 1.2875787794886786 1.759144226522549 5.453640115200204 0.20032878836317114 0.316953513538467 -0.860762400975724
Ni 7.348144284291098 5.328505954741915 7.885419746670366 0.5824409979871582 1.2734918212649358 0.012461622802120473
P 5.413312812901655 7.459118314299383 2.8099583181077716 -0.13041072321579475 -0.15301174844476229 1.9326280552223034
Ni 0.6068456455632721 8.991307296964747 5.939182095943257 1.6301475384890314 -1.0696367649160612 1.9163622281827448
P 2.724260366675655 7.156730773139608 7.086271351195761 -0.504761543726808 1.24283218739755 0.42636449457414316
P 1.7225361491100564 2.7716153442201326 12.41614129990611 0.5482633236641848 -1.0625199513656218 -1.078353833074085
P 9.023622177862046 5.631653846040451 4.988102761156674 -0.5421338137276793 -1.5398876764605092 -2.6604492532508957
Ni 0.7730887853530068 0.43916989484136165 11.119752658626751 0.20837094194135725 0.28268122261915835 -0.361971473010054
