# total energy = -340866.893511908 ev
CRYSTAL
PRIMVEC
9.27461530761659 0.00000000000000 0.00000000000000

0.00000000000000 9.27461530761659 0.00000000000000

0.00000000000000 0.00000000000000 13.57433699517644

PRIMCOORD
 96 1
Ni 6.482677888530478 4.848221700685738 12.020007219284704 0.4095049998146431 -0.7769428952559071 -0.42797451937374037
Ni 4.802850282412149 6.151397902979711 3.522268898024579 0.7753979193662904 0.15833573176083698 -0.861763845657045
Ni 0.9518537729800749 8.521191968547585 10.470578850010817 -1.0699941482554798 2.1188764542330087 0.28175382570888247
Ni 4.821260393874348 2.95453073929948 2.191929202304669 -0.3416019082147665 1.4973171500881506 1.2173978064848454
Ni 7.357097897985165 6.358036332892953 2.6798592959757532 0.07357031718798296 0.2977951954424613 0.7269778761916899
Ni 6.668708123144474 4.874756375191205 7.0853563056493005 2.41212439662442 -1.1410049322464026 2.0261149088285557
Ni 0.19551631119008442 3.2945103140449796 9.842724489534747 -0.5305821043343378 -0.21327660677309074 0.3249555579073371
Ni 1.737302397418705 5.9496100968925285 0.17861425218317717 -1.1317350769087025 0.3442732843993426 0.7702130327312413
Ni 1.8545149861639274 4.204201685661248 11.238967746981654 0.1942296174439687 0.21362293436891597 1.3122141775357983
Ni 1.9583443049645894 2.9165511894568086 6.541907437054354 -1.5094237035436973 0.8273984808032977 -2.1556442578806614
Ni 5.902049869397236 3.696342298534259 5.003120761428693 -0.19480862987589032 -0.8502440179429034 -2.095784348300236
Ni 0.743563534073675 8.79618431356229 3.938363385993238 2.196177699218334 -0.6946719649701326 -0.8098131636213666
Ni 8.865122529430563 2.159918794898809 13.375975459590757 1.1764979829466897 -0.40833283388341285 -0.8608773292870335
Ni 2.025742934685394 1.8362903670086526 4.127982896746211 -0.08302014974697315 -0.7919416826575845 1.0187908859087873
Ni 2.4513086598455884 8.388889580634102 8.124254198576493 0.42384301370387 -1.1685687007972843 -1.9952177050290671
Ni 6.875170335366138 4.058274887804204 9.527229899303205 -1.5267308273635771 -2.071795698695122 -0.7698355947871645
Ni 0.9379974976528584 4.990531398557767 2.335030024865728 1.2732673639589556 -0.5578828490318198 0.4580762238551272
Ni 1.0160804842524809 1.2653172224508005 8.252219776354094 0.5909809171373692 0.7782711271490274 -0.8274216207317492
Ni 8.158860570817753 0.2229738099224971 11.921593348384686 2.5950414172690466 -0.051322047312743875 0.2914679676728529
Ni 3.535882178429725 1.5875544580390273 7.184028010855943 0.14236609580545803 -1.450155147690367 -0.1844015756099534
Ni 9.121667664521684 8.653512905691759 7.956543184194303 -1.603894004109141 -0.854166235815445 -0.8627015269799658
Ni 3.9955784880639205 6.8037836210464695 9.4931447604444 -0.48677796266519385 1.786313773402375 -0.3228943045029342
Ni 6.970188769587915 7.4212596869501475 6.8802342753451615 -0.16764003988089837 -0.5288029009467281 0.038712586078849455
Ni 0.5279389293515035 7.133681688910654 1.831327520336903 -0.8225570935505963 1.3286764368568795 2.2070699206508055
P 4.058766442417552 6.910079987529219 7.133707657833623 -0.26947089457647144 3.4220416341926616 0.9082941280081003
P 8.932771573765715 3.0559022850334 7.829473534259143 -0.0532125794672374 1.4882879500063466 -0.49152241932871477
P 4.919079761930674 2.998242001426101 9.417983277678829 0.1857596322997446 -2.193272866866713 -1.0602910620351031
P 3.5677868552206387 6.963789284999039 1.0726139020952175 -0.8811088258425599 1.804384000640525 -1.0874761070903272
P 8.024480669066723 2.6807626435104726 11.368059263062285 0.2459401584443829 0.580882909471419 0.0397759943463573
P 3.1392625277650077 0.7096907839062987 2.5458123529156502 0.9880438345339176 0.6853977387570583 0.752311212750156
P -0.02630095419874205 6.816786631761836 11.61055150098085 -0.946719264753518 -0.8267947857810276 -0.6164168407119707
P 2.5241978618513414 0.566599235960586 9.539677360559335 1.077782791061963 2.3443773709864333 0.5951211645579879
Ni 4.88724928206253 1.020448828080539 1.2219899293995122 0.5190854165486479 -1.226404637969146 0.7999077315821966
Ni 6.415427652655212 1.2551429694160239 11.209606169718668 -1.6538456534369192 0.9907028694233196 -2.141900425932008
Ni 3.636585951858719 5.397037789181528 12.695873481023426 2.25311477872501 -0.22658412251527427 -0.045961297221462784
Ni 7.005460131749497 0.5296037228061456 0.3987092215022151 0.20391650571442946 -1.0049370107448308 -0.5605357132736347
Ni 7.746789410986273 7.994495837652471 10.18863981810181 -0.12090818304199821 -0.6413904799381728 -0.42560267670745416
Ni 8.557650481473479 5.695068278716184 -0.03544943477622959 -0.23611005972783855 -0.15872293989692665 0.1416292176394335
Ni 5.093720768899542 8.838884642616174 3.2105073404698805 0.032548623359982654 2.1761305507594715 1.432993548309416
Ni 0.20166167131847376 7.923767621022382 13.373817256599697 -0.6598034352277218 1.0079683413719864 -0.7089457012803274
Ni 5.11825212649023 5.643575614314106 5.809029187321031 0.03108875098500452 2.071983389225896 -1.2109458802119146
Ni 1.609461099486742 1.8555722923133937 11.288595286237614 -1.03541178229492 -1.35165515714024 0.14561674153227178
Ni 3.6300195241936124 5.084742941244424 1.63525936953372 -0.22658926472159685 -2.8401778488652116 0.32551323018302003
Ni 4.555180954207336 7.88710506655887 12.727542582584546 -0.0721281854248177 -0.5695870248426255 0.44186516131290354
Ni 8.886083160112966 1.1656893044019652 5.004369124654291 -0.040235964701911354 0.1510615666969269 -0.7411996762180266
Ni 8.402708757499932 5.321913404877343 10.29426099258736 1.2881910751483234 1.9840855996716473 1.0123003930884373
Ni 3.891869739262759 2.3450679410549156 11.314874908821059 0.8921776820622118 -0.8319318498972769 -1.3082099414724113
Ni 3.6844151431990513 8.610877498945298 5.044535628795597 -0.22104596630586448 0.9362651592997295 3.8645981651456345
Ni 0.6682045020012304 6.836671407064079 8.971985574910965 -0.013685210796576431 -1.8771382496851154 0.12350011213889055
Ni 8.419310318969623 4.183139034210038 3.41418995047229 0.1543302101458697 -1.2485937724716756 0.16880706360580605
Ni 5.417850026018392 7.868759877404095 1.3816774740457076 1.942839448537667 -0.9392543238350405 -1.7146180475292856
Ni 8.093956812625075 1.375555300455684 7.150702462993992 -1.9979160777968368 -1.740865411261589 -0.8887748270282501
Ni 7.648914395237869 5.646951574300121 5.079693840649956 -0.05173008138443994 0.7559297833393497 0.1644888958464264
Ni 2.1286076934900517 2.974461887678455 2.0632309299147176 -0.06360780665863239 -0.36443510405919816 -0.7188359638108459
Ni 2.504925211161946 3.0373530543410086 9.044105911304518 1.7427497727684953 -0.21772255835958632 0.8713563744414865
Ni 5.439367133621566 9.275635553883882 6.604769852409334 0.0019442682105643935 -0.12355127709180011 -0.4134950948106427
P 9.114841547626884 2.3434263341386385 1.9902962822937686 0.41161973216480074 0.7907132095671221 0.081926145351846
P 6.736969292092475 9.016159640343362 8.43103436022875 1.147797529688204 0.012706906043707148 0.2725549328184338
P 2.269349981368573 5.641154939708748 9.80843623659986 -0.1979399764160204 -0.8727550545612259 -1.7721955888334382
P 7.655054190597051 7.88256977965458 1.200011873413632 0.6373196523029088 -0.4034605933927761 -0.4573221192979221
P 6.488205559276811 4.277851406125389 2.6266341334270047 -1.6666335492302071 0.5834393573446854 -0.30884708238124875
P 2.151117184935269 3.8909051792667544 13.409463313221265 0.623747570045429 -1.1373832763334153 0.7886244453588934
P 1.545336408983144 0.25736130124158724 6.0924067120702325 -0.019618288451559763 1.1297643263355768 -0.006203557707550606
P 1.0686397294193726 3.7813905212588743 4.508865380091503 0.4040619744222009 -0.3992930922786478 -0.03792582851149597
Ni 8.198889810651934 7.979758473867366 5.002374154893324 -0.6374253246428377 0.7093753326185783 -0.6818290475691935
Ni 4.2606098961968115 4.997951090834723 7.8969380137489065 -0.4153192925035751 -2.4006145962126073 1.333186151801775
Ni 0.9921798005053343 7.448684724528848 6.051317383701981 -0.10172903901038609 -0.7253663087301959 0.20768368606634557
Ni 7.053048183090828 2.6883121804022756 1.1211488916633945 -0.766367433732906 1.9681259910185975 -1.1131632274437862
Ni 4.476986672223559 1.6540534500712514 4.616373938800002 0.04084145949639418 -0.07667826668934537 -0.2221253154129723
Ni 4.758823683363757 0.5225995332966986 8.93766949813004 -0.3879532417857964 0.29119620206870495 1.0091153104922364
Ni 4.859082275256134 3.2620677095639867 13.189070628749613 1.3100570219834795 0.8849881062923082 1.148107861839771
Ni 2.887308327270253 6.128387582305798 5.53819372490449 -0.9479451667408191 -0.7422461152046701 -1.0060140458590932
Ni 6.1377085707287256 5.516031104073221 0.7376212880213674 -0.8120821621612013 -0.896980502767494 0.3387803796055714
Ni 8.051173012033074 3.3351980515687405 5.662140611852585 1.3799663453801074 -0.21003418857639314 1.3215148861114339
Ni 5.7593877361420525 2.364229296360156 7.335978671380342 0.04559028703528923 1.2708798375633854 0.2569146551780156
Ni 1.4038150534155425 0.28361495490206373 1.4790729921807135 -0.5464051874095235 0.29097997229284084 -0.8353473033367291
Ni 6.795352995696777 7.204252237079857 12.636459367654162 1.6457718752898494 1.0175539281778927 0.12218087910683473
Ni 4.340612728173096 4.6288955969789 10.548711919533309 -0.09597825256953793 0.7415197785616069 0.029754862664929396
Ni 8.47590402181211 0.3895412642325005 2.447480098630679 -0.3060049849467633 -1.6631638455140518 0.05504834712439551
Ni 2.183800929415263 6.869698312311883 11.567330866006044 0.3070953897974647 -0.23779027564373886 0.41773870057834506
Ni 8.166920211553597 1.2592145255530038 9.45512347483267 -0.45008909188459256 -0.5373016824463585 1.3910454860124044
Ni 1.2228673080112624 4.551795719605974 7.87903429628461 -0.730273002003194 2.7124122765817478 0.30076559092469496
Ni 6.2968516954541 6.377735615888273 8.916900851985305 -0.005835632845170595 0.09697249816200719 1.031250966049011
Ni 2.9080185433383083 7.769586415507223 3.3173369973350364 0.19622967859313303 -0.609545567513434 -3.9302947360124962
Ni 3.4544974287668575 4.186672662656938 3.9659729884173283 -0.8103433250932237 -0.7232382066435996 0.3201771626820873
Ni 3.09254629026622 1.8529568507857663 0.054274121544403205 -2.1902644190576925 -0.7895754964182531 -0.7807794953931779
Ni 7.00757474404843 1.9126297259231901 3.232796096069858 -1.0601637924286194 0.3031837134478843 1.705134790629199
Ni 3.2629209741758367 8.980619314336739 11.280300997733512 0.06457531277822427 1.26359076010114 0.28680630053112544
P 1.3539825451604326 6.570054039706989 3.879423205468164 -1.531629550216775 -0.3189476611503604 0.8163201115019489
P 6.121784056179307 7.620163087664662 4.576166626351173 0.333005167684691 -1.0030755320560596 1.2149179774857852
P 8.804939550449097 6.14678841915265 7.24004946993157 -0.38680884376870805 -0.030276796606670438 -0.6517934204390515
P 6.590300525007734 1.4698410400651105 5.33979115341867 0.8505558927563673 0.522998378449809 0.19938005129665662
P 3.9877043396349996 3.757174500589957 6.066724374715081 -0.33860811569376525 -1.2556794756738632 0.22808461832020072
P 5.096540251964785 0.8912970270001587 12.70757526320572 -1.7854473116370218 -0.45357730754350917 0.19429003836825895
P 1.5456517459049148 0.11431890875720943 12.673652430115476 0.5162548890783882 1.183684216282484 0.43135140626577323
P 5.423043810612262 6.5869802127137955 11.089147465602277 0.46615720109104875 -0.09535141761881642 0.1484218150812347
