# total energy = -381164.1810859258 ev
CRYSTAL
PRIMVEC
9.26195572240287 0.00000000000000 0.00000000000000

0.00000000000000 9.26195572240287 0.00000000000000

0.00000000000000 0.00000000000000 13.55580841256872

PRIMCOORD
 96 1
Ni 2.8282956689445307 0.15306122981803377 3.728037254658814 0.4071460126641633 1.1381821180856269 0.31842701276019997
Ni 6.762116910844085 5.125594147635173 10.3569496428099 0.6155146406126754 -0.842491370580678 -1.1677649739490663
Ni 5.660787003884509 7.126741588346921 11.488615233731705 -0.8850670391593596 -1.0849625966398542 0.7600885427027297
Ni 0.3201080129542265 5.457144380833938 9.690437998076556 -1.1252181017257912 -0.7740483473169314 -0.04637498772011368
Ni 7.0860352924308225 2.886108797296814 11.591911048626693 0.42373245626793477 0.1303922112730335 -0.24632145304320155
Ni 7.200161112289336 2.679465300554136 7.689370210185031 -0.9725246558523961 -0.15451378691158552 -2.009311721228288
Ni -0.03209545557179879 5.219075067926682 1.0462648009049742 0.30424377928128243 -0.707999278206658 -0.07047368054053024
Ni 6.396343750817111 2.604202647399593 5.357581134142406 -0.3837296906227521 1.1664475406892234 0.06893050442312645
Ni 8.5877132405675 8.797311301223086 11.167369852600348 -0.06436859608405687 -1.7807715034279072 -1.9096688753229694
Ni 3.0257327815824073 2.1645931754174104 0.7837207696909395 -0.6774728274830268 0.176806793981831 0.13263087079556513
Ni 6.393213209743244 6.725106135308083 5.360712601411857 -0.0706287180611558 0.11521036132627255 -0.9135052398953943
Ni 3.173044189215068 2.662358468117951 3.25544132695304 -0.9696889861758139 -0.09915305075309376 -0.2432638971638004
Ni 4.664246865296886 6.480433047887021 6.747607130825392 -3.2364807481672844 0.8682430256234853 -0.6814948041582264
Ni 6.252070264699918 8.712129093364075 10.096488625464245 1.0360548151955575 0.5819134076184623 -0.8878805973487547
Ni 7.9155453194027645 0.8798904357627539 5.543132378851017 0.9477456491355034 0.48514094128240326 0.7730821267489201
Ni 8.61195177900036 2.373765186104365 9.249602243141178 0.3189481753709926 0.01666589069145517 2.8227779082212097
Ni 8.865710845100308 3.499166916291687 2.904684575929198 0.5137539770334055 -1.2359637424124907 -1.4656005357111597
Ni 2.092498111160093 0.30973832719594124 7.822487670493137 -0.03916124358049384 0.015393708847250906 3.006211463490939
Ni 5.931476925259683 1.733375035426123 9.588741722955108 -0.2055789810185169 0.2797691911786859 -0.6358770063191113
Ni 7.972247013054267 8.024160275536573 6.872889902688577 -0.22127325182532215 0.12232820331797643 -0.5262585372583195
Ni 5.216268695307211 6.299685979672536 9.003456504741582 1.0852847558659633 -0.49770772220382026 1.4212582621503587
Ni 5.011764710363535 8.401881358596942 8.042132174648199 0.07956947219421134 1.0352847697987524 0.5796729483237179
Ni 2.7746133728968156 5.360838564011279 12.523086786265813 0.6646579351065456 0.011215409099845202 -0.03533827028997785
Ni 3.75252771829052 8.974835208805306 10.168768002642777 0.16037693056058186 1.9862391556795402 -1.132204046125321
P 1.5848317876667632 0.3536538908105443 10.792809875068116 0.005938991192254288 -0.04953744460849533 0.48538571030335764
Ni 7.969292449141358 6.717409450005177 11.68573095650194 0.3529296745227599 0.22298457808947403 -0.41549387040822633
P 4.77594605272536 7.979943698357174 3.9997496959587067 2.0345848939727795 0.049732334228120796 1.5022945486980839
Ni 6.692504050751846 0.9645400811609748 0.8806554733151247 2.649367541515437 1.0517166901025305 1.0518419028264852
P 3.6805067496799215 5.7834616089831945 10.523157292747003 -0.20258827382130914 0.26138991734054984 -0.15897927888210686
P 6.819503989227736 8.854531664401621 12.695136877946686 2.2737303980928325 -1.835656071280929 -0.20276825104259916
P 0.001217947192939007 3.2867254351932687 11.32949761099 -0.79025709586631 0.46097385711789635 -0.6631345564834839
Ni 3.307194357599316 1.0442392111628012 12.187091740459508 -0.3615572682907709 0.24552878193857713 -0.09456363161019843
Ni 4.718466354783311 2.324491581036414 6.968648337921102 -0.05193576963734282 0.05697744582630832 1.164097295289492
Ni 6.429223694048544 2.614492680337656 2.9722736986704326 -0.11241248686616123 1.2114567584100622 -2.0701082836903706
Ni 3.39283040129448 7.794167388121656 11.99774494624773 -0.5774075493283088 -1.0958455621009449 1.2596117208487339
Ni 7.619097898836994 8.360721226844692 4.139848818578884 -0.2640939465352742 -0.41056532275835744 0.3634945945227998
Ni 8.392925047299816 5.574104359179443 5.987641425472475 0.5096155293849998 1.0070635701695303 0.740160436320235
Ni 1.462083086921359 2.532904111344502 8.634141572801452 1.511578802213487 -0.3684056586711719 -0.1707302487704479
Ni 7.259511725311032 6.8633871359969 0.37396258138056226 1.152628375417944 -0.2398330171053805 -0.22859446807708375
Ni 8.422396590782188 2.7738446305621087 0.33257275312348367 -0.6783056077969672 1.7969411712092342 0.7567602496604452
Ni 3.3322294242344044 0.6016649871162855 6.003270975952206 1.077056711529216 0.34766868323413674 -1.2723235119884477
Ni 4.711445792256712 3.7995043583101906 9.455949357296983 -0.4253617643412416 1.7622983843243842 -1.9986701823540418
Ni 7.398496634643677 4.635062442445548 4.087184411477968 -0.5278747327055038 0.21721913636060652 0.8746319598689647
Ni 4.621753011903698 3.844980561483806 1.9024085080899615 -2.691595082726081 0.7534494401196572 1.4408007030586607
Ni 8.137674806309656 1.1831500248487268 3.1056088149407746 0.21683347088641367 -0.6176049474828008 -0.1847792706643463
Ni 3.699558592842473 7.807810249073742 2.275369872044237 1.3085061325565917 -1.0412810965915036 -1.052911224631264
Ni 5.814748495810175 0.7208246799737517 3.8999928743901227 0.30576098725675727 -1.8212270403397925 1.1844552901205536
Ni 4.565486630176668 3.122622101622977 11.548641043334127 -0.43773159876050416 0.3951271338264163 1.601750475403577
Ni 6.560845348488515 4.9917403618378 12.594755800554497 -0.12960673925726066 -0.431039017231677 0.6529900118503141
Ni 0.8041785777499789 7.202948960997128 7.886158985914119 0.24805334813264376 -0.7357422526478813 -0.8569329999273048
Ni 3.574105400991835 5.134004003537749 4.070159084253173 0.5361349158317669 1.1318052680250055 -0.8009667689743303
Ni 1.2727409236875027 0.33454369732620165 13.121249827879053 -0.045189452052444755 1.230533572535855 -2.4547327182132497
Ni 6.038721111929195 5.9734613710816795 2.876651414188753 -1.7058012205686042 1.6102274025263366 0.1986017783697354
Ni 2.2331409105880686 5.686424097649187 5.9495497796899635 -1.0339295413224387 -2.345298340138806 2.8078279717795964
Ni 8.59695667249566 1.0804164106732177 12.506887625501932 -1.4096931830205788 2.4232058512495622 1.2591337527710507
Ni 7.70292786114339 7.121351130048134 9.168945426905513 0.6736457404274527 -0.9234068152798225 -0.21340464771052278
P 3.693686512840014 1.9241991115943538 9.134663223559928 -0.4101477756049646 -0.8907959712233369 -0.02191145536111065
Ni 1.3963046765468128 4.701220593009529 3.763593903127961 -1.0829481373129866 0.1894288536212157 -0.09545426174526786
P 7.6351488683074376 4.798711940179687 8.252166473423843 3.4748070988201514 0.6365015272769876 1.7857062217253634
Ni 8.636829392386172 8.899396578489807 1.1963936955041146 0.3654941414513318 -0.8844304340166251 -0.44906964948114275
P 3.585729155570835 4.234297613255656 7.1788447209239425 0.2522954112384494 0.8978137973020667 0.17631288506454795
P 2.6088799350987126 7.839152707635761 6.597192041790801 0.6184086743310189 -0.48159667557457053 1.9422272688749649
P 5.204302248362136 4.000933373915038 4.050949787841344 1.8881903937342193 -0.889660572067313 0.6867881913466817
Ni 6.597791290333639 4.408653931940651 1.329109186928771 3.3827623769770643 0.438566950177606 -0.8392756918568578
Ni 2.082337745603788 3.973323483556474 10.539342560577124 0.49549143127879175 0.3987642163583713 -0.43818694113036794
Ni 5.581356470602038 0.9408850459460225 11.755407724089476 -0.22115986617590944 0.7589577715323961 0.13604838111754633
Ni 1.1712669355062115 7.412584069476074 12.9896504021331 0.07036466576649172 -0.6575130965316482 0.03972637205534448
Ni 0.654835097006057 8.71473170295507 3.330051938416458 -0.6470407362454147 -0.2666341964586247 0.48991033764658853
Ni 1.0369037421376475 1.609681615185055 4.165062640961681 -0.08733060419686896 1.5155195320287902 0.4249308474514101
Ni 4.382136952371188 0.9646604865868927 2.2478785347204226 0.8070456281785584 -0.2570856335382411 -1.6628571129069105
Ni 1.17021107254047 7.600722178450751 10.199566784396998 0.7750721605957555 -0.5881442190195225 0.8650255471274523
Ni 9.023127046554235 3.3090560107231237 5.475814631415888 -0.17869141259905352 -0.4676265865477237 -0.0673086525489873
Ni 6.287515769698985 8.25465330856684 1.845162211435076 0.5709011156683587 -1.066145463933351 3.8162264587104664
Ni 5.283918020761405 2.420362085934602 0.29624180514612586 -0.37610894085270064 0.3657790196816023 -1.8749242727529323
Ni 3.2214656943457536 7.283148236614306 8.751236775702216 -2.58970097889274 -1.3243988925274481 -0.2525772041449263
Ni 5.699233382575686 9.252990266587393 6.130492275172669 0.5658339855580965 0.4281411268585917 -1.67689276506437
Ni 2.2029284106385094 -0.11580316006110797 1.353589462409053 1.6114813295380956 -0.1622108984455271 1.0537254930024436
Ni 0.4130295111130089 5.420726370471686 12.306721940673636 -0.4570372410676516 -2.430563577166214 -0.8216127273594561
Ni 0.9478963465167818 9.124499153221286 5.831871073571288 -1.15631122358617 -1.4400201161388941 -0.9176331460208389
Ni 5.96124485132893 4.821839043911769 7.230234682901298 -1.034189736962361 -1.8065447557372694 -1.4704442369567063
Ni 5.034836242360577 8.863497237654586 13.82082480256946 -4.075161229642304 0.7905118921895934 -2.2755543386754487
Ni 2.682521745981283 7.248314020700666 4.602847507643416 0.7840607372476109 2.129713396947513 -2.7551298700549327
Ni 2.854368074633681 3.165708720189915 5.420805097096325 -1.0591983431915564 -0.32478483665742774 1.329155176265511
Ni 8.39620377966712 6.83554569674234 2.608855854013529 -0.48791696136564355 -1.2305099183867712 0.2683959163447378
Ni 4.910299984138084 6.551638964383713 0.307025500330452 -0.15463360031890142 -0.40659322548448684 0.5016093712510716
Ni 2.946515273284253 5.826761252534448 1.4681079891951752 0.23962630041121313 -2.9528093937207145 -0.5288643503122827
Ni 1.5789411837526246 2.9205077012859815 12.667062963600545 -0.17270279911578645 0.14035600735396475 0.725226697828538
Ni 9.105382476367858 -0.11087209477197697 8.926689709958648 -0.5670524313462298 1.116174246355968 -0.7252848047599831
P 1.8001907848547314 3.775460320949965 1.7280809014680703 -0.8344723569309436 -0.02883260796097615 0.08143583597898879
Ni 0.7152582445140075 1.5234157584927817 1.5684612807198455 -0.044172837862472315 2.1119303619324787 0.8266729154911827
P 6.85296743567708 0.3364507340336248 7.950915802559531 1.0204420483589653 0.7340237272948779 0.5881938413105354
Ni 0.7213702091727182 4.434642980027243 7.466431228337737 -0.4734683900404813 0.07382794172474381 0.3751956850098119
P 1.099885041848562 1.8693220232432999 6.499006974128236 0.31974830267478477 1.0525317298046584 -0.17780823866315185
P 9.799890235018285 6.758486224154868 4.519520469539124 -1.3456914833576372 -0.38709886420530104 -0.40917101351399204
P 4.5989778624935305 4.475330752031661 13.428912550771285 -0.235103215729879 -0.08913320462324649 -1.093509971989233
Ni 1.284661060853377 7.133336100904887 1.8104187626886672 -0.668645458999384 -0.017888193134330484 0.024471502778803014
