# total energy = -340872.0362252229 ev
CRYSTAL
PRIMVEC
9.24014599199658 0.00000000000000 0.00000000000000
0.00000000000000 9.24014599199658 0.00000000000000
0.00000000000000 0.00000000000000 13.52388766755821
PRIMCOORD
 96 1
Ni 3.0977773601432546 3.688074834506992 3.694780408314921 1.1347597226676394 -0.4171679156765396 -0.8113049176755447
Ni -0.028323818924412436 4.339745357282287 1.1970331681078061 1.2029842021626764 0.6565473901842693 0.2854726693213664
Ni 4.545504923983366 7.731571877257068 4.229176848610571 -1.2596235479232758 -0.8515005160578238 -1.3292058269977882
Ni 6.365979969443806 -0.12595519945987124 4.268477036732226 1.723365968925245 0.9808051506936334 -2.2821595026967922
Ni 4.359639391192267 7.4405812056857386 11.176924713829028 0.4681603475640066 -0.20710621629632076 -1.192058299278792
Ni 7.494007728708266 4.889312268954344 11.329244821303458 1.049006233149903 -0.8556867862250295 -0.0675289960899095
Ni 5.484821185549956 0.4390224273794232 0.49898265749797754 1.6042274761891597 1.9368333515529033 -0.10215892745895308
Ni 4.891067896656571 0.20021085914745912 5.929656588652913 -1.4394806986956563 1.0685219345853274 0.9016177444291891
Ni 4.221563892484964 7.09059220317376 6.341431674093764 -0.3749403744658962 -0.36647450308673013 1.5178021574153795
Ni 5.152610223559483 0.46023133403691313 11.720179681904286 -0.5113461389228613 -0.29004666184529404 0.38511834344016255
Ni 1.342112697332417 2.594669901559622 10.731380591543122 0.015201647441102853 0.7365179544716413 0.9538126812651894
Ni 3.7666530344003806 2.2548820200121655 13.127393826479045 0.3426339490237067 -2.797731506775543 -0.8637999022504673
Ni 8.410648672478716 7.34280198281746 6.936090497275667 -1.238399605547493 -0.6868349854242171 -1.0340673524518837
Ni 5.65167973842799 5.482622030849271 7.575121424609502 -0.32308893701224356 -0.13049222718600753 -0.06426755172981835
Ni 2.022834238506679 3.849527902091326 6.133434144079635 -0.10069879797365884 0.5791810962889639 -1.4057074588999532
Ni 7.868778802259057 1.693533922443582 8.588101052517825 1.2988832647548467 1.1571465750032717 -1.3059129179081186
Ni 2.013704974455095 8.13387858529543 5.367982313937547 -1.2750504240013074 0.19128673276556088 -3.046144809350767
Ni 2.6723056065812885 5.985276722288645 4.510554996504914 -0.4886240147349971 -0.014794898920987424 0.047673137706246926
Ni 6.340347804991283 6.229022528378449 3.550399434112881 -0.09960016559284136 -0.42068647035275936 0.24120367220066202
Ni 3.664706505775762 4.522044193794124 9.917107527045822 0.09366965904101932 1.0438259745005443 -0.48944933884976993
Ni 3.1459185197674966 1.5437696392977636 1.7516276431102942 -1.7694339669279011 1.0715527509918514 -0.24581263172758314
Ni 1.4885782484272074 6.777609984595578 7.294244092617585 0.51720182637269 -0.9993037237184532 0.10927265568559891
Ni 6.753502444200252 3.9015684032436733 9.045140840195003 -0.35237560179150285 0.16153958341011534 0.05265850673598027
Ni 2.174529712124947 1.4681113254775537 6.440575666496879 1.8588510213401535 0.5353854392602521 0.08573574890592331
P 5.595730655601737 3.185882150357678 13.12335033867644 1.8776882086513145 1.3366728247987947 0.17971291188503244
P 3.7331575058710373 1.77349814420715 10.663382358592104 -1.645870605651243 0.40924043329934684 -0.7616833979936753
P 6.394910865947358 7.67636200609491 5.7897247446541495 -0.3574208775248941 -1.9222276858245861 0.8320915154035928
P 6.705767850991262 0.7430500206616631 2.2756649559482205 0.03877017878966227 0.8616941687613741 0.06777787887592197
P 7.0641931066197365 4.2374015023882174 4.935529630222776 -0.5500150162479689 0.6571060909012167 0.33817565614203693
P 7.721721881832991 2.709238469348677 10.592111265998302 0.27421149458525035 -1.0209529265571127 0.5455050441927574
P 0.4859457357870672 4.73456754722168 12.017407451891424 -0.9909214131920289 -0.8991967936925224 -0.5797657651478403
P 1.3491721687245324 2.633441553341449 2.204636879188991 -0.33174301314281573 0.7950041236329921 -0.07454707927895549
Ni 2.852682492766476 3.9321717661372415 12.06048131555829 0.7685981228356376 3.0035205469223367 -1.824547362962277
Ni 5.76689511642313 7.852710188710774 8.475041400538105 1.0792534620702188 0.18190349177844803 -0.5166246137129812
Ni 1.3775856170632164 2.852396048246639 13.277806767860106 -2.3228261271782187 -1.6710818148095476 1.1844326644127345
Ni 0.3068791022764896 7.9973369507911265 12.410777090910868 -0.15882115603768776 1.89548178518931 0.46851413135899955
Ni 3.9512803876541187 6.755775520067347 1.6967744415760622 -0.18847137480395282 -1.4778904088221063 -0.20655420044759265
Ni 6.909984313343541 7.186745160381026 11.111104383243354 -0.8181180839426361 0.8970216404180744 0.6473302424613755
Ni 0.82099989064057 4.250596430592328 3.7185959601029293 -2.3045257862071344 -0.6044306148843719 1.50127999139064
Ni 1.6191692290355397 5.772864250610703 13.392854899216244 0.05523269522105971 0.8515293124132302 0.22011085608610476
Ni 8.36825488354282 6.321192982745399 13.514123496725748 0.8192370280384278 0.242107414961854 -0.7268737465136579
Ni 3.0229414192993516 4.046112004011815 0.9472350665182176 0.9656472120062723 0.5738427147951859 1.7179514827778932
Ni 5.284060537727326 7.579054030662493 -0.19103447035228932 1.940682550095664 -1.4872376543649612 0.00010027302329014989
Ni 8.465646020287448 7.537316292078481 4.21628869324706 -0.5018464269625422 -1.0153677191598514 -0.09265998682958236
Ni 8.81682700160778 1.5394360109170018 12.272832802273944 -0.48227647525041467 0.42681829428211004 -1.2635426804720238
Ni 1.2622593573184633 1.9376955350944396 4.401457519044748 0.04325392559262873 0.34062488901347787 -0.44991245709741223
Ni 3.500398233138858 6.892834602736518 8.800737135724154 1.4240152560702055 -1.030834447336883 -1.5406824044476628
Ni 3.3552817433310422 0.8020492756168929 4.075112201608874 -0.5687349612549754 -0.6044195591407784 -0.07461315663020053
Ni 8.582543104818404 1.9229020616667216 2.8364595687833125 -1.1396057379060307 0.9112254427222822 -0.5574038525128724
Ni 7.261682742828743 7.856554089364073 1.7445136548579518 -0.28474504712672255 -0.2070303687530628 0.059132544496098165
Ni 5.394942287341703 3.0794633911652802 10.962611544159781 0.8591030109954301 -0.878827486007551 -0.09081779141452101
Ni 7.997993001143011 4.735084995386546 6.967628038909735 0.5822857033562165 -0.006933751005355801 -0.9867508267541071
Ni 5.225903060054585 2.656800641926878 1.6658587617544136 0.8310147373996463 0.5522115096786555 0.5345215485980601
Ni 0.7636010289381078 0.12331066973156835 2.9308836947111754 0.9822814781288438 -0.5963493805381342 0.5240895546314587
Ni 7.670845639051595 2.9557470790330393 0.4922428951505837 -1.6805905256309315 -1.1440414050798813 -0.5876657367212073
Ni 0.8735476757974033 7.8547337806412365 1.2002062341759374 0.4561173003565436 -0.8268703762139694 -0.2174417938943739
P 2.3576971223420964 7.7915219432152405 2.962015593944572 0.8134186215844378 -0.5229909222506411 0.17913107123963343
P 0.03702896028372114 2.847138405285757 7.304725189999883 0.6521160938857931 -0.3493118752645145 -0.2595752327293142
P 5.717136931283678 0.8826834079510478 7.77354431554443 -0.5867591657465379 1.1015724372823932 2.488609830576669
P 4.78454749586036 4.7477717155715915 2.405061185704458 -0.09689562217748474 0.34523024899597315 0.4436207105514296
P 7.280560360700591 8.793440192584947 12.629769470413844 -0.3661896248564597 -0.152731241089866 -0.26045223601762885
P 3.4551677194419934 4.9065081802903725 7.416540194340181 0.6292952393365356 0.46534678937461155 -0.022739864799676966
P 5.508577600404837 5.8480328367034495 9.787926592686754 0.4491249281991104 0.10894921090790914 0.43695589693674425
P 0.4538436212445449 6.04230690217364 5.515947540695872 0.38365641418265545 -0.47657968197595346 -0.7630710223698213
Ni 4.253728840018934 9.00145435486152 2.2413683067779133 1.1157651838430076 -1.5716096901541385 1.0000624562613487
Ni 3.198282426022886 8.708024284798674 13.612738952789034 1.6148525600031738 -1.1419562404160786 0.5387232453842334
Ni 2.2934319082947643 6.515254524862161 10.645571053545714 -1.008070928388122 -1.4551289467558746 2.33896828415572
Ni 0.18345200670782622 0.507191603027762 10.24427706548716 -0.616481632511635 0.42103973992712 0.3244097127061962
Ni 6.20019327347871 2.4489990030037347 3.9282696525653953 -0.9933315652954184 -1.1892884498431389 0.7657426556647136
Ni 7.667371344230344 6.2617234043688885 8.93976252141982 -0.020873243904583408 -0.20919472339423328 -0.08303300526277958
Ni 4.139594559082536 -0.07045518771955515 9.533299590901457 0.04669071918831959 1.314837474091258 -0.7994444187925328
Ni 4.849847606237426 4.842871296157522 5.180135693886672 0.02795766155519056 -0.9541063012462085 -0.13257713473949426
Ni 2.017410272921375 1.4558773724367677 8.871696835404455 0.8455296431863696 -1.3029036987681497 -0.10973879668874004
Ni 6.7605249550091635 0.45905691150558087 10.036888461081332 -0.34505721375321863 -1.1401307571715655 0.6243427804272668
Ni 1.7329708647230953 5.563621148942574 2.256798426251334 0.6670711725337285 2.4252341945335005 -0.4196821974579611
Ni 1.7626502130365436 8.305523533698485 9.31436080424413 -1.0100848734943573 -0.37066977211500035 -2.0652735813058882
Ni 1.7532160241735202 3.664235258339901 8.45942185807576 -0.1299345549103246 1.2276038004835697 0.44949568127496786
Ni 9.197678091095762 6.72888669578586 10.680354658399743 -0.2177115026159928 -0.9123564710029319 -0.44028316153776437
Ni 4.294459402710615 2.7851924678345252 8.51803395092192 0.35815132793301546 -1.1836752174214196 -0.49677981107291225
Ni 8.344951235832198 2.451013354788396 5.270218799317131 0.22915162613213438 0.16745054957791164 0.8005386802979761
Ni 6.351463700390124 2.897256956111456 6.762038490891399 -0.872039002330808 -0.17568527878287807 -0.2346807834804797
Ni 8.445807427252275 0.5008861275330244 0.7255824490390783 0.14946722562661355 -0.3948150019026362 0.9616936266751631
Ni 5.194274040977085 5.170877991808451 12.062293308149906 -0.020757544262325543 0.372084650184656 0.12326537042026514
Ni 2.299123838108302 9.230563770002226 11.282952614854038 1.2762542145014213 0.5140972193054372 -0.07726756353391208
Ni 6.529604471291422 5.392964896140246 0.7722193129268852 -1.72945099877706 -1.0516742669003694 0.5273502276606015
Ni 0.4122564970370927 9.39085257921561 7.100149285975938 0.5268953995113699 0.15691236905074915 0.9122163458806418
Ni 7.369958771327182 4.097912261373331 2.709307770442186 0.08571826540442656 0.506071263677167 0.5348701901867304
Ni 7.413359736155408 0.41069214035294993 6.557827572626601 -0.5751853448660095 -0.06113671941032052 -1.1390976879213608
P 3.564524844999173 6.329361271633658 12.8518720829935 -0.05598242890289069 0.2363016069133543 0.5101716589987858
P 1.5431597896748843 0.4346749387799595 13.164056876989036 -3.318156982291853 2.3373137792714327 0.9655983610462081
P 8.472040201181876 8.499926961209892 8.875713526784237 -0.9085412110218999 -0.8149949649326222 -0.2937729616569457
P 9.083266605785326 0.15929456952517396 4.939816133859952 0.5099189195580315 1.9302618689829723 0.529298609636224
P 2.6099531027148037 8.717920480951756 7.186242496449441 1.6883789113270986 0.42753588917442503 3.1205113971878
P 4.1372198416116275 2.3860736100975757 5.144459490948246 0.2387716657204017 1.1151195798392086 1.1656900936979084
P 0.8302187841064254 5.640166516759698 9.023962426018658 -0.19868302522963202 -0.02992198437041298 0.12920281895062263
P 8.48170539368993 6.0949849733862695 2.46901593085287 0.014857633838122799 -0.3357302799253379 -0.8824278017642996
