# total energy = -340870.23892828485 ev
CRYSTAL
PRIMVEC
9.23689869402216 0.00000000000000 0.00000000000000

0.00000000000000 9.23689869402216 0.00000000000000

0.00000000000000 0.00000000000000 13.51913491873141

PRIMCOORD
 96 1
Ni 3.2014536922365626 1.8381243814021346 5.063700234776154 -0.256049736074559 -0.37951693809298515 -0.6920049596609308
Ni 3.6719351310787505 2.585869810618838 12.421948653558799 -0.5865750747601898 0.3147937868829869 -0.08897148223440161
Ni 2.1312111793693993 1.42562295613828 10.870114560009076 -0.40554858627005635 0.17387753615017795 -0.12847493964566262
Ni 6.777075679842112 8.10041845590187 6.511789176102457 -2.5833619240485897 0.6256378450896064 0.6207506922006342
Ni 0.13791705922247163 3.695433801549243 9.432759818743211 -0.573423110759264 -1.1060456425623983 1.3271836543614368
Ni 2.2307941850071265 2.8060128190006166 8.494018415212985 0.3021120776502604 0.22108453285328378 1.7137217609672615
Ni 0.24180353599707072 0.08241068713470338 12.265410930106194 0.8610393087861945 1.2944339707342418 0.03947671793838362
Ni 2.0525589863441467 7.230995359189963 7.09962818488519 1.2438755410603999 0.3817792517646006 -1.7571026990560579
Ni 7.516147661113929 2.111037792456052 3.712111022278203 -1.0819109542977237 1.1505540093874185 0.22356256208013112
Ni 4.517693293142307 8.668792547906902 4.373494219066462 -0.633031052229884 -1.2733488679291685 0.05598602844731649
Ni 8.363864045716692 6.265212934511006 1.7191069407526482 0.7839072423888823 -1.7776041614435192 -0.10250628349604282
Ni 8.284870087436955 6.383408291169977 9.960642117610863 -3.491549608385813 -0.7712679563583169 -1.227378314736325
Ni 5.190435104347848 5.72794871756282 3.5051195103649335 1.7083155023500256 0.8189544638010025 1.9470524581777502
Ni 5.978813651253112 2.441081422401477 10.079164460486288 1.073775983895415 1.1662130560809139 0.8906571316526274
Ni 4.917909643042265 4.431568449012247 11.542543240346319 1.9999055974230397 -0.25840640923219366 0.7361171194887968
Ni 2.4896028516394866 8.011014512708515 3.169276955371798 -0.39396782341099246 -0.6916910279649379 -0.5298208006882811
Ni 1.126744622642321 7.203229241487801 9.079964783437775 -1.5093517126551812 1.5689771376272978 1.6780685305400262
Ni 6.341214137589313 0.9373143026702861 1.7053984592883176 1.0464760105288815 -0.43035998888678145 0.4472014859241524
Ni 1.9585920151584872 5.339537124290728 8.714920696673644 1.3109206555353552 -3.449508986374995 -0.5746875792939845
Ni 8.549636553775867 4.934379033548902 5.121521373695646 0.14245634152641917 -1.404277411321646 -0.3901893302051667
Ni 5.584749075933872 3.1879031617411964 2.131358969749717 -0.08528194919795636 -0.04598906513560467 1.597568061891113
Ni 3.9215346096375727 8.218890919523936 12.487017063253115 -0.04791996360973037 0.5775808416813795 0.643903990388646
Ni 4.136754350975022 4.252677430536609 9.266461464360507 0.5955639085223614 0.1780074991581515 -0.0451709401096835
Ni 4.433674461931773 1.8144963943488646 8.710959914481133 -1.3237615160537655 -0.290654470632622 -1.5448547906577974
P 6.533738818649247 7.856592039074203 2.3758393590102895 0.06722894835098744 -0.2109366457860045 -0.6949216190870935
P -0.22387841024430444 7.3184318429453405 11.829527219296345 1.1824521436475959 -1.4481571434237317 0.19203620933707571
P 7.166623411662895 4.220847077375715 10.130577039039258 0.41884016117263995 0.4543568660220111 0.39947435505151846
P 2.164639516017478 3.170593213446501 2.9191057127791225 0.3108767112167678 -1.9318572384945503 0.14765074124316507
P 5.212853057662269 6.522128036895548 5.644388036531271 1.3458552626290112 0.5212454003144443 -0.7077221132858715
P 4.706412371909063 1.3214769225082483 3.170643092699859 -0.9550468107826068 0.09733733770059365 -1.3376153912177222
P 8.579490210600015 7.196532489879662 7.863486460316016 -1.8803531570779872 -0.5092370629996585 -0.1323429072415011
P 2.3252137642325086 6.409567188486185 1.4779795457455303 -0.7812870311572158 1.4464525020277992 0.1166576352957604
Ni 6.939866783761906 8.961546817518453 4.243832176274603 1.2931335067552634 -0.36350307916323205 -1.141391883272176
Ni 5.546055706986981 1.3022456992694256 5.104825679169147 1.0650167496455463 2.301051711615605 1.6262752000178184
Ni 1.619274538848135 2.8468491484621126 0.5934559669246772 1.407086855745983 -0.4741124513823835 1.1930898258670999
Ni 7.536348758723585 5.392972583674297 12.419988583639837 0.0679174897775798 0.569903784752096 -1.452240569464486
Ni 5.690483856152319 6.824054546985558 10.047178003736182 -1.5753663289830933 0.20193084274296838 1.8692560187235612
Ni 3.4637539066039253 6.130834531207264 11.42345282819655 -0.020798424802589987 0.9898726602125404 -2.2715968966895974
Ni 2.5323974036401906 0.05010463368716138 8.637483155836627 0.0415827085377929 0.3481173407357811 0.29555113660329096
Ni 0.4331754520905275 8.961343605745515 7.513394141590638 -0.039380558680151535 2.0929936729289764 0.3213097336246337
Ni 7.222155647067219 8.313098050077611 11.416693265676775 -1.832211307265438 -0.4017073581470953 -0.021189232483105443
Ni 6.322768050745927 6.391832342848077 8.09435258447971 0.7226478813577684 -0.5429020593522714 -2.2181894276027347
Ni 2.4266810972192845 0.9562314713509341 2.4346202117119686 0.07423469024485924 1.3079296912278313 -0.010109063409543881
Ni 5.402634379787558 0.9081524895640003 11.812479598926714 -0.8296937045953775 -0.7315978914622046 0.05964933623151662
Ni 7.346428883116749 4.214510564819599 0.879679749105945 0.20673777721330847 -1.2792780889294098 0.5899941277440678
Ni 7.844842703838956 1.7345695092933733 8.44347041038487 -0.15691211194043297 0.9012868434523316 0.033119408261788115
Ni 0.568551440461414 2.3356791705387456 4.428246860214611 0.5234133545000406 0.085759145944691 -0.5066381919242307
Ni 8.24886465603209 1.827381868132802 10.977996919191511 0.03357475063165185 0.08747587152548161 -0.4440619118539062
Ni 3.0563974339548756 6.811547786051183 4.979219558627127 0.7990605530905529 -1.0622389297900932 0.35591986749933546
Ni 2.0825234859535326 8.063914231963432 10.990867613937416 0.08225756054933575 0.9023610503531169 -0.6160082924196424
Ni 1.4111025512720796 4.9716499200852375 6.264415790147169 0.9360746405554781 -0.41471534037098895 -0.03166133565902289
Ni 8.357222715501173 8.29562183760506 0.6087568897369298 -1.4549484553139522 0.33774859590694734 0.1289199976028812
Ni -0.0772149315766641 3.485673067384773 2.230454267132396 0.0461844689758624 -0.26009331001631336 0.9251489947819098
Ni 1.3651120322970085 1.8121409851625534 6.575247594341187 -0.4202468117121794 -0.1968688548390287 0.2645657439653702
Ni 6.140662591498381 6.085278146474375 1.0979661408349837 -1.9089821336685897 0.6709334837026122 -0.7165903623097787
Ni 3.362711470960562 4.234988769392351 4.593950358316538 0.2784612710005398 0.15578082654946718 0.0026024706198535825
P 0.896960139324576 6.607181400768305 4.797671084375405 -0.14683158777597938 -0.1727789037693605 -0.6093198246558732
P 7.31604872306272 4.455778360688019 3.173954520908849 -0.5061306561601929 0.07840913333752303 0.5828413187493704
P 2.1351368613465844 0.9561298654644659 13.195878843408268 0.45063210887225613 -0.24255864356665968 -0.35576123043428404
P 3.052785806535865 3.5653690299710186 6.722065329218284 0.29957285616817436 -0.8822236561732936 -1.1133635163800502
P 5.626472147677274 6.756366552800114 12.250472093725717 -0.5392567492902003 -0.5968006091429399 0.11299741283535379
P 4.075153473078909 0.3459144694117771 10.22603576937625 0.014348298301872063 -0.438155059451168 0.6911459540947452
P 0.5988318420087284 1.464307088186402 9.197121912675016 0.21800100883195356 -0.9166921222638085 0.005825091322209323
P 9.429303371223535 4.444971189127297 0.2150858063052865 -0.6525395545764567 1.0201944511245333 0.5691154845228457
Ni 3.8819175508136965 5.120844309015816 1.9885565147678728 -2.059274683409976 -0.8341882500316214 -0.812639320216252
Ni 4.5323430145912855 8.415156544585656 7.427588894158015 0.23126610137197592 -0.7500213882747148 0.49555750863003684
Ni 6.058842142195072 8.38764906004905 13.659733731072967 -1.0166776962205266 -0.19964821735637872 -0.11734797649456565
Ni 2.685886950498748 4.892711383198121 13.133015281450316 0.42768347049588284 -2.08615890939533 0.8331402683830813
Ni 1.063397970878706 9.056649927252803 4.8317931121210975 2.0060284224913256 1.8622677603311866 0.3010550971406557
Ni 0.6859404158577764 3.5427755755799715 11.884995720099157 -0.3450253320740187 -2.3138244379002413 0.8666468847809591
Ni 8.691727767552434 1.856468862359052 0.5299689142997606 -0.5621632215747286 -0.7175429560310351 -0.05138966732588569
Ni 4.07682535175625 5.448717267750327 7.060557950468489 -0.1845815528312434 0.05893071289793722 0.6647960033463067
Ni 4.193746016384981 0.9991183923393365 0.636506381021306 -0.36046197834406307 -0.12262053774741462 0.21112536475804283
Ni 8.790174634641469 8.73503034898548 9.82032715946774 0.501008247331963 1.6335640203697481 -0.647419202630756
Ni 0.24090940419614948 7.870170280265878 2.920254782986092 -1.5662931630372314 0.491480767457502 1.2231131117020677
Ni 1.690943636403383 6.8518021908901785 12.942517175980486 -1.3060098484972993 0.3546044911220215 -0.2640754345925129
Ni 8.047370946266634 1.0964660684747605 6.122978548803508 -0.41813490757549926 -0.4862532005099755 -1.1690512968606575
Ni 1.2658985026100753 8.504523540183932 0.9166799945083236 2.5013681586836016 1.1308151361975944 0.7496614338321347
Ni 6.554909790629738 2.828550851999045 12.72373661016726 -0.565163184743317 0.1531953252104781 -0.19349839570489902
Ni 8.775959047434675 4.914076330052777 7.694834544126754 -0.1554812930311774 1.8441538243392952 -0.4277631746938827
Ni 0.7400501688515437 5.495779266982701 10.938846323755513 2.6773586274117247 1.3227477300772703 0.6518173316984516
Ni 4.1565674988363455 7.812642874727267 1.6980976145006297 1.1039684483183956 -0.0938735475217093 -0.587800976747491
Ni 8.718246903920667 7.887360148876565 5.738981269453527 0.48211758107504715 -1.8362795637975409 -1.005061452137837
Ni 1.4125896919740253 5.037010215780679 3.1894752819118244 -0.1506627885966115 3.166007067626754 0.49837132392974814
Ni 7.327086817092687 6.592069834380834 4.13804474573317 -0.31500024646683816 0.52468785033709 -0.48894848795395146
Ni 6.643768756795671 4.002468316658978 7.916291963203482 -0.956019201998205 -1.0314371139178882 0.44720277147573306
Ni 5.97347472376414 4.127951586447357 5.404395856382967 0.09703986106483288 0.5536482421251819 -0.4847974419000554
Ni 6.298281032107061 0.05301056204015543 9.04834318418908 -0.8715304381255055 -0.7822843620734785 0.6095039156422213
P 5.888181200523367 1.3150480409644343 7.203752049958175 1.1092811187805605 -0.5999664084654313 0.39604501765499533
P 2.412040612669076 3.9259036627557107 10.64780549886577 1.275529934740887 -0.10384248580896309 -0.2654437756949493
P 2.9281985159281603 9.165266619887442 6.259265295393102 -1.125899701173848 0.5731760277454645 -0.698539418345339
P 8.909496892950362 0.9144345044173737 2.677627315618751 0.7317637276161074 -0.4733079532032172 -0.3525458088207799
P 7.3154667984402195 0.7625429410459996 12.74792250590623 0.7929251296167763 0.5896336590808555 1.1480829221391067
P 4.595292479707797 3.9228739599592006 13.951747201403176 0.756240372601233 -0.6876240569844158 -2.1592911106046295
P 3.3812222160953365 6.9877601038835655 9.114492311039466 0.8241853731826386 -0.06466273028570799 0.13546371225866996
P 8.531735443959903 3.1004851517833583 6.559673259325347 0.1587928739029136 0.8366739925679526 -0.4484800955262599
