# total energy = -340893.96467075055 ev
CRYSTAL
PRIMVEC
9.07161809834258 0.00000000000000 0.00000000000000
0.00000000000000 9.07161809834258 0.00000000000000
0.00000000000000 0.00000000000000 13.27723006013921
PRIMCOORD
 96 1
Ni 6.378844416157053 2.086136537615957 11.503896851349703 1.0307364883064378 0.06231274199629268 -0.3610322490252363
Ni 4.787138285648685 0.11170155646180716 6.032987157711494 -1.2151123528847783 0.7507996612016359 -1.1172474248154889
Ni 2.5566269442766543 1.4813045369355486 4.744511658858272 0.9703081078170513 -0.3988570331824937 0.7528858543067033
Ni 3.5345020288437894 4.438107775154501 4.9664805489434425 -0.017477330849156994 -0.7716695626721097 -0.328426290064757
Ni 5.122452509414675 4.574272764433713 2.736291250017742 -0.14332408884335318 0.28854359493720627 -0.2069133835592243
Ni 7.460780033170679 6.18717019507241 2.434884920783919 -0.4424562579296832 -0.9105546419075028 1.1619463103847603
Ni 4.89198804887914 4.376139551186061 11.474991954258408 1.0852199640662987 0.23073414012790586 -0.6920646092542727
Ni 5.500630129206268 7.871887627051781 12.265850186528105 0.7837457771103534 0.18555445826747397 1.0157035052327152
Ni 1.8439334031212404 6.418950040247886 0.26931094401930933 1.6421623035617199 0.6238316451188031 0.0345859655049856
Ni 2.713239360993265 1.4616735551367335 0.5790994484759169 0.6901254832500308 0.2573720544304084 -0.446582878503547
Ni 0.6190581123518045 -0.08582022971872968 4.665964145455674 0.05208977871670384 0.35732060450160397 0.6790316873297144
Ni 8.749457829109906 2.290021156806516 1.4215661167222597 -0.6490436256080564 1.1466690725107156 0.25539050522400536
Ni 6.989155674234172 0.8082421742387689 4.779059102473997 -0.4556159352400927 -0.21039388590865699 -0.10901965913452837
Ni 0.7518920034255987 7.5357025279379695 2.3381733062464933 1.0365209561986988 -0.8721104789986915 0.4131541665314562
Ni 7.476591863704567 4.037414398974434 3.8642580721346724 0.804598966410279 -0.46033828041642655 0.04342670372506714
Ni 7.779094044417733 3.960641294093023 12.801918414041602 0.21000462089003835 -0.8742051567441911 -0.232677894117838
Ni 7.8436930376660525 8.66481963124348 6.9838360773178945 1.5825921573075712 1.1702951965700878 0.7937234571483557
Ni 6.940613445211317 0.7381521304900693 0.39973904194474597 -0.6104837630569874 -0.6017440691911443 -0.5261243256733003
Ni 1.8709758969947472 6.3374234074262805 9.229878936221231 -0.25396791384486583 0.42040596299786315 -0.6764567275136866
Ni 0.3534438527516344 4.896650860637268 1.2784459177641416 -1.3796423863817853 -0.9835588021793705 0.2400649306105285
Ni 6.301926165384338 1.826370750273502 7.019021255693534 0.47053244734060895 0.4968870260747377 0.1942643273366461
Ni 3.6855716868362425 4.237525224991099 0.29102386219651083 -1.2328876745903283 -0.3507529785864153 1.1042512696661368
Ni 5.962166848697173 5.814036395003619 4.713735286930979 -0.0033956559451102813 -0.6856849309801739 0.5229127607145381
Ni 5.188811396595051 2.760774640395202 9.31428217917611 -0.5832632367781374 -0.22719835906050548 -0.06005582764131592
P 0.16962293154833902 5.519000156074383 12.338516569847444 0.46299268732013815 -0.6337977551925794 -0.26070574678933167
P 4.14779784931084 6.097315816737261 12.620764548591012 -0.9324964362859167 0.5449147189069261 -0.688416470978724
P 2.645011720462355 8.42077495825285 1.291364809251985 -1.0834811269983209 0.11421817261633233 0.612714452159719
P 6.445421022174384 7.832371658144369 5.695758822503937 -0.11615575595867737 -1.1524393993355897 0.05291793104495403
P 4.7785474632071505 1.1895159373242319 12.684600618748165 -0.22392894428061436 -1.201315556211002 0.5692905766481292
P 4.144695355884225 6.12023072432682 8.321596770725083 -1.090655019038941 0.6362577866972977 -0.05853476301109919
P 4.7019920771626955 0.9945215039760195 3.96472715093322 0.3372310328405805 -0.11947016504389103 -0.6505482351780408
P 0.2010107305427477 5.501491932935883 3.512398123921889 0.6493079350130366 0.874386676627378 0.3470256503334991
Ni 1.3072201835532646 1.0557912133425618 2.6066786905690678 1.049175925958548 -0.09383189565049647 0.037019771757458825
Ni 1.885789849525923 6.4126271223579705 4.728911197028595 -0.8093043423057481 -0.027714435196132915 0.2752695035361195
Ni 6.068159635821645 5.9434974584282445 9.407992902410834 -0.3704820815842265 0.153573020264871 -0.637011891254503
Ni 8.568896340328196 2.4233467295871014 10.22362663116424 0.09203520876138988 0.5159013623937114 0.4757967810633418
Ni 2.365125083937935 4.950155264819068 6.9781536156733575 0.3688311762443648 1.2208245727782072 0.1898847102117117
Ni 0.5834120957712757 9.50823519075422 9.325315988400648 -1.870552368937482 -0.8573970840479169 -1.0770790801267192
Ni 1.414392281044578 1.0197950322992628 11.53484558402292 -0.23115374416382772 1.3050803947044942 0.11313548107511485
Ni 4.202318274731764 6.772017420843951 1.5795120613152218 -0.267286742440959 0.9997639511843235 0.10996196844313964
Ni 5.72605984163721 8.039431343707196 7.941243776887577 -0.9106929672575799 -0.12403695847896702 1.4000937122576016
Ni 5.30461967461893 2.8440702387670687 4.984417859623108 0.162258720964327 0.16798456770451067 -0.1909853994750582
Ni 0.8294788324601303 7.2740679872449805 6.886553857995282 -0.0029243727356465764 0.38808359671607356 -0.18965408225814434
Ni 5.143217443489301 4.414512496199455 7.410486981833974 -0.27232250509265354 0.6590071645786715 -0.6546748557519048
Ni 8.35617596500453 7.224981461129735 9.495476866908632 0.2726644618131046 0.0914507970128296 -0.7821226396846337
Ni 4.710682687404501 0.438455801288167 10.475071023125894 0.0883922126921639 -0.5244844760770322 -0.18211895022336377
Ni 8.245202859484703 7.229009259613411 4.467682157669435 -0.42505297485157123 -0.14933584225507185 0.7831305121238578
Ni 7.010991059257162 6.217469399882042 7.085593325901762 1.001708990725836 -0.7581072506066429 -0.22335764515817663
Ni 2.3494856141499696 5.135678928759718 2.4921359032849923 0.26129170119978873 0.22492576097624487 0.07329932291478344
Ni 2.420824819725701 5.035138184177339 11.36306542166508 -0.3163027673283456 0.6246525983582016 0.41887307129310436
Ni 1.0712311075299847 3.4504534861607845 3.7867320229421235 -0.4632886212940021 -0.44913546972207163 0.2296841015968367
Ni 3.7615192744608636 2.614812303452995 2.8554542124543763 -1.055202334658286 0.42925904251311875 -0.6503160645625768
Ni 0.8545945146265812 3.449265104175736 8.001217152012414 -0.5846554891399738 -0.18115555786882995 0.6460385202331455
Ni 3.6481421901163205 2.675401641454051 7.164074616491452 -0.35432861175281555 -0.5120377656732472 -0.6551330263352458
Ni 4.085793338869573 6.7563144497285395 6.029137162944665 -0.2831093112955124 0.2230023187012869 0.6318468021137956
Ni 0.8953714384646931 7.298325494329098 11.440856362109256 0.24249179488446623 0.3180650014350909 -0.18174356916181603
P -0.0033347268527007634 5.646365675693313 7.998442144003053 0.297442697199049 -0.2909635172326086 0.6289175442821426
P 8.480729282979453 1.6653223122539245 7.9175577817504665 -0.3931826085055357 0.06642676416466625 -0.5623051464692316
P 1.6494106939197648 3.1509177246011366 10.374880443006285 -0.09170405067421625 -0.08752832202997184 -0.4894807063083376
P 3.808791476934813 6.145086958212566 3.7087288066319153 1.590871366597228 0.6121056149311265 0.3800221598641778
P 6.751951001371225 3.9284551926964446 10.269937242108304 0.6634875689475284 0.7894554259006209 0.8421499280808593
P 6.571326011262071 8.092300734614541 10.348870299284675 -0.6020258620976212 -0.7944785901468252 -0.08626899570157401
P 2.447558878580187 8.468056232345004 5.894160555650502 -0.41065402581742183 0.2497464195643505 -0.0774997341493762
P 7.048992067924091 4.119975196271576 1.6740328800557835 0.3297005287914902 0.15116698192653966 -0.3287613048066725
Ni 5.687795756042291 2.957347535311341 0.3866432539018764 -0.8445670221627841 0.18652247860769813 -0.33781904413356656
Ni 1.5884494195722427 1.2368244262710066 7.231602835258643 -0.5146991145554942 -0.7338252381308265 -1.5003834477183
Ni 6.904091110312042 0.9472402298838638 9.273123340211507 -0.13040583811978831 -1.0357866491358354 0.02327336870564379
Ni 2.763886205440023 1.54437949832518 9.383576642008103 0.4271437959423289 0.11729038378375284 -0.8564416621131831
Ni 6.228845209112963 2.283616594352744 2.5330171507324786 1.0596333738464463 -0.9463811646878089 1.4256291375245447
Ni 3.840224634020254 6.982524321325238 10.496261416094402 0.4613662074603087 -0.03249951528960209 -0.2691813883605106
Ni 8.300984239836326 6.951463100586263 0.40856119065054436 0.12106424900388826 1.3368389180630138 -1.226922715256145
Ni 7.401233931263367 3.9006778977482135 8.129608671650496 1.0742722068055433 -0.36228360493383416 0.6629841469485486
Ni 3.118432259803744 8.550335809477746 12.308510378305883 0.06004554322867078 -0.24554035190280293 0.7254845794756151
Ni 0.14382052788365787 4.779200619718018 10.082396957440352 -0.7336863985601171 0.614362015065471 0.6666549109319164
Ni 8.431851404082957 2.67465776876112 5.844742915470722 0.6673339392768121 -1.5366953947754567 0.05273589694113499
Ni 3.4350861649190136 2.497534423279666 11.568092157587836 0.6863863279225728 0.21019488252397348 0.0640225255985478
Ni 1.344522677618296 3.216986319998905 12.618679890727162 -1.3454785960158828 0.7081260335925095 0.9721708720574032
Ni 3.038103080585395 8.342006097366014 8.084451970542299 0.4211364134059844 -0.46320300355873134 0.048943262667922156
Ni 5.721206525896744 7.9228701213721795 3.6671445087734265 -0.8785660048160482 0.9416747603510751 -1.2373824771368884
Ni 2.9662649360083075 8.294752038128477 3.6781774108361436 1.0415204662958193 0.324891280328305 -0.7433468044680166
Ni 3.194561279792495 4.159191801778174 9.168737136671401 0.31874043023556076 0.17139976403364676 0.11923285222210432
Ni 7.10627933689799 5.912690242999051 11.519138984260225 0.6720071763827653 0.27515508944544226 -0.01378239849607304
Ni 0.651430181921616 -0.0036821698300088137 0.2878560531188093 -0.294593400675712 -0.4317514699176693 0.4743240531725573
Ni 4.778102953915034 0.5134372615737985 1.7554751468280674 -0.2355567583275298 -1.1701486436898945 -0.4956469830200496
Ni 6.0299499799359655 5.658612360272056 0.48448337774418754 -0.04831385661403938 0.16502265686270934 -0.7914981673622628
Ni 8.319490340977538 8.978452687495992 11.45227480794575 -1.4865429422907817 0.216446262750324 -0.11369521023332678
Ni 0.035140727446428044 4.949465821835375 5.830523153932069 0.1629035536371775 0.6229322732329853 -0.26594565503203227
Ni 8.020517019746693 8.983804942237814 2.426905525409502 -0.37441072721467133 0.2755893487693834 0.6035232725787542
P 8.556849231349997 1.7351102711163484 3.6528712246873565 -0.11687155107877935 -0.08977906573736151 0.35437077784466064
P 1.7841695823769732 3.1908782028006653 1.6367503435508064 1.3437384733963245 -0.6780212437873292 -0.49160340907829536
P 4.6226426327106465 0.897773602965768 8.115799854416599 0.11488126012162794 0.7891684907878215 0.9194156918425584
P 8.543640955241367 1.8280762144963196 12.604472829454 -0.10327735733411246 -0.9240583328208924 -1.2071527317180695
P 6.441375080454295 7.784872665215259 1.3955169650423624 -0.9845165381069496 0.6282577992109567 -0.5302375765107256
P 1.7429390776285376 3.119702286352651 5.891877229347932 0.19267949934802944 0.5878380006330134 0.865864755199296
P 6.85919567180819 4.166004587051238 6.02904463243896 -0.9571363463217837 0.2935089093622816 -0.5589022914352697
P 2.1952771762580756 8.607133211068497 10.215833203963056 2.1428622756246454 -1.8619265749416836 0.016218261631075294
