# total energy = -340868.70241899113 ev
CRYSTAL
PRIMVEC
9.26469696197808 0.00000000000000 0.00000000000000
0.00000000000000 9.26469696197808 0.00000000000000
0.00000000000000 0.00000000000000 13.55982049377375
PRIMCOORD
 96 1
Ni 1.0985151206553305 1.1302374431072482 1.8189546341020344 -0.2995610290936324 1.480686740620321 -0.12422696300258607
Ni 3.58554890676445 4.547446805785442 0.15445824860444865 0.6817280032149549 0.5091966966800263 1.1219157768254355
Ni 4.162229970146343 5.149281521462006 10.036531471240867 0.7781801100971178 -0.09460785458457255 -0.46146133827727626
Ni 7.225388937818688 7.398323771605923 0.7519663507923903 0.6872404483927519 -0.22976689111863008 0.7351244165582242
Ni 0.6711077814491208 1.1610055017704544 5.992519034530992 0.048226439106555656 -1.6043696581939788 -0.931041963227577
Ni 5.244680106242203 7.266070222248119 8.917453355643355 -1.206237933213284 -0.27170441189268046 -0.3020663120139895
Ni 0.23644247863051834 7.008242970053488 9.613031054750188 0.7425276510008308 1.033191891825466 -0.8445518526541327
Ni 7.292020638482879 8.78843596493989 9.708519507091067 1.405913147152856 -1.5051471876555305 -0.569567741568916
Ni 4.331208778324066 0.36427584106022387 4.2845239702530336 0.35526552174478815 -0.47792154071582854 -0.6137632051392076
Ni 3.7289571512835002 7.217551004175486 3.6485405079860715 -1.3065765196340466 0.15070444046782433 1.5262482313002037
Ni 6.7089284047923625 7.031979123710561 6.555766287295105 -0.7479511360092473 0.1770741887106047 -1.0857994907188526
Ni 6.8366978408129215 0.7716102877943763 3.5891352709645483 -0.48713611733556106 -1.8895854743095328 0.978759066797882
Ni 2.680323159156535 3.3204025439573748 2.171768192061349 0.7362279340350482 -0.9464636970992861 0.00829000792293411
Ni 7.508397636398922 6.90421895238698 3.0647904808101325 -0.7271123448870251 -0.7694668985938361 1.1587956805709205
Ni 8.119756460568643 7.428952859814462 11.558689684720337 -1.0254189327482663 -0.24535960335056453 0.8878250615204711
Ni 5.450087702936556 -0.03260061572541095 1.3440166199907218 -1.2673836514846688 -1.8739691079285146 1.4670377823783185
Ni 1.7043243913353627 8.839178710287188 4.066319047623274 0.16891016484257362 -0.7808103486311134 -0.786467804027207
Ni 7.912579306751536 5.243892606999092 7.050930061378609 1.5832369899804217 -1.6937705146563153 -0.7653135385470948
Ni 5.125749191138446 0.518832295452637 9.808821895981605 -0.6071585553384963 -0.485850308644602 0.2943236919540931
Ni 5.897100067417445 6.1243538195854015 12.996301052989681 -1.3864072159094445 -0.5377025174292029 -1.0771114760265514
Ni 3.315649754407773 6.240069884837869 11.939516906931363 -0.6389852129307898 -0.9063706857331423 0.8731744014868317
Ni 5.416706999725616 5.737682426520791 5.038069951880135 1.622265050417161 1.0312519944902754 -1.240814642746889
Ni 8.367235046239093 8.442167915395375 4.968901577183428 -0.08812738906655146 0.4579456118145339 0.020199357766010374
Ni 5.700503197548961 3.6742676450236673 6.422270342072581 0.6261911464899151 0.8006821478543759 -0.08327134652583078
P 4.878159429104263 1.9481619510935446 11.581592015649406 -1.4587811987964812 -0.31121018329678657 0.3419042699465337
P 5.771368864731997 7.854712009428325 10.915370435386366 -0.3787144967963478 -0.5073200484826037 0.7048527621578764
P 2.0217607038850263 4.619526148272567 10.220293956386033 1.0162040990182175 -0.5281405847723807 -0.2637039101857071
P 6.311028198990683 5.035863101060028 11.058589680087072 0.4242263651852177 -0.3050356790549585 0.6083343208141523
P 1.8772221663346862 2.7748323330268656 0.13474112049633802 1.0427003455365333 0.7438371138408738 1.3688445244353329
P 7.251811853599316 1.5957050839678744 9.659134966320712 0.28313836476123494 1.1317314773642766 0.14327138122854682
P 3.5718742140252466 7.100426704982396 0.4274471774032143 0.12746166788979985 -2.181396170033785 1.2703663882620766
P 7.741089765692836 2.9921265359437093 0.4418241341733327 -0.07131854503932879 -0.43050294222254887 0.15991258932965363
Ni 1.4534363971770903 5.557623040757644 0.414167160755265 0.3258405316154517 1.4792019285446782 -1.141771635209098
Ni 1.3126037384178622 1.3420562101102238 12.268193149854469 1.1151913136174085 0.26113614945853086 1.4081186394446072
Ni 2.744166186030415 8.924154510967382 6.048575083595049 1.6323766849298662 2.240060773754529 -1.4663404992009779
Ni 3.7972009092218255 2.0596718439181005 5.943255861291045 -0.48399705748594707 -0.8293437774551266 0.604866673980526
Ni 3.1999985420341504 0.5205907349390195 11.310368011624908 0.051418977901924345 0.5701953478505858 -2.1867695185305567
Ni 2.5559075434419327 5.988375862042529 8.358924613050025 -0.008002558589502346 0.25804568345866524 2.007493694182943
Ni 9.395051264256988 8.428585869625952 0.15037066429785226 -0.5694492137131806 0.1402873588995584 0.4070128295204087
Ni 7.967379989375102 2.5618647435986452 2.7487244169434826 0.11977792609229694 0.7793098528261868 0.5513417054791924
Ni 7.619972382102323 3.192132814300016 11.644550263961909 -0.37942412126886266 -1.20381081182903 0.40654257475220956
Ni 0.27074409272104966 3.7353127334102574 1.4172994466152609 0.4771003303661138 0.13397967151397572 0.17297276494772149
Ni 2.074356388627881 1.2006861989262843 8.195745505180392 2.4260878007830473 0.2643104334214545 -0.5798464977871046
Ni 0.9627502511429479 2.517746256590459 9.99209613159604 -0.6790638261192306 0.5710975479498811 0.14987140304356772
Ni 8.300047463756236 5.207417494997573 13.230289313390786 -0.38780128958896437 0.3654902847965899 0.0597516661373358
Ni 2.2009214140413285 1.8318344158405437 4.255071498560673 0.4900306652745367 0.13608643344433335 -1.7626729940549835
Ni 9.138437687366448 0.9468705605230336 8.348062682313277 -2.705498323070734 -1.0918061019242487 0.6912338858228612
Ni 5.5579750992428 3.123314645149068 10.054945982953903 1.9366402617054905 0.6666693091096196 -0.9132010783914144
Ni 3.6763336724497124 4.4301928008346625 5.456566505533116 -2.341799840067244 -0.12134707035162971 -0.4045039470556259
Ni 7.007594441265045 4.616626298118522 1.79671658194627 0.027841447692300438 0.9841966928736856 0.44862073486918225
Ni 5.759250641085062 3.540661449907107 13.495696014182936 -0.7722357195882249 1.8885176951666505 -1.3863781624437221
Ni 1.2258676453118893 8.363797843660338 7.3827525953953685 -1.0875848647540496 -1.9860794901732246 1.937982891776314
Ni 7.7019464209617166 0.49387690767328973 1.3841318314348097 0.9692794094422209 1.2080688157744355 0.2268952259977899
Ni 7.856138772762902 2.336130401735044 5.53892873519588 -0.879919433520149 -0.00796759158650886 -1.1513698204204945
Ni 5.506852501319411 2.5962275046892294 4.389964560087446 -0.021462540749150133 2.1164207936036643 -2.5900496204814103
Ni 3.1487369736560957 3.2965922727244807 11.823308886269375 0.40818833788574865 0.011229035946600017 0.5902833768497124
P 9.170743685727967 6.0059417275124 1.9000429679303528 -0.8691110300507355 0.17727756297066244 -0.14103529280917645
P 1.8457963141860576 6.908313948451158 5.11579520070552 0.2414178450939971 -0.11075386821681571 -0.15841337907630781
P -0.05078721589279237 4.358094928953582 8.757854126685936 -0.690369738050353 1.1824536863094923 -0.04227382106754655
P 4.1995018460879505 4.627178787976213 3.4050744625766978 -0.20153489285613033 0.5605017747119058 -1.8029799212041464
P 1.8645758549600169 3.0355779647694954 6.058093633270019 0.2472964153619612 0.8341792511705569 0.40696757810477
P 4.997377549814332 5.3916645237946765 7.511462398159171 -1.6773599345087757 0.8717484676735825 -0.8613085032871811
P 7.382490404470897 9.033848523184293 12.954523754907779 1.3840022060123778 -1.0536283053029467 -0.8219212597388104
P 3.865843049130195 8.921171278540537 7.842959741312011 0.8120937321254272 0.003942272477199663 1.104221444869466
Ni 9.077290687313102 6.087202384704504 5.215242458065006 -0.42413997611899856 0.11571686864904587 -1.4801362674334897
Ni 7.252654941024294 3.0406272246223853 7.958774012352443 -0.8611177274326137 -1.1449338349871636 1.6234125337580427
Ni 4.5088871369639225 8.450904524645422 12.740156269766215 2.522099991914314 -1.1312116003050647 -1.638528306353559
Ni 9.291564599015189 2.9839365438153513 7.208549424591876 2.274411226209941 0.6721313606654553 -0.004434638732585911
Ni 2.0401789214768518 8.225392535509288 12.637562721313076 0.4110589745653243 -0.927298437024745 -0.5204776689104842
Ni 6.558543843449043 5.211531020455707 8.823198960939914 0.5830225815222411 0.05818483587084818 2.2385201687402865
Ni 6.0646891710485 1.333801365103022 13.13405597941289 0.7925644038432479 0.06325556552553623 0.431856885147282
Ni 3.0361986994670063 7.608447099061965 10.11345625024737 -0.5143558722834626 1.199904020575456 -0.8644390784963628
Ni 3.6006503628382305 6.897418664805289 6.5017308686419035 1.0423995264666628 -1.0879090808626877 0.08341558541317892
Ni 2.4531527892613787 8.583380426730692 1.545046647363073 1.0400749920985444 -0.6988842032792674 0.5237493976832206
Ni 0.8219027688685553 3.7680912313176416 12.149640234387405 -0.1789492942461305 0.6505595480319506 0.025760139683239505
Ni 3.5508248224917316 1.0093980004260683 -0.06483434945050184 -0.7467820554018106 2.651291240900711 1.9132748475066728
Ni 0.06526237845087525 8.262247500086895 2.6159196181155 -0.2778593757504828 -0.21956398244369926 -1.06866720191394
Ni 5.542567908168753 2.270962523193343 1.880611192489158 0.031001847698153062 0.8608986694432721 0.4859022449284599
Ni 8.891709542151197 0.5555816424846977 11.333758592084708 -2.570737807526676 -0.6264420861584566 -1.4826148108809691
Ni 1.233446167439713 5.130872568567158 6.795259630640406 -0.22409580887578182 -0.5972600652778617 -0.7118747020016644
Ni 3.3431103162499123 2.6019994109063864 9.664382490688926 -0.37335734624949246 -0.6196680006594167 -0.09343851686681973
Ni 6.246351349388803 8.933122737641874 7.610395464836391 -0.18973790022120227 2.4848516490858175 -0.7625552590756673
Ni 8.718200297151341 5.049287646980831 10.740855970764422 -1.531984876673665 0.33277325417954307 -1.02245136547951
Ni 4.945374805678055 1.944956365939233 7.954868942576309 0.52593175004652 -0.9100396499442973 -0.4270458369118839
Ni 3.3420263467035123 3.783377981330978 7.675739372620671 0.015753920400147062 0.19315952430824151 0.6355502191073119
Ni 1.7762091751859548 5.407516420323658 2.852728978746339 0.46134023931837964 0.8728031341903421 0.9701836664240452
Ni 5.206926466057752 6.581863085742115 2.1030741698499047 0.20915358574365267 -0.8088955369031037 -1.2858683405524178
Ni 0.7333359716397732 3.7601884447955958 4.348200232581314 -0.9347009001364031 0.02505745718926007 0.04168323867139918
P 5.90896814424598 7.988522027878395 4.15479690376107 -0.18116738494337187 -0.8974561568523317 -0.05544789655565934
P 0.7405253764945301 6.3459653712938895 11.90678380603917 0.6732814151094986 0.6496514343953843 0.803739446623461
P 7.2299286393378 4.309696151941661 4.6019593563329995 0.7457325310913737 0.4438418254233001 -0.2347059802914603
P 5.9422654651841205 1.2380692512316251 5.858683074929384 0.18695416682847804 -1.3049865494391073 1.8809823060215543
P 1.3596776637619605 0.07349591465502801 10.023406175032447 0.3257775395880002 -0.24489834744342984 -0.13265246806211992
P 3.7366839085629686 1.1882251814911708 2.2655473078098303 -1.1245856103481149 -0.16978279725551404 0.5729520846601164
P 9.231232892295889 1.0853870450378167 3.7359066004865333 -0.3273430843029072 -0.36737567474476085 0.7167397434034495
P 8.453952609951111 8.108611030104376 7.201593490100959 -0.9223868586557405 0.24302735567296208 0.5542568222434583
