# total energy = -340894.62072510645 ev
CRYSTAL
PRIMVEC
9.05839128325002 0.00000000000000 0.00000000000000

0.00000000000000 9.05839128325002 0.00000000000000

0.00000000000000 0.00000000000000 13.25787127926522

PRIMCOORD
 96 1
Ni 6.62050653870948 1.8707389965031838 11.300982821571154 -0.5277508055331299 0.2354253749559881 0.7570564407446252
Ni 4.771580148750842 0.5342512443306346 5.8547291505025925 -1.0954802083417263 -0.7363636882819641 0.737935146534142
Ni 2.7158869161901245 1.5407327386027019 4.75238994652301 0.3823454086807157 -1.0261969485648712 -0.5379958802999057
Ni 3.3507623957946113 4.09538028747849 4.7335901609654725 0.038819543970358944 0.7472795638635196 -0.0753052976012187
Ni 5.157105287677704 4.338063652069411 2.7284835153017717 -0.6255905367914387 -0.2766784680685041 -0.4670028369207957
Ni 6.951355227012223 6.016248422111873 2.746408260247929 1.1303050293303951 0.627848736697996 -0.6785125816014508
Ni 5.103325617804378 4.5463794796046795 11.90583335696777 0.004442352042069769 0.8001578999197897 -0.3137175230996726
Ni 5.384815131247804 7.767588761279649 12.514171373061917 0.43000954752589815 0.6093884731102795 0.04809351307311717
Ni 1.6664269779765069 6.624936092114914 0.6362704718834986 -0.15107622198494625 -0.36656217770453 -1.1942954161394268
Ni 2.612385735800596 1.5948022770015373 0.3488622054848369 0.3769358076293702 0.21370700944229004 0.24235372664470517
Ni 0.3526504247775816 -0.08933657372270651 4.698443602247516 0.8307391151407563 0.8124063782698396 0.7246834237305584
Ni 8.538820206961816 2.2482384006300173 1.3090680013376896 0.19544189258451503 0.7415010095085294 0.26036944649583543
Ni 6.914623449795389 0.7053742225256826 5.0319717627329315 0.5116459295514673 0.09144308370334574 -1.5664656840593538
Ni 0.6975984993289058 7.564789494120472 2.7477335029129906 0.22891482753097997 -1.0368001780020142 -0.1769021819091147
Ni 7.663661836493279 3.8858053435355426 3.915248739014111 -0.04883424789388364 -0.2591044637404828 -0.6355178232074796
Ni 7.566410946185036 3.815122715268477 12.49914984256656 0.18233620844049242 0.0030069051471238533 0.286507538343784
Ni 8.06024727134659 8.750433288974747 6.991617965205411 -0.2772657080305419 0.4132552108856947 0.3948288858597071
Ni 6.848261674236691 0.6264611398124483 0.39831649345408504 -0.12601979323695073 -0.06175147017618397 -0.950546351809092
Ni 1.8743080027235122 6.904387467488355 8.98188968323705 1.1352250923398322 -0.3525573787850057 0.935008661184809
Ni -0.18479752588593115 4.794823981140089 1.2712999441421622 0.04211826932628875 0.11165683964705932 0.4242641604016887
Ni 6.594391196239412 1.9426535660036621 7.171885389541123 0.10494883149926441 0.40076222062500655 -0.5394660370875289
Ni 3.3360425097336117 4.523199055955388 0.47612898160952766 -0.5758373766277115 -0.9356015575738017 0.5897768695269391
Ni 5.986074920284679 5.496767790834202 4.873275085890794 -0.4047371461123545 0.8814993764127593 0.39368243096008976
Ni 5.442562376564035 2.8648883966931313 9.137723002550645 -0.6801287770486351 0.1845985221121079 0.047327838551686235
P 0.2459326095940465 5.554062116579325 12.321759363346523 -0.2655710453014329 0.8067142129810686 0.7646753907424637
P 3.781778776443529 6.183076816933678 12.555840879442965 0.7607243765145156 1.534196796723319 0.5183341402049202
P 2.4120865846739337 8.546130328839494 1.4666251325389204 -0.36961844803235056 0.1842964174906568 -0.476718778656979
P 6.369906140015598 7.77684643731309 5.833317830698047 -0.14116744751166657 -0.5997383516150252 0.631167516658584
P 4.873251534073096 1.0610999711910853 12.521343807389977 -0.6363367195643493 -0.7883441951143132 -0.06891404936289422
P 3.97193252917738 6.156381737412591 8.205681557307553 0.5255473701239078 1.016166560912063 -1.3883877366745832
P 4.7713627473567115 1.139101779727251 3.6511649246883526 -0.9051861785067378 -0.38587656176242574 1.0083722616786246
P 0.06489159863088252 5.568836352988857 3.440258397206348 0.3644299618528756 -0.08939365737348474 0.4455356681859553
Ni 1.219966039952817 0.9137652347097553 2.592165594468065 0.3869289142863401 0.731862715087817 -0.27098655989004944
Ni 1.8159538451819983 6.343401286714376 4.870477854619633 0.3036485688994448 -0.040828861090903876 -0.8790123483248474
Ni 6.002941645112729 5.55946997625835 9.176290009869607 -0.3254556374722072 0.3921266564371957 0.3119054095915983
Ni 8.704914872078426 2.374412734749196 10.18992038665204 0.6559532082436962 0.7800287332700824 0.6546416885211241
Ni 2.4076842064427666 5.0324618217088695 6.9624907075874765 -0.5061445401172638 0.29607101366250305 0.12163863345011953
Ni 0.6166499960631137 0.1034087847970223 9.299455146358346 0.7173614361478483 -0.057720494639919954 -0.4694561835572948
Ni 1.4053188452329262 1.1950464051504721 11.441026458796793 0.6882496063835567 -0.41571112862535503 -0.09524086018288114
Ni 3.896086617799687 6.713182941349535 1.6075700797110632 1.0613894373056043 0.9612218292450673 0.08301012244464413
Ni 5.859936819731189 7.814157951580942 8.21802452145938 -0.9492386887412622 0.6519911382721546 -0.6121513805673974
Ni 5.319168968611456 2.882099340395223 5.027835701209576 0.5869797663977763 -0.31182570539359844 -0.11046153378737748
Ni 0.8716319386878917 7.3540731928583325 6.859596439423232 -0.15463745697364337 0.00778864280648336 0.12793140843736678
Ni 5.006790340418486 4.499855581260499 7.0267781115105015 0.02842997320591878 0.6549936725439042 0.48124392022084217
Ni 8.265881815020903 7.191058380825254 9.097962099242244 -0.42462822860932675 0.6719097315729525 0.46863317343536703
Ni 4.915989024802817 0.4291865855816427 10.336977030516708 -1.2977285823251135 -0.5641170028669898 0.0702484519036016
Ni 8.23449448874314 7.007245502086911 4.955752645628645 -0.5384324536166921 -0.22040550450838817 -0.5594679341307526
Ni 7.328782164007679 6.021339238091124 7.1890012201332825 0.13198526679176625 -0.14643023857250265 -1.0481796234835494
Ni 2.236770477089571 5.120038349978252 2.6930978150502707 -0.6593426935412193 0.26991029610673517 -0.5208170545277739
Ni 2.3192652477711246 5.505309853945294 11.235741569031378 -0.8972173013686484 -0.8723920147948524 0.5908672743776405
Ni 1.0971614274426793 3.1278082077211424 3.611311625787445 -1.2165277451750662 0.573020990224839 0.21587496362788625
Ni 3.3059142998635287 2.630792387170413 2.6112172033071386 0.760700979475748 -0.054763211783808906 -0.3638463214352637
Ni 1.2285443366295965 3.405022160413312 8.520158108953895 -0.0630673607741301 -0.19645850677448748 -0.5016939605450779
Ni 3.5226181978557114 2.712834238280859 6.93768520851705 0.5061967335114379 -0.3849856745170402 0.37682756418628005
Ni 4.156479137620917 6.998667205410131 5.849426368164064 0.2593073237799082 -0.3600305472335993 -0.11624445901774172
Ni 0.9345361262407537 7.472031565957618 11.390526832457429 0.5329500903458821 -0.03456231135590176 0.09671564495619472
P 0.4427533384146023 5.515536777860905 8.076257978185248 -0.8620566943071153 -0.26927909028063945 -1.6702217808020978
P 8.647783597378902 1.6948612686506472 8.038910230351709 0.6799441718416548 0.05140123729011148 -0.121053707480927
P 2.0285905254256344 3.1733085078346206 10.566602723872593 -1.234686418361964 0.679340733929701 -0.6292494737002647
P 4.110208874236556 5.9346594905725345 3.684190008135241 -0.7448329020952398 1.1732144270994118 0.9455494128151327
P 6.631023331150601 4.0366185023229795 10.543693146126826 1.1687450784741487 -0.3891027820092073 -0.5374032410212293
P 6.35553047282864 7.853752180487175 10.447096271679262 0.6790088045115791 -0.49120360253671524 -1.1774382353727721
P 2.3773114200042853 8.415662317186214 5.630206954873949 -0.2964443378415217 0.6440207184721682 0.7068880474203503
P 6.765123757764164 3.8126497744102292 1.3345637498344836 0.43575596309137204 0.579233546793454 0.2501187153021047
Ni 4.9714082635235535 2.798753080919987 0.4124285614506583 0.6506726765710471 0.37137939658751523 0.7810687444988226
Ni 1.6699506922397245 1.133394993131294 6.961138289748148 -1.348318379457523 -0.30627135123427257 0.3476594272627561
Ni 7.198794247099773 0.6608993323211922 9.297520273950575 -0.7707609348149113 -0.6660329610772013 -0.4370119469856603
Ni 2.940281388499716 1.6525585807091896 9.140414250642166 -0.419786070025677 -0.9683070182266225 0.5416548172087317
Ni 6.372804825270687 2.2417707091545997 2.7763842891421207 0.478422134501331 -1.3767041296890679 -0.7710370712944333
Ni 4.28733666010535 6.928473730279862 10.308605242743381 -0.5738812813426052 0.663506852221238 0.5186349592747906
Ni 8.152126535541496 7.061632084185522 0.2266010964600283 0.2549966122196963 0.5975721972016419 1.0112418699169359
Ni 7.706725429314198 3.955509665529015 8.580189880586792 0.32374379698742306 -0.4602071541552009 -1.11417907030281
Ni 3.051282916986788 8.479433392798175 12.557630817587984 0.13365082741964726 -0.3133369998318023 -0.4053377558108309
Ni 0.1304535182270044 5.238377175517267 10.13053810168411 -0.03668938500123359 -1.3572102826305144 1.07273365867383
Ni 8.721219976638302 2.2263986189112046 5.777210154229228 0.17169646933845914 0.5916298635752778 0.4708996008720407
Ni 3.936695386545202 2.760562902684187 11.220256248895206 0.39604938853036953 -1.7512639808870936 0.7499727944249664
Ni 0.9519101209884445 3.4871183618722914 12.548880411474183 0.4744796049138151 -0.4624671538339713 -0.5632569688595396
Ni 3.314320487103287 8.48398976368352 7.6846066491395835 0.04219077443543701 -0.36148167785782903 0.7961027560138095
Ni 5.527955832500677 7.956429047257288 3.7367440776491496 -0.11748244518990089 -0.16549394007217305 -0.6107455013588062
Ni 3.035539432695085 8.381376305653362 3.566035973781237 0.7922065062831969 -0.43623521672063575 -0.21561553931891253
Ni 3.601145393094362 4.570918661967294 9.546383273169688 0.009082421917242423 -1.2411375733039465 -0.6861952949576892
Ni 7.223351546245232 6.162233458271302 11.468841155497659 -0.0821482886649811 -0.6837347492323386 -0.6864917431521854
Ni 0.46297619726456046 0.01279135452722325 0.3050531070498749 0.5251521915680181 -0.3902039854931861 0.39463862422577195
Ni 4.719802383381812 0.45310979732755063 1.5543266666099282 -0.8417146403156537 -1.0252633810070084 0.09420881937394099
Ni 6.101886454616914 5.702692203034022 0.41465964325793475 -0.39011219711032813 -0.06284187502688532 0.7456127176840578
Ni 8.092495144809458 8.648580735824051 11.449378295688017 -0.8275154659971362 1.065437639233049 0.21220034298977647
Ni -0.08053362893865755 4.775502432236635 5.638440126837544 1.1629387562050164 0.10059441118531064 1.2296095180596887
Ni 7.846994620486249 8.927180622403812 2.4893908970705936 -0.31986065988293294 -0.1478561723857518 0.35102628685245996
P 8.405734320187534 1.671744253741311 3.633346162921834 -0.1747108306847507 -0.16093845949100669 -0.17238912453010954
P 1.5707975397328302 3.289536728172275 1.3971409294570059 0.6169238622553762 -0.2002395710834745 0.37010078698540777
P 4.804063540390686 1.0285350540284426 8.16104180437918 0.539804137153238 -0.1026798329594296 -0.9732581915843109
P 8.533684099025454 1.5836876307265548 12.425330293350001 -0.3967448719354974 0.350536491700235 -0.39751363178072185
P 6.294649024080345 7.725847693606365 1.3754243418615346 0.028243825337041683 -0.13422829718967208 0.672808332127822
P 1.700975682860601 3.128922389866067 5.7960099397867655 -0.37545690909099855 0.7973050038520269 0.983979434656557
P 6.9256746873304165 3.995230711915159 6.158824785579146 0.8043904499438984 -0.6553963072989617 0.15022595816950904
P 2.6242159949979293 8.541075746425932 10.298794098994046 -0.5568852610052409 1.082909313655251 -0.4207430346223076
