# total energy = -381169.60946815804 ev
CRYSTAL
PRIMVEC
9.26721981864723 0.00000000000000 0.00000000000000

0.00000000000000 9.26721981864723 0.00000000000000

0.00000000000000 0.00000000000000 13.56351294951942

PRIMCOORD
 96 1
Ni 2.391202130055052 7.695869816000269 12.342471313875112 2.0118877094855803 0.016899861079132182 -0.13111006327566452
Ni 3.2748593172872105 8.034966647122646 8.522389034279184 0.048857644932651344 -0.76259228296119 1.45857473921263
Ni 9.093829887460748 2.307129914156547 8.794052942232968 -1.0873989739954886 0.24098384288037208 -0.3692109281812867
Ni 5.98783784509666 7.214400690692628 13.127282483777396 -0.34254138930990036 0.7979066419917678 1.0337858166557228
Ni 0.4323241332296698 6.9507297596141155 11.82812858060266 -0.7468435047673654 -1.4380133701215103 0.49771826372678146
Ni 6.728390627797875 0.7018093178635967 10.859124934781736 -0.965916406507259 2.1244405785843474 2.88020349732853
Ni 3.6061346150962774 6.730837173763176 6.30692489573314 -0.8874401673772264 -1.1839570103278965 1.6227479035908505
Ni 3.7379144773181405 8.336327360174176 0.67902493183978 0.5919862184734321 0.08692719811086319 -1.145944278529549
Ni -0.389629125969308 0.369512772458408 10.218044633453028 1.6393952823395446 0.703846175270233 1.6889399260368914
Ni 1.3973020988713267 7.165719986314889 9.614278791704931 -0.655621021715258 -0.10629531822482984 0.12245958668951813
Ni 8.06299998630838 8.627660941655801 12.512285698637832 -0.44919486220509736 -1.5178931744672892 -0.20176706347159445
Ni 2.5823756024724087 4.916213643416819 2.0074410075146387 -0.3479098527106653 -1.9742606431614258 0.5029334893791337
Ni 8.494704142549114 1.4970915191529737 13.023223655441909 -1.9701718178040328 1.6869228956068623 1.5688367553946916
Ni 6.194061282088439 4.7604872858376215 -0.30913405682309836 -0.617343466291298 -0.5382748449929052 0.7884696649485841
Ni 3.1239241122233934 2.376318975432808 11.763349789117637 -0.10921789118826351 -0.40841330941236115 0.3199794448489844
Ni 4.125590073403035 0.6473616227502274 2.491427109656279 0.49503814579145716 0.5857098985464171 0.2791942925118224
Ni 2.3063051316152148 7.179593014004491 2.0052159480969545 -3.649420484695089 -1.1391452533298447 -1.5581059992407489
Ni 5.9093074264983425 6.862969190328529 4.998656682115703 -0.7694278178257846 0.03633765808876968 -0.60723800242618
Ni 1.7783701674059962 3.2286714949726 9.343673200225531 2.026116451490452 0.26147733484803354 -0.4474233721269714
Ni 1.6393340722643222 4.038144589582676 4.358309417854627 -0.17305375469730197 0.03214444594302851 0.3391891850082159
Ni 5.214859061135648 1.0685011486862568 4.675247400273859 1.1154479097129049 0.6815788792316003 -1.016572280990914
Ni 8.137832784300048 5.362485868814571 3.786118846610211 -0.43483088017394145 -0.36233117034231793 -0.0845782382627124
Ni 4.958555569611733 5.903598819245975 9.145984872453605 -1.5301732773862229 -0.1494453712497426 1.4293798628162286
Ni 5.644793178439367 2.8876007460827657 6.041039099178465 0.48973653107288556 1.2461345122979055 0.06553999068433873
P 0.9334221562990644 5.897028360574013 3.309401951495774 0.7108637442386467 -0.44403105861597075 0.2177305287793863
Ni 4.156227501286683 3.717248577687004 8.263244213236478 -1.1729141222501738 -0.08670531190804422 -0.7393659654433976
P 2.9348079625495846 9.308922053576742 6.896300598939877 1.0037247356042842 0.8632766827571455 -2.4869378421908848
Ni 5.671176952542436 5.191978296028349 7.051751720097978 1.4911858403794318 0.24298827490491054 1.1633707015361126
P 3.7372657719485534 7.268993881153175 10.521610018039196 -0.659903965361328 1.3323613419076343 0.006024351817208979
P 8.467347310391665 7.559558283410861 10.212239647117178 -0.47313800328425615 -0.29141011785172394 -0.2582079200681424
P 7.501397213417584 3.8178442460708526 7.999800329037321 -0.14207247582443921 -0.5986687726999304 -0.1281062434523342
Ni 2.4616886020704873 0.3035505570348654 10.637727352473355 -1.226230574285127 -0.4741181078093383 -0.7766801285128236
Ni 6.556094481635507 -0.07236030381158579 8.924519639442394 0.28781005920529146 -0.676505578473751 -3.014970183520175
Ni 4.706876420651019 3.7091397605671643 10.572608454030275 -0.44608742692436726 0.12756142669245774 0.11916831753275604
Ni 7.669791860142863 8.736180082768179 1.4111343507948397 1.1786502534030023 1.2776688354607608 -0.4233547612135418
Ni 1.7883509628780743 3.8426062567499537 6.768572365112065 -1.2200000199943828 1.1897273371527706 0.49793629327485855
Ni 8.941476797803405 7.62785769160883 3.4428536201272584 -0.679756481310881 0.7268205246782192 -0.5597522981403908
Ni 1.5852042427820507 0.5113327403575681 8.342536397283082 0.6386535406229841 2.1878596662709415 1.8394852152190322
Ni -0.27415122968517214 5.494905169186455 7.779691816970505 2.437833885575382 -0.7655189696896817 2.467186113485254
Ni 6.1056242057745695 7.7444671154019185 10.68088664743395 -0.37612565302324896 -1.086763911514651 0.6799333732083773
Ni 1.5191475017189395 3.204335776393513 0.15427974460501767 -0.5779263979462563 0.03436973572912145 -0.2184141851099722
Ni 4.398324345216637 0.012227169494762723 11.732235099426362 1.0993384057455517 -0.3490159412906505 0.8880847429397609
Ni 4.856616154390883 5.057798223939014 2.637994674138861 1.2105080213435475 0.7076249255863749 1.3519881149996262
Ni 0.07903270189876872 1.5564851293484674 1.9020792081082376 -0.431093010398064 -0.713981463932022 0.11111125155623444
Ni 8.155236622644118 6.527764591423677 0.6942000038783384 -0.6987155389118869 -0.5599968100510291 -0.6985784991133904
Ni 0.9474712611604107 6.05362583679237 5.651359930223503 -0.07147332544963819 -0.599952010287728 -0.7677560865503165
Ni 3.131300818997557 5.96850642508296 4.314119608078345 -0.07380223069313095 -1.3231017709825794 -0.668917481713848
Ni 8.82951025101265 9.059568976726977 8.060063204428062 -2.2281807344874913 -0.9290491011672646 -1.177796132932823
Ni 2.0788041585009736 4.955404714959452 11.666614844404789 0.09781119201321864 -0.18750566845657385 -0.10121661815034179
Ni 3.7658088082103913 4.151983114725669 13.370042860628242 -0.4226099126277173 0.12031425821174119 -0.9927980613894516
Ni 2.4951710663607543 5.441034821852018 8.250359071152563 -0.18435992373874058 0.9831147726634165 0.2930967615255275
Ni 0.15272841204974763 3.8119039583293466 2.09717642128964 -0.3178973655089751 2.1067015094333716 -0.14714346258944336
Ni 0.07079321698305435 4.719164753794915 10.216214357588834 0.07888118787793512 0.30028659440574734 -0.015121943243102986
Ni 7.488534312660625 1.2191861388218046 3.686128327663992 -0.026984499008643848 -1.923858793670106 0.01562845056587631
Ni 0.7618710945897651 1.7560639699117613 6.315998430409752 0.011750455667708796 -0.21873557300513297 -0.3293115208831877
Ni 8.34705880043106 4.232459649432747 5.979596506737033 -0.12404441467813478 -1.1995150126671534 0.20655060090316688
P 4.188662769766045 5.946858200177878 0.8807862026107567 0.13430285918134938 2.247010465599485 -1.573472197284174
Ni 7.662053731805644 5.869013555827411 11.690324098941245 -0.699183479687241 1.3002580336151863 0.49122005759694765
P 4.968295417375107 4.78181115805791 5.2063267320816635 -0.8639618817496282 0.7925502627758609 -1.900974689983081
Ni 7.878091154317323 6.46588736638462 6.218056893709472 -0.821682918475759 1.8507605310225355 -0.9097560572656074
P 6.851264692017262 4.781032711614406 1.8404466376657116 1.9370097292297672 0.48996535925424 -1.3835188386180561
P 3.511451432795239 1.707689083779685 9.377405879444066 0.4766889538603081 1.337005525547865 0.3581832096122154
P 6.901798840308107 8.61148037629438 6.336805191778283 -1.7736809151297133 0.3153537731515149 1.1433297237248372
Ni 1.1272367862925976 0.5585899998100412 12.786866000588889 2.47604716342031 -1.0449600881049876 0.5064983239122567
Ni 7.675176114710437 1.7885641089280815 6.845681192229029 -0.5437834335159603 -0.4148984029160725 0.11486120551696993
Ni 1.9058315053103214 8.070497166936894 4.1815492520275415 -0.7618888291362621 -0.05086053429529305 1.4503240691680637
Ni 5.572518133047785 2.455368358326795 12.385169101301344 0.7353545302911594 -0.38247884893478645 0.5897655566730294
Ni 5.243290890762699 7.601325641992713 7.592799799992424 2.3517849763044145 0.8160079795781688 -1.5781246084545208
Ni 6.512909238460129 3.304820238142575 3.2183366917131186 -0.6001710682770697 -0.0237860466760042 2.351683160619227
Ni 8.46630011458076 4.276460407929893 13.218890802626591 0.664932786034487 -1.3664117466241241 -0.15742504702110952
Ni 1.295214408137428 7.7829446110380065 7.0888066975307575 0.7018617978503525 -0.6240830990079769 0.03651943508227259
Ni 1.020988113973775 5.652216221311358 0.49035916903685645 0.4243654618662433 -0.13596841980923036 -1.1845460500621472
Ni 2.259626146663631 2.5569834208628515 2.6461739221273994 -0.747398605939887 -0.5915681570994069 -2.6465789230267065
Ni 8.850880459330766 8.651394290963127 5.681592380612138 1.0462263564119207 0.6807648679707372 -1.1328761324916812
Ni 2.5515342957583185 1.32862273467117 4.493076104942461 -0.32230835009247716 -1.3664824519610594 -0.7092470345708302
Ni 1.904432155155926 0.08055067246360284 2.27289217147169 -0.8632463437398423 1.41316314384705 -1.0958725586841385
Ni 5.099945538523053 0.8883621546055789 7.16742144782712 -0.42830696301249466 -1.9188955361275601 -0.9832721241768873
Ni 3.947538983890471 3.359617307433565 3.9565717428009948 0.7127915573889788 -0.4791119614795039 1.2022280407229424
Ni 4.173140176993778 7.4062414029187025 2.878394690166366 3.4898177132963704 1.469757495302327 1.1304140441044337
Ni 4.532893640527725 2.8900658264871972 1.6502452965807792 0.37500825158935414 -0.9201114323580025 -0.7453288678950518
Ni 8.88432585474277 2.9096659958682967 4.21948646876296 -0.041427671017167364 -0.19114300809884502 0.0793378157993795
Ni 4.625130276863463 5.86849459153174 11.746802241861422 -0.1062670360900557 -0.7583473916419068 0.2573291170076149
Ni 7.191936950465778 6.746906532489808 8.687552201541964 0.29315306868475965 0.27626169224605973 -0.16238290524701712
Ni 3.3087124703600987 2.3466916744818023 6.235254999779185 0.8963752650833271 -0.47582840563222567 1.273322642676923
Ni 0.7443597564987361 2.598760046664269 11.351913968788676 -1.2193230485320163 0.035195316954210354 0.20549053506976872
Ni 3.914436475602391 8.636798420147414 5.119154631238488 0.2819266038413209 -0.48956092472696977 0.015676273084676225
Ni 6.972618932227901 2.0081786781920554 1.4288078652282654 0.503397573499746 0.3900813438723927 -0.8713322060717702
Ni 5.81585678439952 2.2129378944924816 8.772364868283754 1.037756885488329 0.8362631302827791 1.4436230029988042
P 6.055553418462001 8.987748025094106 2.7866510699115143 -0.7895672688881369 0.5369972638320623 0.38557677113381983
Ni 6.840922474982128 4.730776579910526 9.982894497309395 -0.17130257633415014 -1.905279745116338 -0.9688549203102926
P 7.702690489600501 2.6099085118016037 11.470947697220106 -0.3173240095040083 1.4177425356876165 -0.8501242045355876
Ni 6.630380513672811 6.937459101196274 2.460299445857614 -0.49092386651276737 -0.7733814031568939 0.8624292471551858
P 0.4542642755510664 0.8916483106635166 4.211077393729196 -0.19852953037090323 -1.0105579564760336 -0.4839412645473472
P 0.6257495400014506 7.861039470316744 0.3500998009125319 0.2689484464140981 0.7450398758997233 0.12817514901705668
P 2.9541023136850226 1.6520950336060594 0.43502552773302233 0.7567936740015417 -0.6685732110005518 0.564567460140847
Ni 5.691425827293123 0.40245495784800406 0.41669033382261755 -0.17992091413078046 -0.05082068219629313 -0.6417941431344947
