# total energy = -340889.8072801487 ev
CRYSTAL
PRIMVEC
9.08665552901607 0.00000000000000 0.00000000000000

0.00000000000000 9.08665552901607 0.00000000000000

0.00000000000000 0.00000000000000 13.29923885993193

PRIMCOORD
 96 1
Ni 6.083715633803201 2.2952891303029457 11.232882399364271 1.7416233724735362 -0.870373441702927 0.9940224207148559
Ni 4.414006374699134 0.749326486484035 5.870084732896336 0.6666968199134453 -1.0872976725309338 0.24793353472532786
Ni 2.92648455448095 2.00040899231169 4.509027346565341 -0.9836737304906802 -0.8924713020432306 1.0462142722270629
Ni 3.800657141542171 4.3438664823918955 4.5227918120229145 -0.2925825408932703 0.9866338415602683 -0.3780920327210005
Ni 3.6335353771536845 2.627488161636063 2.471822852257417 0.7947449564343345 0.5851691955515986 -1.5274628204335952
Ni 5.034552238858472 4.661445085337612 2.259075174246297 0.7805565807490945 -1.2195547049268478 0.2358282668213616
Ni 5.182782846865725 4.595848520683388 11.312665050282266 -0.02775557284671349 1.1780324173133454 0.6396722116954854
Ni 5.516935509089637 7.869588694339545 12.366948775491945 1.415596178768575 0.2590738676128635 0.4716436781269167
Ni 1.8124697006170905 6.881451276430107 0.08382621252917946 1.2490519430550167 -1.0070286031665365 0.24441472293879196
Ni 2.8118563977953923 1.6731621881203584 0.09539261606822388 0.38037568654885456 -0.17483655762933759 1.2791161094302486
Ni 8.35531585372333 8.81443728637106 6.916295873532136 -1.3046348225266433 -0.21218620192238938 0.17965840449801315
Ni 8.60883353676154 2.45541417010579 1.5367133373829036 1.4208242599367336 1.2240867884692468 -1.2218049344136055
Ni 7.21251447584997 0.6006124684145019 4.709619805773586 -1.952816614355037 0.38149874440970427 0.6944937875210555
Ni 1.0148249245432457 7.3225811315719005 2.2325166981178355 -0.7410320402919109 0.8758360074793948 1.0429564274113974
Ni 7.804092082893686 3.9539308432442697 3.9069837299401398 -0.03297542648475611 -0.891470371582542 -0.8697910868368954
Ni 7.8665900980885555 4.178080456333395 12.559880275611675 -0.1557530586353253 -1.2550896646086642 0.05824808500861582
Ni 8.184041487859988 7.208252834511442 9.105921741274454 0.36684602749353595 -0.157753891115438 0.29666339583086326
Ni 6.934980762837924 0.9734624695902013 0.17825200847284184 -0.6771550391322918 -1.0519095228396271 0.5250565465304183
Ni 2.0667234027350903 6.640427744437686 8.945785797485241 -0.3122676780270235 0.3342336407751534 -0.6325209453626849
Ni 0.3199193253525494 5.105419063590193 1.5185600174125187 -0.4646045118919483 -0.7188804438955361 -0.5493362450133894
Ni 6.657092670268943 1.7600851327778329 7.0615896745444795 0.4253699918713578 0.18274527095345303 -0.2117210893605128
Ni 3.5000069774315867 4.032466805054279 -0.09176613193558768 -0.6072873676068767 1.7571651768628769 0.6981396118037589
Ni 6.216717007517548 5.504259624937727 4.880408035578056 -0.592199877146135 0.5778040134357791 -0.31488788925868993
Ni 5.345706576502826 3.193241494300045 9.17007807106267 -0.7322584078643388 -0.9280407145074082 -1.0148583836236005
P 0.3430812097276176 5.755151264592496 12.360259179855646 -0.3502171606876033 -0.6907926845203844 -0.2536727512019502
P 4.156953982746877 6.196517372772246 12.811009985635463 -0.7016440254125916 -0.9702520577681356 -0.933678886629792
P 2.615439256700268 8.62568019569892 1.276411557493211 -1.1071136788155966 1.1220199065034675 -0.011608016552573555
P 6.349827421095569 8.275298767098437 6.02520666028768 0.3381985389601724 -1.1420541994465234 -0.41347169777187504
P 4.8761173169425485 1.0859734355894533 12.639929165530141 -0.7393605661267589 -0.5434340205963415 -1.4281107662958177
P 4.19207390550468 6.36890939723823 7.854622973050515 -0.6574598746962096 -0.576070318574124 0.6095476243959631
P 4.975743405717852 1.2145496081697649 3.7319129594899385 -0.5718565376030925 -1.3235134045987014 -1.2000868260102235
P 0.10437840950035604 5.731235187827028 3.681721001576026 1.0126243520867593 0.7060622090849452 -1.0402873652196665
Ni 0.5963644570589334 9.045674490598888 4.747602024952788 0.39703592081335487 0.23235547778141274 -1.5173761256215546
Ni 2.2555077533731502 6.605907540930081 4.237868830916005 -0.12697855760579424 -0.31599860582436545 0.7161435045803473
Ni 6.002717188405258 5.633190177074973 9.137188922182501 0.27305501238330393 1.2428684399521241 0.6809733844371175
Ni 8.654412199776583 2.468626166920756 10.492260928663413 0.33484941998228135 -0.29109978570015677 -0.43028105601972993
Ni 2.60918763784972 5.454855480038847 6.49097225529518 0.016796502732048493 0.11713791736628858 1.0098097654560996
Ni 0.6546308168777836 8.991436245077201 9.186049685094078 0.043790771932705225 1.0862800298996969 -0.43642059325856447
Ni 1.812360660753418 1.235803294930567 11.34160423010091 -0.8913847538472713 -0.0808920476603768 -2.018389000939208
Ni 4.285793668331064 7.1841005047080175 1.6366174778105709 0.8221562585677518 -0.2285834123334902 -1.7015195624741146
Ni 5.69120847120397 7.990132263629327 8.042873937022112 -0.5977143792064609 0.5136884139027927 0.5061134297690123
Ni 5.489775496379917 2.819361975078173 4.914507526944991 0.8050088002541879 0.983307605400513 1.0282021519203584
Ni 0.9982872118862728 7.2336500360917935 6.458629214398901 0.5440459431487276 1.8212954316838827 -0.864123347028157
Ni 5.5551539813067965 4.62275410704454 7.075567676401744 -1.2325508600761996 0.29569640393190366 -0.22437528778941357
Ni 0.961168224961144 7.486359006807768 11.110157124135512 -0.33822604976399817 -0.27376052309076077 0.12044615580391514
Ni 4.7283319550452925 0.4684552449780844 10.29536582949919 -0.6362493020568656 -0.15549157744382253 -0.5296850464413652
Ni 8.027996356289549 7.328496544176125 4.624464215573134 0.5414229037035837 -0.04273713385721027 0.516080311173737
Ni 7.294485193365658 6.456568360975493 6.978323199982152 0.1310462999172646 -0.32077314439487337 -0.45921676521747357
Ni 2.8082944289154295 5.361935342879393 2.2139108627132105 -1.35345492935314 -0.46955517102900424 -0.3029384302062976
Ni 2.6163842688520953 5.473728463109469 11.182292445947954 -0.2787464063411264 -0.015496810084018472 1.5554564774330437
Ni 1.152333279289384 3.488267018776197 3.583094444884386 0.028423802558331695 0.5390991406664134 0.18322401036208444
Ni 1.4908929693367212 1.2771384899176932 2.3746319871041304 -0.3304037255061019 -0.43625064333960345 -0.14345624354584327
Ni 1.0353698521901775 3.4879853324617103 7.501980784609894 -0.5518950068795011 0.13687961876959007 1.5930377781209273
Ni 3.6967239781518106 3.2231456769121873 7.078931556196037 0.39318955048407117 -0.3519709101539164 -0.9266991128778492
Ni 4.301077422555805 7.1458275125590225 5.729192507714233 0.9257015248512702 0.06938713234457082 -0.01574877819382449
Ni 0.8024834200243052 0.1567611600085525 -0.09637942683445865 0.5919885324662773 -0.6835691701887517 1.6224833370755543
P 0.302538371083177 5.867789443766032 7.795056312857372 -0.3495083075460368 -1.6067217033659231 1.582490084512068
P 8.695302148653713 1.6287193570185705 8.012671712115932 0.4947242140954641 0.3663338637438078 0.5216158962799856
P 1.7894895493481429 3.357955295032434 10.247529132640599 1.4450157695812726 -0.8311772311194394 -0.8174526824444953
P 4.552904987707095 6.273472256559007 3.512262149442828 -1.1846573788290309 -0.6781917079269223 2.1954133102484836
P 7.064356561085166 3.983444299678252 10.251345527869132 0.3002917366120699 1.23988878849851 1.2135455226182905
P 6.4362505997112125 7.994203085206427 10.187536308313604 -0.8090971113909485 -2.1188196328531443 1.6295798389110192
P 2.6102235165546075 8.56409993268996 5.451636986729451 -1.293077199596031 -0.18657570044313676 2.5525781058985135
P 7.01825995871768 3.9872425215961727 1.5912405385433228 0.4225770025072529 0.5193651525725959 -0.30894272741884854
Ni 5.408413584769732 2.8651041978887233 0.3943835569199271 0.35658655454905686 0.8174138587867601 0.5515263106861727
Ni 1.3637615749500684 0.8247884328040147 6.8548128377349515 0.9165162588075764 0.9106821686243025 0.15254509322098891
Ni 7.219574807022755 0.6119026376322431 9.438349756321282 0.22389834815299506 1.7936223912486466 -1.2565096848846427
Ni 2.6948021041431263 1.9663158616034688 8.757215891912404 -0.4495807847896064 -0.1792388004620913 1.723012185130252
Ni 6.581282705050742 2.0933473027817553 2.575943200747082 -1.2182863797373857 -0.2992275570136137 0.3684095153259139
Ni 4.252054917179778 6.989091795185327 10.168704215191859 0.4256708109412282 0.7232896287068252 0.03614353980009259
Ni 8.299750956526962 7.395810486683188 0.15913186837789545 0.36331693129435494 -0.45471116403763623 0.49214925427943623
Ni 7.71555171359174 4.194554562403225 8.20089541612161 1.474492695994467 -0.29999374575567694 -0.568714392429685
Ni 3.205354005822982 8.476168369293516 12.247947211607597 0.15176836295596444 0.18496644697448789 0.1436950990295267
Ni 0.3903163700049485 4.905848853103876 10.221435893263807 -1.4045779732812003 0.8308856680209497 -0.7482774090004146
Ni 8.799371611873665 2.21180094135115 5.6617386307154565 0.3878030893611773 1.3020351801202674 0.676197560315029
Ni 3.6972691774701723 2.731266851886221 11.225913843410078 -0.23200323664831657 -0.1318374283599923 -0.49267144533149354
Ni 1.1556317351654721 3.43036685116618 12.333141874425865 -0.13879869016917387 0.5851380852033471 1.232985376510457
Ni 3.1889435063402933 8.865086303046867 7.981737102792086 0.8657886505457218 -1.3153516947235155 -0.23873232784203402
Ni 5.874331835586374 7.980727575387587 3.7078942035195124 -1.00679926076455 0.48900813754729333 -0.5314753055725686
Ni 3.0989401855340755 8.841869898739962 3.508791047115925 1.5315231065458978 0.13959290393569507 -1.9008780165042167
Ni 3.391203366797195 4.6550117333809435 9.103302058549726 0.28260228975210683 -0.7533771921208251 -0.2774274304193867
Ni 7.499498310380287 6.298396952063444 11.310656899459635 -0.5733079253376384 -0.28913494866430206 -0.21642363704250467
Ni 7.978846637739238 0.007376546777434407 2.2600192777325936 0.775972818033154 -0.8881739602194574 0.05774543434058443
Ni 4.694447817409109 0.4399513159486018 1.4776255439243882 0.4915771838260502 0.4226903881566656 0.3329455180913492
Ni 6.263640495517883 5.608765247612368 0.38533233956959156 -0.6439078470433878 1.2523383271157724 -1.0053555863394879
Ni 8.19501816746967 -0.19438082164104345 11.582852202479389 -0.9061153751892266 0.7380883842825547 -0.9922499021954654
Ni -0.0068985887083372775 5.084710576147752 5.710971946494582 0.25468987961255496 -0.898194320569937 0.7055143070012753
Ni 7.2230822559708825 6.123706003805036 2.687868986144626 0.03675777634532379 -0.7093758468392105 -0.8105474706842298
P 8.543164278864868 1.6508635359993633 3.609652921012848 2.5717539074960163 1.1337608490894797 -1.485077927709481
P 1.84677182439735 3.448821848092725 1.3884936333620184 0.40835211715712255 -0.7126110659470566 -0.3707006253529358
P 4.727614109276115 1.4131111999171122 7.930880910375302 -0.460183242895801 0.02262802181216103 1.4247207667776625
P 8.655302691996573 1.8005298355449681 12.655661800527 0.625243180754349 0.5095270834362515 -1.3005279994471215
P 6.563200260991744 7.726482959924893 1.3037578466367055 -1.1803916615741412 0.6684017184196941 0.12400276280692195
P 2.085060273142657 3.533191442609205 5.689946334781962 -0.8091073958035937 -0.045654307504005245 -0.9437285575563101
P 7.181647107775389 3.8101526963369716 6.0525229634686655 0.22823682762734884 -0.36439859439430794 -0.7806331996233008
P 2.5609920181065418 8.569461059320517 10.093151402318819 0.5254722939115982 0.28394209160945294 0.10555406918343112
