# total energy = -340869.13079869153 ev
CRYSTAL
PRIMVEC
9.29404628021100 0.00000000000000 0.00000000000000

0.00000000000000 9.29404628021100 0.00000000000000

0.00000000000000 0.00000000000000 13.60277618768031

PRIMCOORD
 96 1
Ni 3.276485872611888 5.672890628018051 7.4184779391722175 -1.6984000430085264 0.8832037606983757 0.8055423041601547
Ni 0.41057285570811347 5.829476718464885 2.790351491859745 -0.07051764640458823 -0.7654462074702172 0.522480558273126
Ni 8.466931856220828 3.5828176354993317 8.324980170926985 -0.45187292325789274 -0.8494197222693951 -0.5311500610226659
Ni 6.027170375272495 7.0009633603542545 8.54516913716702 2.325665396399227 1.1158500302473298 -0.5702961350945082
Ni 5.099782562887853 2.4746885065833757 3.7192440103248323 0.9943921453494488 -0.3407015078876842 0.23900255078428517
Ni 8.396510868132292 3.5004166218536987 1.5726985342607038 0.3392184955842545 0.18460263587716597 -0.026596519541605804
Ni 3.8607560872332214 8.352949673573631 12.779889761514989 0.45887635115891945 -0.29754656976676497 -0.1609888531129679
Ni 5.203346119740243 -0.03323179160741333 1.4510896572984147 1.011421847138226 -0.09590549035007354 -1.1488167149813375
Ni 7.270202584841098 1.2581443286964846 6.584817794542157 0.7660247056815066 -3.090329217177465 2.103147987754159
Ni 6.634805822050959 3.200144577091334 10.262641958553756 -0.6422610554685841 -0.32184503730281344 -0.49283933836792543
Ni 2.1385228553807414 9.065793723382612 9.825298532159325 -0.9057757324616208 -0.5999985472549473 -0.1690333206839992
Ni 9.078554448820855 3.6312303221765374 10.790143209555769 0.3014991266566098 -0.4793970968200904 0.5472328255171414
Ni 1.6918509948112468 7.22196648504177 13.042559024740148 -0.9135111534326654 0.9199257987097575 0.009766849578776727
Ni 8.225927944102068 7.990788575138102 7.117230948963042 0.49638951761302896 -0.4551734483860354 0.7912873369030372
Ni 0.04393388581144523 1.380593387435625 3.1726026005700767 0.829440708044307 1.7731240141849787 0.5414517000589901
Ni 4.386269341752175 3.8146762061532473 11.502153583420242 0.7535841659253086 0.6661687153241171 0.4020218040637205
Ni 3.1039697869712106 7.933806777860708 1.4113557509666064 -1.5846477542850192 0.4702663381634159 0.6288964612362201
Ni 5.047568611313167 6.808056137341761 1.448383231043778 0.3583091936671184 0.5027547977094246 0.12428712681656014
Ni 4.319407973359813 4.466300373615761 5.457950939074096 0.4178492580142803 -0.590200587327919 -1.7875599871046506
Ni 4.517203864675668 9.219247720258661 3.6915347409719006 0.763722282800575 -1.162547434303869 -0.7784781009535109
Ni 6.447038206589338 3.2335009089178826 6.361501381754438 -0.7885102883785324 2.134166804733176 0.26297577377043097
Ni 5.058674996527078 6.859405742619465 5.909154576572715 -0.41990279810919945 0.6334234025722962 -0.49958642728377195
Ni 0.5845982944523384 5.236107632609729 0.19359033540849538 -0.2766802678407171 0.2398844391686062 0.5838625609250332
Ni 4.206029903715883 8.16188267170955 10.40921185540642 0.1552429517681262 0.36606826878724696 -1.1688368668570064
P 1.4802906210671058 5.117292545936395 11.400989749297752 -1.756566881157246 -4.299984917823046 3.8831579304256927
P 3.071589329996094 5.686023115304457 1.7323683892380612 0.4072948795372018 0.08011968827072653 -0.41290245553196636
P 9.015354934632912 5.059799576117775 4.8839274103927925 -0.48525715514529333 -0.12366003475552251 0.16043632304360755
P 8.030799444046792 4.223809414104344 13.009314221468047 -0.16278451156080995 0.3946738483390816 0.6589030349006394
P 9.35492220674625 7.1932850584558885 1.2681382165797632 -0.45310602433404545 1.0635897873910327 -1.6554279103223746
P 5.092812028234771 6.4842608616367965 11.189779761095506 0.0960417588176217 -1.5621459736380776 1.7022476988893909
P 2.9851361122054683 0.6868904257840065 0.5163976540019636 0.054607145821918855 -0.3398579289404663 0.10611662655512046
P 1.9261353115244348 7.320567021221166 8.470774944326227 -0.4193104159408391 0.1412273542153245 -1.529350010153979
Ni 3.3638313188381073 5.621067026383937 12.972777467030454 0.7571770254828895 0.15535608030722275 -0.06953754187950605
Ni 1.7527920557715917 0.47398055653102905 12.184958346492921 1.1688816040520127 -0.676971462366576 0.481951487810828
Ni 1.6887003131480536 8.819297029957225 3.561248013068835 0.3975717387121669 -0.5306106435794282 0.19696398565599627
Ni 2.586644587158077 4.238977297509451 9.609517732033899 1.2017225618414338 0.764828114270244 -0.43541503481218563
Ni 1.9511920600907133 4.227053036229578 6.053317315458516 -0.49672530368589296 -1.567859736193403 1.1767226973629863
Ni 4.34959503543076 1.5854434598203988 12.459394801617103 0.07554029643016023 0.005108781981475073 0.7815662529605314
Ni 7.244653251826001 6.734317174758358 4.680103400708954 1.2297226465987854 0.389654026526987 0.43889425161003764
Ni 7.971503429264576 0.8522268607320095 1.33342610294977 -2.2684634932669385 0.6876549102223511 -1.4938253348848078
Ni 0.8161873377663347 0.04772213904424019 1.226746252405142 2.315943284015457 -0.550903075279877 0.033870684605515865
Ni 8.707833533831343 5.8745249604162035 11.746037720457654 -1.5248639493581675 -1.7585196340082423 0.4927254384978804
Ni 3.342492188753473 1.1353235081091797 8.19424454059226 0.058441174856028386 -0.8269937891657113 1.4068279456576418
Ni 7.395253976517389 2.2091018422547477 12.408112113472068 -0.17511475099138873 0.781481406556209 -0.18931366819959008
Ni 1.0470765394011616 9.212500242714478 7.350654636997729 0.07000959641991815 -1.3529975301007473 -0.3251967273838658
Ni 3.8058654503517517 8.120431225639223 7.585628571939262 -0.7513282800115964 -0.4038832827524915 0.08959780296449087
Ni 6.946946363815971 0.5942733965508162 4.306992986440363 -0.5482322133159333 -0.5196238055506213 0.15820331994803075
Ni 4.9432150605334275 1.4711452796022624 6.372029677294453 0.37230885038032013 -0.2437719471484705 -0.5514478920397535
Ni 3.8688883776618166 3.244198356098812 7.560436130298403 -0.34783066273329777 1.7860540919830854 0.19399513283565945
Ni 8.620525263789938 2.515833249128968 5.406233289566709 0.7993739705659135 1.1357645097830698 -1.0151774575259163
Ni 0.3025119098975547 5.741545747327807 9.155457104732136 0.2666683921306698 0.04222831254159178 -0.043729322567150494
Ni 1.0570304628857627 3.548327430035882 3.8639225687749614 -0.07048139385001409 0.25316007323158984 1.1369675289522356
Ni 8.540707994989047 8.599660130061713 2.9840412735626245 -0.19243653009928793 -2.7576827183837733 0.24358939882401923
Ni 0.35004352099461067 2.126765886932543 13.447283137172015 -0.40790474520705877 -0.00189027504417739 0.2742562317802567
Ni 7.332825868164386 5.754929173861725 1.9294449213777183 1.3989786248165519 1.6013594106127453 0.28972578817076555
Ni 3.3468232142845875 0.17071489948632107 5.557087741719469 -2.2404706075984384 0.33142908144682276 1.030667582741715
P 7.934485243233608 8.17153918571562 9.542606175792034 -1.2063078672192709 0.9258012836539282 -1.0449163793512455
P 3.14169432051369 7.574629068256699 4.759271015680177 -0.31323466992598314 -1.0905218358951865 -0.5945964024027695
P 3.236335593010136 2.5138536172874923 4.927197701305265 -0.02076294357896424 0.2052246830028917 0.09837812026028218
P 9.072987315144594 0.2222912794914054 5.167884686448464 0.8413423445778994 -0.07591516327107571 0.7001694977495941
P 6.800992662226638 0.281999020520465 12.970342426924976 -1.187966902818238 -1.5606711888647637 0.23054310716302231
P 1.318955273009972 3.63334007066487 8.122951770969777 -0.4995843704012428 -0.6164872889385898 -1.6021317700023958
P 1.2627634696599268 2.9424764401286065 1.9063064639479674 0.5913074472388526 -0.3153967105743084 -1.918533781912767
P 6.345816749380384 8.503661926819468 6.392474720134253 -1.2820633649840305 0.6545745827286146 0.14632867999763186
Ni 7.21721722743147 7.679679672501746 0.4444310660296838 0.6554207327789938 1.4218398456854415 1.6582386402982927
Ni 4.838350337212462 5.339280839521546 9.329178628165486 -0.8683201587183239 -1.8498537029375497 1.5482005672015788
Ni 0.5549409930150254 7.314209893617555 4.9878385645732175 -0.6781333438851612 1.5727808276441042 -0.6589840246502199
Ni 4.340793573675469 2.2246693696466306 1.3064863806225389 0.25514830730621224 0.0017174969117389775 -0.5904960070811507
Ni 7.490257716815794 5.338555903917626 6.795307494163584 -0.19672153062788703 0.5528573707927704 -0.03247843224367955
Ni 0.48608047528415893 5.999148825967105 6.706549352914339 0.7091796716680044 -0.5992033050471616 1.8636373869852032
Ni 2.161850911353056 5.609207823427494 4.382052632989371 1.7248425534707712 1.6093385721634799 -1.1999574995212108
Ni 5.536119444078379 4.502788799013094 1.835762794449537 -1.432993805419732 -2.060383600203439 -0.8359445706010957
Ni 5.5770225414226635 0.06843206220085703 8.407780828559394 1.0635069978692395 1.1399587503700754 -0.2262298244996491
Ni 5.29964173246102 5.934276383462422 3.6529979077911814 -1.8091163731191877 0.9506512528180723 0.2581528984604909
Ni 1.9222689883035253 1.8889591267079975 6.51948436734575 -1.1304184149798082 0.8908232249168464 0.04525450096242529
Ni 2.127862584384628 3.5708097278036224 13.476460865825196 1.8294242314386042 -0.27043248715879237 0.3194117452709725
Ni 6.182074243356385 5.918680973931926 13.265698850649986 -0.5837409477455043 -2.696556026275782 -2.0235785155599473
Ni 2.69618421571971 1.529353890978599 3.011845342186838 -0.4153876838476652 -0.3012762120125263 -0.2082732400212284
Ni 3.3566191389837186 3.7614120273574967 2.7617035238401986 -1.2473742982422773 2.109806887831573 0.7026506123002351
Ni 8.960678060814136 8.736728723479917 12.842000013487812 -0.5506531640526 0.7756951388917351 0.10740063547386663
Ni 2.211100062188631 2.703721687191242 11.173360899071328 -0.7162530335750181 -0.6520950108398704 0.7791874683157096
Ni 6.97037665429653 7.667058357756566 11.52721033198652 -0.3088051733997198 0.14465232073647347 -0.2314188248997563
Ni 0.18088072722437584 7.646657926338547 10.895823950133455 1.5713700633395067 1.9682208647252493 -1.4513967334069522
Ni 2.2940215424216945 6.503583183695139 10.429085314404668 3.1627078280501917 4.10068457072439 -1.3394239051813706
Ni 0.8496802920720835 1.6013269847832219 9.11384673047172 0.12742567244554184 1.4838885353870703 -0.12298409173442043
Ni 7.850727298842175 1.1154714254172022 9.346249932233194 -0.03393341952265124 -0.3115624244298828 0.08398637031498439
Ni 5.905483428322091 0.4721403353826154 10.770406373036721 0.20281093135507655 1.0931307342729433 0.7862245776681491
Ni 6.8391261338020986 4.2898807885693575 3.8822318397970568 1.4995925763858884 -0.8371722723606098 1.0266736310909739
P 7.25973748881527 2.2969770491146013 3.005927822968682 -0.5134778405538835 0.37783929328024607 0.15348277454390985
P 5.680511745905421 3.3737666542303004 13.579705636892784 -0.9369051068765737 0.14878562617855665 -1.5408700949784366
P 6.440588138523687 7.892978032886056 2.9909513969153796 -1.085536466865453 -0.000839208071843716 -0.958728373399252
P 0.008166678399550872 1.418987092304801 11.346728319344301 -0.08317390171601804 -0.036903043673936445 -1.3374559828217223
P 3.68535884726927 1.2071200150359243 10.425371413541507 0.011204096245935541 -0.3514906280833882 0.14122221200900192
P 5.542262808619294 2.3704464843580855 8.568986989374292 1.142143159615904 -0.9551087743687937 -0.5106241731551722
P 7.551998065749693 5.069753499602376 9.670852860553298 -0.7050443093433921 0.29982970937398684 -0.07197109102166316
P 5.300059964540205 5.172406239926763 7.2067911663997 1.8295203906968363 -0.7834938090005474 0.408013245760465
