# total energy = -381173.81499882723 ev
CRYSTAL
PRIMVEC
9.22061678896029 0.00000000000000 0.00000000000000

0.00000000000000 9.22061678896029 0.00000000000000

0.00000000000000 0.00000000000000 13.49530470486819

PRIMCOORD
 96 1
Ni 5.983746750117866 7.0877957099329265 3.948254161365068 -0.24585608337100884 -1.3883098322487961 0.5936044708031455
Ni 3.615772560711207 4.6192706974157565 1.4601648447235624 -1.5225478996304813 1.6428747562477124 -0.39653892657227835
Ni 6.957619045955467 1.823164841923152 0.8165067999384582 0.742703771567379 -0.7150623557010266 0.09453689213732105
Ni 9.28018169901923 2.747125940557893 0.2800670060668185 0.5380758416082216 -0.7595563243483434 0.492278580768449
Ni 2.2203890014463803 2.3000920106134832 6.835736326534441 -0.7410891187820915 -0.11778892068672618 -2.5260967717785334
Ni 1.7395615119696444 4.2937460519234625 12.75067422589924 0.8082697303936468 0.1540378757164315 0.8306632675974985
Ni 1.3138364267944591 2.0721030466308616 4.135973004774297 0.16528233828199923 0.3131472524184994 -0.3533675333911269
Ni 3.5018518436520267 7.162703998511541 8.254807649629704 -0.8467131219715095 -0.12015459270542532 -0.7407798150717887
Ni 6.122913515198741 8.427588172220837 0.406345193381176 -0.5457629258398343 -0.15568955238724155 -1.1527289055515502
Ni 5.234239715971971 5.522706703685161 7.761648507624036 -0.2106571668723727 -0.5391631611351295 -0.5553685672503984
Ni 7.662341545681577 6.05168425261014 6.156921915095897 0.47386459703763556 0.5355232503896971 -0.3772574526348471
Ni 4.723565090831896 0.6808042204827662 1.5729726333692224 -0.16048080312829782 0.4709199125870148 -0.48593978303461477
Ni 5.518935471529985 6.204045719925874 13.079001016750846 1.8812314459178827 -1.5100891050418381 -1.6907612955163462
Ni 0.7253130584687127 8.952084501518883 4.316756100439948 -0.3260984132625287 0.09645313532342743 1.0480675233857177
Ni 6.950436185689251 3.9070426158453593 7.160298339662432 -1.1774089247967334 2.68419210539379 1.6641784028214952
Ni 3.0985697390775737 3.7231835225098626 4.558430303456098 0.7870326753917414 -0.02844591404551875 2.0052018128249722
Ni 9.014535737183943 1.9127615726122702 7.960488336613603 0.21018434100101224 -1.2579590157366596 0.7155302964763807
Ni 5.839287351156622 7.8969785741724685 9.242947005403012 -0.05579345282053617 -0.6151233187115277 0.485412449776235
Ni 7.045030490530216 4.176238515039431 4.80376140298262 0.48118324218623587 0.05047229771793888 -0.9744149308965736
Ni 4.991267250150323 6.851480529236064 1.5976009000843234 -0.4046888093729224 -0.28817181342008436 1.8694074566997612
Ni 1.6524543477399336 9.33651966593397 7.8026876276148895 -0.7814677797094541 -0.8614429719825164 -1.8809709931676446
Ni 3.056708140093464 2.101424607152771 0.21016366813326465 0.44796124690831246 0.004214552301979838 -1.0304539240690123
Ni -0.08864424100298192 4.410451395170572 8.247007008056894 1.0979296983234832 0.04220851504724989 0.10468272232207133
Ni 2.441757562770282 6.9746956277436984 10.60428620436627 -0.5909634336358726 0.2652506858475367 -0.9714501918412948
P 4.434683175375471 8.569779299519066 3.7694811600999762 -0.791028941035328 1.4790466339137367 0.2022442602183291
Ni 0.847315645904451 0.4443830026959664 -0.00787071825833398 0.8768762758184512 -0.556297763932887 -1.1754556577251047
P 1.7077503849883273 2.531520264556694 1.7696797337585644 -1.3362920444206083 -0.10388490901112431 1.1567663088457174
Ni 5.390602930855789 1.2756169713342969 9.109343960328088 0.24649397406532386 -0.3588385838080272 0.09328116535334903
P 6.555037708236254 2.9514548025596277 2.6675630847618383 -0.3708212100912001 0.28691454397421556 1.6851094965472073
P 0.3337992267540437 2.8940472441289957 9.872219966361001 0.2976604696368099 -0.07174611949505064 0.792312692843758
P 7.939282762749363 9.275940215421723 13.67600643020996 2.73225090857423 -0.10514012157446408 -0.8776396363470369
Ni 1.397393653665385 2.105251163007045 11.76280411212821 0.0032545023815556853 0.25531080102600545 -0.6593218676056128
Ni 4.536534105414783 5.814493113344226 10.06506823873826 0.35565247277056167 0.05091709856484134 -0.4028700109966287
Ni 2.614459710121026 4.469380355326397 10.278766169182232 -0.9628886754245288 -0.4440850517823578 0.48685226754655514
Ni 2.944419472157673 4.483063750236622 7.6838615425690255 -0.6022140668490273 1.593372792862843 1.6775579094521949
Ni 2.743317825936651 8.332486733471473 5.658567877744933 0.11752949637775244 -0.1652334873219348 -0.07938358143565037
Ni 5.854031116966223 2.685144956335164 11.966785356887279 -1.1805086467679797 -0.49118457637332175 -0.11395900541767472
Ni 0.9081219235829997 0.7239557837175099 9.842760096591345 -0.45741699300457356 0.020718720604590124 0.9455288439898424
Ni 8.912168452619717 4.031235099703724 11.746880107404518 0.5753954039942866 -0.0726838008179716 -1.6960328283279307
Ni 7.979208032265044 8.048095258258499 4.650440991549189 -1.518988207303681 -1.5594154620807918 -3.4224995476656863
Ni 3.127301180142439 8.477656119904475 0.7514581166007489 -0.6017430407498798 -1.494679198244671 -0.9882040142608658
Ni 5.872951822057719 0.22699129327555553 5.416812533303441 -0.31926262128761795 0.5798385273673046 -2.053550122221373
Ni 5.344038817448355 2.653020328392292 5.0349222590468585 -0.5466736105795617 0.06567600204157077 -0.7687156222501084
Ni 8.10149184850453 1.7285705370821862 11.871346443573417 0.7266225497348002 -0.3193400114927726 0.041434612995702835
Ni 6.672231744158729 1.855805824390938 6.773415101562261 0.6686264328359904 -2.260428538777604 0.9515297987682837
Ni -0.07242702067407165 4.950124859254487 0.9285999908041032 0.6959816849204917 1.295394534875298 -0.05446264982425458
Ni 7.783998359997954 1.3181147928580332 4.159401669280625 -0.031898391370493454 0.6796955461659584 0.6544198023183052
Ni 8.118448562278049 6.877556432744228 12.743373341741615 -1.302316458806112 -0.528684887311625 0.9259416658865344
Ni 9.031077523214227 8.562163070276583 11.391332212473422 -0.38505252319923366 0.3343583392784758 -0.2091335311389947
Ni 7.331192324114325 2.9096485272746153 9.442044089593386 -0.3108707976794969 0.04820509895031698 0.35158447334877513
Ni 8.433434043092186 8.574822976753495 6.566545037648627 1.2485865733828239 1.0301065680319228 2.5353843677280463
Ni 4.5284845071960325 2.9697577263445303 7.52608849541986 1.1421909821347038 -0.9238770700480219 -1.5643972315660994
Ni 1.6915036586865648 4.448975130975773 2.9811940570097266 -0.8270863488795176 -0.6036446286479669 -0.7484116205854335
Ni 1.007638193520379 6.607632104845366 3.208765327064159 0.08193385866132986 1.1107093665866548 0.19137800692778653
Ni 3.825108217481306 1.9473573257815169 10.910359959317379 -0.7277229818878306 -0.9770978770453752 1.6984913171707523
Ni 9.17484537593675 0.790555374753265 2.0322579964788714 -0.3135450020775503 0.3698539610819243 1.3335818445782968
P 7.509030354864662 6.708302795970589 10.657174738642249 -2.185700968056726 1.1165061757740902 -0.8332091739478037
Ni 7.456334531473872 5.9720734496082 8.558195438989609 -0.23126095916565334 0.23131572366298872 0.9481102315637736
P 6.632712181769766 8.995698017641095 7.581324598660898 -0.8005337952019697 0.6645903150934037 0.5299375287718034
Ni 6.279000111587069 0.39752659574496385 11.324827593787784 -1.415462481404188 -0.976793715541395 0.7318352042839912
P 4.523874198937871 0.6434487367901838 12.66365650164974 0.15688408691597497 -0.8180643478865653 0.4464954609960633
P 7.191223365396531 6.083541482674039 1.095870272965081 -1.2653553082007303 0.20624901050234803 -1.6109095161950255
P 1.4722927216274833 5.944245628961935 8.857575948411519 0.5268231515125379 0.5181089115679915 -0.8887763696901467
Ni 5.286870995047147 3.29281124661045 0.9476958876094097 -0.2967497848970825 -0.009771220454150914 -0.5233511338035374
Ni 4.516940295317595 7.589185174241065 11.376838325371411 1.1812110721516431 2.4623416409087597 0.8170456768140637
Ni 3.306503862137191 6.05579664757642 12.639513239363398 -0.0016601613112423022 -0.3313432066012358 0.44601415048427057
Ni 8.775703328178125 3.183842000620536 6.120106759531172 0.2192042851114354 0.5032767316511655 -2.090552410477335
Ni 7.781305939975186 5.354587202743029 2.897927279559065 -0.09688868019894926 0.23522277202687875 1.173954647699546
Ni 0.9537252487494339 6.697201173684935 6.753805616416995 0.12697984315737484 0.9352986816214021 0.6479894733119292
Ni 8.707876473084047 3.0765509068365926 2.7472393541410436 0.36959916475864085 0.7598530296531558 -0.24734989430771592
Ni 7.2224535935373195 4.014914608469831 13.13529011439805 -0.3503050924157193 1.3086544852089979 1.8977628679140028
Ni 6.548905998252899 4.683713586248343 10.91029264881681 0.5737527261845409 1.3023992483279054 -0.146490916607109
Ni 2.638949667588382 9.072192252260516 11.86005118834092 -0.5316447412708973 0.553066401479783 0.3949049905132812
Ni 3.0770949232110554 9.107940582494303 9.575876728019567 1.3738046966540858 0.15853859180026245 0.36773254386354737
Ni 3.4920226664456253 1.2714953557515003 4.85508427657413 0.16480591286621296 -0.8040662338352604 0.20929319664531051
Ni 3.2965455962995613 6.055916515591132 5.707339406746376 -0.13944917926897918 -0.3589568545534463 0.5587120298013345
Ni 4.800096207917383 3.5630398548543516 9.701692962446456 0.7205267212497075 0.20839228209759594 -0.453428954891103
Ni 7.712178977952307 0.37834033689779734 9.58958778477934 -0.2892776448897534 1.1464096482017418 -1.0158102060139085
Ni 0.23106957196072553 6.0844819855587025 10.717822421716718 1.1212945983016689 -0.39373642412647675 -0.5841299556538069
Ni 1.381045500581943 4.55409937987838 6.0868009706125585 0.3005496182591469 -0.31199951196730136 -0.879299540547963
Ni 5.517497055353438 7.523838664989878 6.369661823483823 -0.7262412551359815 -1.720300956846676 1.46432141188842
Ni 6.4324219498021815 9.061570102033711 2.8653637502700158 0.7030676452329956 0.28932289630539204 -0.148210470401377
Ni 3.9185130627916656 0.4359018796242518 7.422511465968693 0.9584555793538396 0.08300652290021833 -0.8955183163996706
Ni 4.935768359338571 4.883238507045073 3.533880577183129 1.2895635300158177 -1.1594937350792096 -1.1922331342937595
Ni 9.017523216935233 7.968917824232826 8.747251271793704 0.8713000672822542 -1.3395313772935122 0.6173828041696658
Ni 1.2045721210760223 7.183671680469661 12.721726100346242 0.7161265352994828 0.05810281768000316 1.0455887228279217
Ni 2.543405639246235 2.330787442996325 8.994863551846366 -0.1522962104349764 -0.040962558455290746 0.9739804144623162
Ni 3.7075730187477265 2.3810951267093876 2.6818541183004885 -0.5575606898057107 0.5704365173271144 0.27171958140133207
P 2.1047993527977455 6.280835014273818 1.0346416910500849 -0.23117302743753734 -0.2396944346449872 0.9228411725843396
Ni 8.531403093578126 7.6564587923441625 1.9550104374900656 -0.7180211812190344 0.2691410220408784 -0.5014635897018267
P 0.21032410686064867 1.2418141911854539 5.85584204605003 0.9135597472824136 -1.2856320561718955 0.06810260920519239
Ni 3.4986983928034436 6.6689953077615 3.427348340138479 -1.4294220289080737 0.5143828688666561 -0.4383862016253676
P 9.215821795735291 5.059435268055505 4.596190572213747 -0.35187372245441983 0.15062216516666316 -0.21025504633794756
P 5.0333409233143085 4.828984399463025 5.635814162367601 0.6693597114575891 -0.5891531199000112 1.3540935913784033
P 4.028266061185468 4.0219776007213355 12.16137448166282 -0.06137326090115881 -0.18430490213108905 -0.08587381714568436
Ni 2.373285264520061 -0.15719491449359105 2.9315714651038274 1.6684659744532557 0.25237100167139115 -0.8193655831964921
