# total energy = -340862.79126245447 ev
CRYSTAL
PRIMVEC
9.31280930686744 0.00000000000000 0.00000000000000
0.00000000000000 9.31280930686744 0.00000000000000
0.00000000000000 0.00000000000000 13.63023777379168
PRIMCOORD
 96 1
Ni 7.493542642467294 0.8010934385435416 9.57481954067864 -1.1086622542496392 -0.5469050098640774 -1.1430412459501411
Ni 4.089031030031691 1.698470149261585 3.429817308984505 -0.5041750750957188 -0.4247413571484233 -1.7936524731556336
Ni 6.178108337262782 1.5629128979585276 7.597481043837394 -1.2117298095657905 0.12007771672090287 0.24683953033020067
Ni 5.836793878602639 2.4114774503240124 4.792759979247921 0.8923915978452308 0.8458546306259561 0.30900803343914524
Ni 8.456449866686238 6.500005588656722 0.693164498413937 -1.5420232347462732 1.2089057098534342 -2.116824971020619
Ni 4.377914372668462 7.159417672540728 4.646574950039736 3.4184161216249325 0.9169464043664596 -0.6797598237449906
Ni 1.362780627382634 4.170201475370895 5.977009397087737 2.534525619272177 -0.532121938017632 1.650063303576352
Ni 6.984364797249195 4.4684162528665325 3.2083670867764438 1.8049085056854268 -1.23168748363464 0.169788710792785
Ni 3.8779282701706226 5.68479020618106 2.9569165808814035 -0.6136719309769818 -0.735287681608966 -0.05783593717186169
Ni 6.715606435380897 1.9153934148978946 13.101397868951679 -1.1411879947914862 0.1026914029236554 -0.5199601058441174
Ni 2.840853833161246 8.771064501254196 3.6676515564891763 -0.08397197213728118 -0.4314059136527925 -1.106590716432591
Ni 3.2698670164381043 3.859693789677947 1.2573121314543394 0.9251644214008777 -0.5011936238698916 1.1580534030882574
Ni 4.70049145913695 3.8357784955486363 6.633891190701131 0.5813505931364568 -3.6118792932165213 2.7035278296079244
Ni 2.6568885994266624 3.4919868296305494 10.468200124951633 0.5453682615045768 1.0470735349035645 -0.7291070067195508
Ni 5.853165797247238 0.12071356465480641 3.2986398718672008 -1.2348273148152025 0.6030741008564776 -0.5673974733904745
Ni 7.706331020800873 8.327923786359673 2.4659964981790794 -0.18392720707669613 0.5166004453432651 0.3066163932785171
Ni 7.770580091750296 0.6285866852983288 4.641232191378526 -1.2155391560095516 -1.8618047046518384 0.9502632733510343
Ni 0.26504441354323155 0.13944441787999462 1.552306539514652 0.019756356691320816 -0.1872830109228065 1.3222317096728002
Ni 7.548739662835062 8.625551856873166 6.953656740059946 -0.6241028965023186 0.7786210542892784 0.3064029917161304
Ni 4.057907621550322 7.4773383543890235 7.136820140918932 0.2853981073296891 -0.03886556671694597 -1.0754636560104833
Ni 1.1039590329738285 0.7660465435291973 13.212893615020352 -0.31717642818255054 1.1694665300212053 -2.325889853705207
Ni 4.897950953460852 3.2022094573067004 11.904009008554603 -0.3374714309861607 -0.24703441994982617 0.47347070403332653
Ni 2.144143948269494 6.327197100392121 10.164408837282853 0.7125079647102891 -0.7826792835190521 0.622959784036811
Ni 2.0592576920433765 4.026262695751489 3.347967959851677 -0.964752725216461 0.024385885043532198 0.35906304111400744
P 2.6334389457593708 0.8499409855712138 1.892435477558495 -0.7283914687097649 -0.5428025576599297 -1.060022895975381
P 6.463089612827832 7.9446085580253865 4.734012915997719 -0.3369273855572326 2.224012976263047 -1.396159667310518
P 5.865477331063027 7.40847944286561 8.410537717131136 1.0055337637885648 -1.5426865793618851 -0.4396784380742299
P 5.226171602329015 1.8092087639390142 9.740249490182084 -0.17561045968088465 0.9896564304366762 -1.876744870901439
P 3.73839444932192 5.436501399023131 6.044942615372657 -1.744344885169757 2.7054944664159923 -0.306584254489001
P 9.274878168349835 6.117556451581793 9.814493068008288 -0.7056297495332171 0.046268286938920315 -0.08866166430346666
P 8.65703846491491 1.1287962952179376 7.669121691480911 0.6420427688101911 -0.22255391830995866 0.2803158077107753
P 8.291799399316215 6.3750649398877055 2.7802414142201943 -0.17027182107679062 -2.1229591089428146 2.554669955430536
Ni 0.43807920307237413 8.166812186500994 4.424633942784706 -0.5376228132312031 0.30299293759331686 -0.07016386260959528
Ni 3.3927867856019587 0.22870769444909372 12.476601497014187 -0.37592022188066226 3.7526273938025825 -1.5545421931488905
Ni 5.4581350548885466 3.98500695081658 9.688891209783202 0.5151868528251902 -0.5264236020812739 0.3426529751871002
Ni 7.051929228288195 7.2071365070884665 12.311198554657539 -0.7813183986157834 -0.8809833560082891 -0.3476180325018594
Ni 7.522151592453761 7.752131416645091 9.825097563890315 -0.9361196348608006 -1.4553960843743323 0.31947910817379815
Ni 0.34669819368201127 4.850464939144125 1.6156876566428706 1.3835018693371914 -1.7721184557385998 1.1322765512344695
Ni 0.9935463666198129 2.4526773184034796 1.316203543247768 1.0651393912663398 0.6025987038819557 -0.24130651632711345
Ni 7.637127535335565 2.8285795505824174 8.677977385210994 0.9977960288246752 2.6353028358922552 0.6528894817167079
Ni 5.7769683920423995 5.083890502754398 5.117363533007117 -0.7216328098296927 -0.9008998924265582 -1.4704702050986351
Ni 6.10298190512059 6.172697595094119 2.0176564418856486 1.494387378035865 -0.5433139500787094 -0.9178534895617612
Ni 7.982399937922873 2.618296317934503 6.136414890293575 -0.500978165424976 -0.4641517406252458 0.4829475331755101
Ni 2.373602255143363 7.034998541089173 5.289322693068995 -2.4974487690245373 -1.9257215579104574 0.05052886198748717
Ni 1.4961214300864796 2.084951732737601 7.68686818076939 -1.3147125184776196 0.05046741262193243 0.22228678069150104
Ni 1.3444343931790737 8.353748206383262 11.136477071951564 -0.563873519397616 1.199409597437541 0.09863214525261722
Ni 5.404875098842781 0.43780633776163086 11.196763542569201 1.34707267997588 -1.4423065981802257 1.3789515309623477
Ni 9.507912593972012 4.249043718400002 8.088428133686516 -0.18142243837697145 0.8043971348121178 -1.1787145309820346
Ni 7.3016242696414215 5.235940739222179 11.032696057057626 -0.2934168638691076 -0.14743836812204286 1.0440519744684214
Ni 9.132587755965977 3.928729644576928 10.255050409619528 -0.04100163922334229 0.002921544522169162 1.1078248459500082
Ni 2.3505064882272055 8.332626755026068 0.299610767600772 -1.0670605195484526 -1.332882761628743 3.349088381763387
Ni 4.616070843372852 5.487749788272975 13.092715536896867 2.724275346567921 0.490465181708794 2.5515386088904055
Ni 4.523780903800627 7.605640927293821 1.8472376204721301 -1.5254601881812697 2.398607593084908 -1.412673091584509
Ni 0.47918035537389336 6.284786567111404 12.079620652400559 -0.24251184948912427 -0.08549406520876243 -0.25528766109755385
Ni 2.737593404303847 1.0272959873069716 10.009705381462485 1.2569603992688159 0.30634437056405306 0.1966927342724806
Ni 1.4580692915302629 1.551169445506401 3.5220532342631348 0.2618542585714781 0.6911549529558098 -0.7351316156470759
P 2.4798148445299644 8.410053451050635 9.189846632299567 -0.2717499204186352 -0.8898192091323643 -0.6034104011499737
P 2.994496560009133 0.3523734196331025 5.559583211067768 0.492786630753119 1.3139000498786535 0.6143830981113936
P 2.305050666324882 4.035892140506048 8.32404034490643 0.8130278139039223 0.1881042212725212 -0.17467020725480242
P 4.8788224432811 3.834046313029924 3.298503904852291 -0.284826036876303 -0.9713915706892174 -0.5826042630378999
P 6.844560904932521 4.188249699678763 7.073902801690885 -0.6294883291839481 0.45609107510429836 -0.7348264257018312
P 8.176897958908333 2.1690650257967667 11.644516891880489 0.6196011519772232 0.40891416030817956 -1.0572072809034567
P 0.06769946677298548 7.426192406040824 6.577366163735684 -1.1776547222589524 -1.9769075938659697 -2.8782990812169653
P 2.8983418046021483 2.400050633386059 12.44240299892164 0.9440576587609547 -0.8949225917972008 0.6447352280406897
Ni 0.509021390022862 1.1075537773406174 5.4267974517946485 0.8172765618779474 -0.08945202141524594 2.897011312914488
Ni 9.591262236673465 5.621369975254031 4.832519155737901 -1.672046235605346 1.79375763127493 -1.4324484744392232
Ni 0.013168312265905698 8.067193066056587 8.545259609445331 1.4668462351928029 0.6206774157605375 1.5119683243424218
Ni 0.8768959806365869 7.085446028744343 2.1232636986716247 2.206027852539536 0.9584018432977687 0.677611152833104
Ni 7.234823488960133 8.996713869148747 -0.022291140197787752 -0.33478308552072017 0.11124366336904068 2.2158679785584097
Ni 0.49385827401766563 1.4946406934172585 10.3916115817587 -0.242465312521905 -0.3987400479886552 -1.0169157803732616
Ni 3.633057264003915 1.3912126339935322 7.518002735937169 0.5003880972494609 0.16292078002835814 -1.3112191606123804
Ni 7.375540036582365 5.379981959743229 8.73521018567871 -0.4190594762722976 1.1770132320202116 -0.35424350823817696
Ni 5.838311866508822 3.648162640591821 0.9411729900137306 -1.3013093576978363 0.6395264301462406 0.2275071485501759
Ni 3.3983279070999877 7.306476243255663 12.149870897624487 -5.580954792632582 -4.620437702764023 -3.774028742296494
Ni 1.9086602538170954 6.3247478315619 7.871693918077786 -0.788475578485855 -1.5586618717442189 -0.887661025138781
Ni 4.403394218750158 1.4312018368717496 0.8398421752309393 0.7483833384506595 0.17119741821485354 -0.2823660053715847
Ni 1.8265026506984108 8.420148536267215 6.987023604287324 1.0960887884600026 3.772642403471928 0.5445336814184235
Ni 8.291631768749887 2.1346635084627814 3.126994553476724 0.3657713063721184 0.34394289764311736 -0.44127175070327873
Ni 5.231777913491727 7.007563005066996 10.509021892975941 0.6103328393014198 0.4799344573807992 -0.015299349361231715
Ni 8.060310900027943 3.1441813429298557 1.0882054848627916 0.2735468644180579 0.19892445181647678 -0.9799726274900091
Ni 5.5368841698252504 0.30496935803769004 5.881638780218793 -2.0188145185124005 -1.0582264661965903 -1.1136967313497528
Ni 4.602585895592773 9.048772472802504 8.736355661215278 0.31858410716335456 1.0178367495256342 1.4622992392520686
Ni 2.503646323376112 4.660772327726704 12.928444100862928 -1.4598289233347053 0.4844338879130496 -1.473518762116972
Ni 7.153429536199161 6.5443345606409595 5.9061724448816655 2.611809637866321 -1.4761716263587865 2.530591574325093
Ni 3.1735166920370714 2.820347027213916 5.106555086602725 -0.4914969654074181 -0.4078733777484911 1.4949954439335091
Ni 0.9450638817143637 3.0600307986337287 12.076717849760332 -1.1070779404816546 -0.5015409799069814 1.2698899628462903
Ni 8.122632219464604 9.280121279952171 11.462525973704867 1.1077993920287115 -0.4225325224225627 2.08361660258945
Ni 4.3103778800571835 5.543412449102761 8.52080696622285 -0.9131434856806016 0.09765949692670277 0.028671142682447394
P 4.8121427291199375 8.123610064434844 12.945985708348118 7.452429673384333 2.352284541648652 3.7689058192476317
P 9.167585293091348 4.51394657724278 13.140557300526577 0.3121964584694559 -0.14242394562658695 0.9622209599335428
P -0.039356863130794964 8.141658288742713 13.218754165875326 0.6755442430017462 1.2797277748723186 -0.6445092280728126
P 6.997104720290042 5.181870568772498 13.412045246783231 -1.8516334205457916 -0.5717264397831314 -0.5166305272502522
P 4.044972129515425 5.371209293438785 11.139147985641706 -1.0829864467500896 -1.922819553772314 -2.0180511579838147
P 0.03206493349557278 3.236443344074359 4.703958618017146 0.8044256740572081 0.33630337881998856 -2.204989898193325
P 2.8642941740192973 6.174960607739533 1.0122902577779376 -0.48362219064503154 -0.1434125347921014 0.3201748486892422
P 6.7981644892969175 1.2052172078445447 1.5677909474386418 -0.014150580468769179 0.1862237164203567 0.3668776520624198
