# total energy = -340875.1623808402 ev
CRYSTAL
PRIMVEC
9.18429449827503 0.00000000000000 0.00000000000000
0.00000000000000 9.18429449827503 0.00000000000000
0.00000000000000 0.00000000000000 13.44214336093965
PRIMCOORD
 96 1
Ni 0.7703409521158961 6.541265654840544 6.614072311218696 -1.1767579214762958 -0.3078651780839537 1.0530426080028057
Ni 7.511117950940932 5.3097987349802755 1.5850172482119949 -0.373842256305711 -0.26892582070627874 -1.6898025311475025
Ni 4.108153218783281 5.195050161722212 12.972179258114926 0.8295818616078615 0.0066527294298272515 0.18516956412422947
Ni 5.107128912178476 8.18476757086509 10.269286442216165 -0.9039211957513851 -1.0393080320255326 0.7449123491829235
Ni 0.9138060584303057 6.664647464761211 9.151841617933098 0.33368959534622533 -0.7307149746366189 -0.8382277102083177
Ni 7.9538193058461 0.2743008895067473 10.114231674896926 0.9648100608169576 1.0963641536085762 0.6404386575478648
Ni 7.667067268527126 1.1473663367544498 7.761358744612545 -1.203456770923721 -0.8010019930876399 0.7544462568152878
Ni 5.654136297697685 1.7529511514588625 3.9753529150354847 -0.023470058097482163 0.0160501114843272 -0.676501464708693
Ni 7.003759164009449 2.7293242965278135 1.6978903885695222 0.4381728000629808 -0.35824208787460887 0.4286093247442619
Ni 1.419552083278859 2.1109273912443225 9.590793943896058 -0.4041527343637943 -1.648873911253941 -0.3420585361362109
Ni 3.9263317440922387 1.6834535963248969 9.574677344219953 -1.4303779650634398 -0.3870289301993141 0.9102808194208258
Ni 3.075792615527908 4.812652883334767 2.208799823685859 -0.3765779100693192 1.2046631325269963 -0.5184999763588232
Ni 3.1117491277982237 2.098693911207526 2.6300760567968533 0.11432435917689343 -1.8412232809560614 -1.882815502575551
Ni 0.2002718035543466 4.27890761881641 5.717185559788231 -3.665252052410707 -0.6101454058809621 0.6533700208975521
Ni 0.36534939126709726 4.349185838967739 9.066536973841675 0.4558689317911633 -0.46526785650756003 -0.3033076406202583
Ni 1.719437661478178 8.402867008127714 0.22610079447588108 0.7296842193792594 -0.7835146349361538 -0.04674908323008078
Ni 7.576491757924355 7.060215021206289 10.489428466535983 -0.520611109164555 -1.320885480057551 -0.912722338982783
Ni 0.05195922669682795 3.6259961354711456 0.47827580053169194 -0.8156997043091305 0.486334190259556 0.46886148739608935
Ni 5.035252624815133 6.271109637361278 1.771311474237812 0.6757522452474943 0.2995707992856454 0.3621797323661182
Ni 7.026150473566288 6.676118648369289 3.3540969389295805 0.5692031591406455 -0.4286643463519133 1.7877407356568886
Ni 2.8062978672398216 0.5963169433041635 7.709834853466577 -0.14105046231782806 -0.31407953442478165 -0.47026916637689337
Ni 6.840848151327239 8.756939922826358 12.027908895418813 -0.6657226289256342 -0.6426099541675707 -0.20302304736588261
Ni 2.2728097629624777 0.6592504832862532 11.68666643988789 0.3180804280540587 -0.06079810512397917 -1.841172630223784
Ni 0.8242729652330724 1.6549363624553364 4.61529250108047 0.21864095640879766 -1.7807488777200882 0.3375151397399026
P 4.604766381358117 0.5618960450444733 11.677283764808617 -0.3310914956017459 0.4266146629117362 0.4123902917822382
P 1.9638868391503899 3.1381172367964547 5.757457771960416 1.7605870580602323 -0.6928089436194649 0.38294447571729534
P 0.10846284222414171 0.19568700382884435 12.622925342646994 -1.7743434884143765 -1.2587190338311356 -0.8874923607714006
P 2.8117533380670414 3.432106498041101 0.5587329740800042 -1.1071651008788221 -0.20601632566625167 0.8470396520729928
P 5.212096211983695 1.2460515792434759 1.5944265577448014 0.5073264762405069 0.2394697202286908 1.4281835285152824
P 9.013714423478588 2.205149066692896 2.4942706519469247 0.1543158119681665 0.2698478182999159 -0.7894004042929695
P 5.183707558234641 2.0306474745764236 7.780271961909675 0.3316797640050481 -1.016049061497592 0.3955948174914542
P 2.5476956920175313 3.806540993251441 10.229215366089628 0.2935582745429783 -0.29207037714354217 -1.4227425600053691
Ni 7.747990085797559 1.0334443499853592 5.272371817189021 -0.5867203420888024 0.21708980987159388 1.3937266323889932
Ni 0.9307088337003665 3.1568072757415613 11.615947373609108 0.14294922200243768 0.7767050682134881 0.24348809735946453
Ni 3.393054878584299 3.043610848223902 12.030610914808321 0.48842398290904915 -1.0281121633097132 -0.8501121203507295
Ni 4.9096757685515255 3.7409835003815792 1.3390985834482756 0.5894891630831913 -0.6184894069702832 0.2736923888569867
Ni 2.866004964626621 3.233248157382898 7.8393233006818885 -0.6048738730693777 0.3310421304210492 -0.8599977548955576
Ni 5.647082759658451 2.1059495037218423 12.995930761660842 -0.04179559587954738 -0.8874131707940329 -0.1367819168494612
Ni 2.817796603730865 7.87607425441105 6.090769589344362 -0.12339135447516815 0.02864183210640874 0.05943644888976214
Ni 3.050893993621184 5.839218196873009 10.421034863579514 0.77410156915237 0.10028999257101437 -0.3318530563581188
Ni 6.137459786388704 6.4917347555624305 8.336803460640715 0.36806730149514677 0.2312679011441888 -0.5909336088392015
Ni 7.436504743869657 3.4164013547506187 7.308640998319892 -0.18688140460901362 0.3112271525776511 -0.6219894497037417
Ni 0.584835656972332 2.254082986840084 7.384857783179773 0.16617631085117834 -0.31940120374801123 -1.0985367357798628
Ni 1.0863091481023284 0.5415574252685823 2.018189897758172 -0.16787863825426572 0.4486032513676855 1.9057073195720602
Ni 5.189126291884573 6.880239589673952 5.974427541021445 -1.1787482124334474 0.5388978232888848 0.1731676545673469
Ni 5.492033502915804 8.904274372338593 7.1396463090788425 -0.5867164854340604 1.2634920297397465 -0.6995040962514534
Ni 7.383024598033118 0.6012112537483145 0.4856471151544646 0.6278227685560672 -0.919684629233229 2.1942452580823115
Ni 7.8955908798451295 1.783617510199752 12.00691176174004 0.79659949314457 0.4901337665113043 -0.4708391799477504
Ni 1.3500269752619278 3.5199726418189057 3.368977332589955 0.30877946236810694 -0.14470451413064758 0.1394846604926049
Ni 3.7183901363496568 3.5910682641648854 4.0299002758722295 -0.36071446067450136 -0.3084794146291849 2.8096310864266063
Ni 3.3225470510749218 8.868216832830736 2.028298132088876 0.9575184122515509 -0.9561670404299791 -0.00466989467184357
Ni 5.666002405961605 3.928333920254417 11.358987350211578 -1.2771659276824132 0.534807198159279 -0.42473518650083625
Ni 7.184019308665764 4.495555937576172 9.440981571775769 -0.45760622619724417 0.43227597496257164 0.18273987163681432
Ni 1.9079361181412557 5.470037118014806 12.72442648977512 -1.16908369276049 -0.29323482976528853 0.4035456969074147
Ni 4.218511699355467 7.875091534918605 4.086505837066516 0.3769581762268734 0.8391432800440517 0.36464979117316554
Ni 8.217472842945446 3.9652823363114997 3.472697405226257 -0.7446657803897563 0.9655801062137628 0.8225231549888673
P 6.215269127884007 8.58728763811186 4.833969630455942 0.07070739381789112 0.3362936086279757 0.04429650792453017
P 8.071304798812095 5.638780157591436 7.672143427998851 0.7723907571088505 -0.3811141073767759 -0.17839187908076376
P 9.003538225369901 6.189580656665598 4.278795570425682 0.35774535074384844 -1.108024106445008 -0.5920492105008835
P 6.88319693244561 3.2226862189126906 5.185898012430419 0.02551331377975606 -0.326846861392779 -0.3281869203604413
P 3.962600522369499 5.7404319271464415 4.428634576999504 1.0581434195644808 0.7577426681783724 -0.3781565674103487
P 2.408682213160956 9.179637884698387 3.9539388143944962 -0.5439032469232762 -0.027349595657546445 -0.2805523492016136
P 0.148960069607214 0.03256291551836594 6.5613792594055464 -0.010376458138317614 1.1323801666918691 -0.9467668301620018
P 3.186628679404834 6.790600877092016 0.8322081955272109 -0.6516970040705035 0.5171450049928256 -0.34287306161770625
Ni 7.9509078845460515 4.078074654878995 11.658007767885772 1.574485983260669 1.7973350642135433 -0.1581863506671663
Ni 5.7047325751171405 4.61248118858853 3.7572938886678764 1.1079176627741307 -0.16248086427746208 -0.7456127176840578
Ni 5.007424213019717 8.416634265316272 0.19256526218882386 0.36889031161707436 -0.35596383336339343 0.11864561226006665
Ni 6.662599367127423 5.329572520655368 5.947301727741656 1.7763574335206116 -1.0004990295781349 0.13674257897109354
Ni 1.2291065562195342 1.6926195220581726 0.003788521407791835 0.3965574385150396 1.6045892304039526 1.3421485032013853
Ni 3.8618120764807533 7.3882963829739 8.243730740411813 -0.22808590387178138 0.5386060030800789 0.7618656892078105
Ni 0.6868033662520121 8.072654890077418 4.828095355807643 2.1324289961064626 2.0389544837953855 -1.9330895682397544
Ni 0.80613765766501 5.275128023915029 2.0896345232883844 -1.4807834140991851 1.3379254662589732 -0.44189421477862606
Ni 4.79371486844297 3.8816685208047437 8.98487665773719 0.2312578738418598 1.1434305109687597 0.4231269614734519
Ni 4.825253735144441 3.387424906164962 6.2257015678042755 0.19382081204132423 0.46590214765744925 -0.6015805470300865
Ni 6.035890675482595 1.8419745163212293 10.313511574664505 1.1785461237249701 -0.3047204618073849 0.05344834962712731
Ni 6.083171422651837 6.263385645836544 12.404463125758651 0.8208876762679734 0.29960473784737435 0.2667542669762567
Ni 2.2449446139897735 6.909831385979177 3.1777897145494185 -0.4072424290327115 0.1585812721127398 -0.27899168958271303
Ni 3.597377874364044 1.216579178764436 5.242771755018906 -0.3284769407970343 0.3384067983162366 0.6594910461936255
Ni 3.5334184487061964 1.1549801167473213 0.2895100809038462 -0.7356234676818298 0.6842263441567765 -1.2581749884022073
Ni 7.97989351742603 7.583710613261383 5.832384163468069 -3.2299231495544247 -0.23202611946645202 0.7911839785559536
Ni 2.0248062633876827 5.209772585520249 4.972638698275446 0.8965881524250816 1.3077440575795867 -0.2844349720854714
Ni 9.221215185093715 6.782987097099145 0.14721872740377803 -1.4777667387600486 -0.08489499817218282 -0.2876408806172788
Ni 0.3772081520955599 8.983948125581247 8.575334279051882 0.9069790087411025 -0.22134164316941235 0.2063027465584189
Ni 9.070262123618646 7.7589010274520005 2.4587430462214432 -0.35387609759642924 -1.133897374667344 -0.4493483570638261
Ni 0.48461755576097737 7.92248249361971 10.941057873951491 1.581731609079489 2.5123154017237246 2.1206808544315994
Ni 5.935276731185966 8.493782337620397 2.6325227528042126 -1.5691378315748783 1.2126340665476147 -1.7805082224641915
Ni 7.730291950639221 0.5019777088882699 3.036391992886873 1.7468213717347074 0.9819261516719541 -0.36429009384090166
Ni 3.392806902637607 7.648845628592436 11.938827669502219 -0.3220517539969808 -0.003322636615329762 0.4007187689815809
P 2.4657350494887207 5.972748652019398 7.638847605793595 0.38621491893845095 -1.117419945837611 0.1915099045199605
P 6.553196053164717 8.5921644983968 8.923311577609068 1.342270116380914 0.0797903299557658 -1.5048934197735115
P 5.351871987268989 5.8522598948101345 10.252134772569981 -0.20476265576480865 -0.22874179228822542 0.5825093893312484
P 0.21687517082951285 5.927681319781738 11.481216531194844 -0.7212147484556675 -1.3813367433650727 -0.5704228904803597
P 6.616742185578079 4.000081627497253 -0.15112205249059388 0.20887744926413063 1.234092493531707 1.5092758651119234
P 6.923369035809686 7.468833459882813 0.8766721196279202 0.8701412710874628 -0.5131795925871743 0.1514225495807715
P 2.231067145269353 8.971834041370634 9.657937564395317 0.5834349864693114 -0.21066153774774685 0.13305921658223535
P 8.331422382597502 2.571069721066817 9.717365459234728 -0.21621434924517602 -0.5093219094039809 -0.03115637099814634
