# total energy = -340862.2703867705 ev
CRYSTAL
PRIMVEC
9.34899919722892 0.00000000000000 0.00000000000000

0.00000000000000 9.34899919722892 0.00000000000000

0.00000000000000 0.00000000000000 13.68320533646627

PRIMCOORD
 96 1
Ni 5.952330121765051 4.74542107772375 7.110477590989308 0.808854399252523 -2.411312956466718 1.08021968263823
Ni 0.8613504029106684 5.94888034108221 10.596985816952794 1.067419188439452 -1.0809647883343705 -0.8639228009815766
Ni 9.058114381230872 1.9166663607888699 0.5706357954378811 -1.6339872239500957 -1.1023689650417596 0.1869197140461168
Ni 8.84312479699621 3.59752291625721 4.287618352912419 1.109080058513348 -3.5729124250350206 2.1467215014697354
Ni 0.76682173770128 0.4559048779858122 7.236116920638499 -0.0944157931784245 -1.0258130828628913 1.04445718032664
Ni 8.532915656515677 7.279775811724663 11.117631579086572 -1.613177486293596 -0.7256452734231955 -3.233346316303361
Ni 5.681788784637609 6.647951751812203 2.8941350726240556 1.3743906510645427 0.35550617700068454 -0.7708725206921111
Ni 0.3038471465654308 3.9867591464722887 12.043628441253885 1.797498072153969 0.15678947031963966 0.14111988210318277
Ni 4.287077045862185 1.6157875214505442 2.166940937579562 -1.848934276447074 1.7609837792780187 0.06542017727702282
Ni 4.132285667093124 8.223426388968962 3.666291349234898 -0.08267459348209633 0.5361061194763606 -1.223881871547292
Ni 7.768896748756716 5.03238860634103 10.930677773474404 0.9249186239386588 -0.34801963881565223 -1.2411342308698368
Ni 6.1356359479126 2.7523546959588128 10.119058436591649 1.0665547835566276 0.21147452056734545 -2.4769388219966437
Ni 2.897974706571054 7.794971107359537 12.92952090180825 -2.0631722186921695 -1.1296460555901577 -0.1157153259871491
Ni -0.11544237628666008 0.4009954013339839 10.291384798148608 0.4303569035629879 0.8093375095365288 -0.5410827467553456
Ni 0.6640014451541928 7.948921076205953 3.392600334297025 1.191347903475329 -0.6820948996360705 0.7652047808833725
Ni 4.781554959401737 1.4145409659523989 5.025020660118412 -1.3626296538738727 -2.6099489305084984 0.8556497623395071
Ni 7.019967125610501 6.582228287854572 6.406655018896121 -1.8166728453102068 0.5897192768161262 -1.4957804017286498
Ni 7.70785713336847 5.9790402123094255 8.455755561909488 0.0992353260542549 0.1499629343161095 2.4252743037428166
Ni 6.988152481535421 1.6230423447835627 4.286401113224327 1.9221528667225927 -0.37371524380954346 0.45167649097637047
Ni 2.784066501043348 1.9693292729472387 7.020524325959275 -0.597884586235738 -0.2656188678202329 -1.7455000818201227
Ni 6.977747045492058 5.8470884384405775 0.5553146556464493 -1.5729736603812006 -0.9706264103884187 -1.1654574088618124
Ni 7.389252591659779 7.7812841726178625 12.84257707960154 -0.6247916950392272 0.6324134732505431 2.5861196892993843
Ni 2.7181186611063457 3.0610679965768672 4.667971164144205 -0.10266132101666836 0.1927697450689906 -0.5483383998764944
Ni 8.51532084013328 2.094082317477911 6.435799588816678 -0.3600642286850121 0.33358700833009003 -0.6503232636514285
P 4.490277542180692 3.2830973771643173 6.1782683188931395 -1.6102636550809106 0.8872002834522784 -0.3784021077622515
P 7.147207003912543 4.896725279813408 4.723524786836813 -0.6722303481371649 -0.4679276627279102 1.0816301898325114
P 7.478451392459174 4.111568284997803 12.856534200418373 2.155660712940894 -0.8139428695190241 1.8054052428161873
P 2.4476801629694487 7.002391007226384 5.039319019403874 -0.010872938158761919 -0.6936018718344055 -0.6030769290699549
P 0.627222482535513 1.7376517252468053 12.191503430458814 -0.12735188178481294 0.05078648652424801 -1.029655339427117
P 4.874904715819509 7.253280748160521 0.8394101717277711 0.46542006581470813 -1.5136387700663094 0.9885346581274072
P 3.096650287305565 3.756147384673871 2.3384875926082045 0.34560460161625645 -1.2341030350546682 1.017306588053777
P 7.594126558824433 2.5612050595323947 2.1831829537863316 -0.38904107553333644 0.19186008877052763 0.6165004015647125
Ni 1.030540175255994 5.425560765194254 4.18414643512524 1.0874622231332562 -0.3096423245890345 1.7826286112413041
Ni 0.4135202554824957 7.768616278782501 9.059828052773325 -0.11750558511835245 -0.8164599795139229 -1.09970247395319
Ni 0.3297532231837231 8.621927477332264 12.276749474421612 1.9840411195869572 2.8315358569194977 1.8086358339383433
Ni 5.604893266707095 4.247680363484169 1.9380344332243693 -0.07195592151301156 -0.3654355202992545 0.22552945599851482
Ni 4.0265952318099085 3.413656150161233 13.847677693296353 -0.051417178129711444 0.43702711649431186 0.2788649341968617
Ni 2.174240636108455 5.1171559815478345 6.258274248837694 1.262483128859258 -0.5510676258821994 0.5819010663232882
Ni 0.46978720680952285 3.185690155119573 8.457260750771107 -0.5303933853622995 -0.7044133606276126 -0.031373114994642744
Ni 8.997598309794494 9.096492022702577 5.244376226951681 -0.9271860798165967 0.0029693670409690794 1.3382825924880757
Ni 4.221316185907992 7.9207244947982405 5.811558502107068 1.6111859097848638 0.9910150013470996 1.4224047170499763
Ni 6.089377100165465 2.3238246223562635 7.146532941074514 0.20482924733668598 -0.8961325529449018 0.22019930203485302
Ni 7.999209342582638 7.039207365841626 2.114889449964981 1.1276141127617936 3.3837052005063084 -0.4431869654481206
Ni 6.773415320277552 0.27525884209373247 0.6441282776812575 1.5428048501073042 -1.0039443078142583 0.23635405741784457
Ni 0.4520633742389857 6.650055276618812 13.292317227554113 -0.12086216029541119 -1.2536650163469958 0.6165327974645446
Ni 3.4916828969877454 5.726850960494761 10.37166465376798 0.1721304715520842 -0.8420591681392658 0.1612703889091287
Ni 5.9956440347829325 6.49808729559018 11.11597587133879 -0.2722857383174472 0.8477857862103981 -0.4681248663403809
Ni 2.6510863372690467 7.490605091341809 7.759403775029464 -1.0716334836311157 1.536587922663315 0.7803704328802173
Ni 5.560887527752818 3.2718785781957314 4.169382495682582 -0.38534331496677504 2.238888093602667 -0.7247818969816356
Ni 4.305036473211063 6.194787065474467 7.246420452591231 0.31471742511909667 -0.8908795320760786 0.7645283236416381
Ni 5.757169764707363 4.32471611640179 11.949584054199974 -3.0335114368574727 -0.9091405351687956 -0.3929085289085427
Ni 4.220970272939794 5.798520387905742 12.896037461386591 1.0811141694280413 0.5232050951439763 0.23138360078644665
Ni 3.443320524434001 6.001515206243159 2.8504443949408134 -0.2710341252985332 0.01986331458283031 2.042041607361141
Ni 0.6229069845322637 6.932095882689055 6.31437478798002 -0.43608840673012633 0.7821753472994399 0.6410387530257089
Ni 7.624015309076573 1.3516408997351956 8.546242654790444 0.8674452123125382 -0.2186126742740235 0.6388684848472674
Ni 4.395086032932243 8.127870268754034 10.356708124943024 -1.1278108021536317 0.47264563702886986 -0.42087416088353324
P 1.0431332770982313 5.205242251449513 8.111280469779238 0.6280590529365893 1.3901684827240894 0.5885913338592702
P 8.214301765807846 7.865453211879676 7.477721235626302 1.5759008613303247 2.1006442474956986 0.823306055901479
P 5.346758051439081 5.876593879727958 9.111797269195469 -0.05374505493193969 0.6597283590154123 -0.015593483562882822
P 2.7080217420346187 0.013135343792385663 2.5989058334663264 -1.1304544104240661 0.7499306283331214 0.18919359768195804
P 6.400418301569502 8.836954457563488 11.267148252540567 -0.058132128256041825 0.6530779435784301 -0.07567965022150192
P 4.181190281597018 3.2396899741550316 10.50721018290643 1.1555884864875323 0.9966264339966062 0.2614871050400464
P 4.009430469387972 1.2328618656552952 13.752168318077127 0.9480444113228448 -0.2760251507552214 -1.338410633425508
P 0.5257624693633667 5.836832586383462 2.312284217817245 1.7367794141176733 1.9592402584931936 -3.5850889124965546
Ni 5.893085514211779 0.2796771790875271 2.700982880581745 0.7582386339781844 -1.281002270709368 0.588386931157948
Ni 1.0712176705162575 2.2667583316027247 2.5134269994249303 0.5739031357194762 -0.418900324986614 1.7782808757955695
Ni 1.8211195895730823 7.748319601648502 1.4175663020742608 0.11800926422764836 -0.08535959651342719 -1.0065040981216342
Ni 8.8543903409605 4.674686550226818 6.528818390664878 -0.37097753316340626 -0.11872403090648585 0.07623166607023
Ni 2.6558262798332737 5.250108098324715 0.9584276052857538 -1.96917911487346 1.6081136986174434 -2.288625055816478
Ni 3.3442865765388112 3.8222541575962614 8.404484715723138 0.3746670661998515 1.0177007381684022 -0.030579672559069914
Ni 1.693206583332925 3.1623270062674935 0.5082985389689352 0.6541158979246412 -0.13899383689911546 -0.9931932399453413
Ni 4.918284071831374 8.66016488381686 12.959596632043201 1.3402746832174401 1.2569593708275513 -0.22255443253059093
Ni 2.2511081070415475 9.20057443013363 5.101536608683822 -0.12017233331723819 0.4569071432476905 -0.6135284634205821
Ni 5.076207365312498 1.4665494481709338 11.59490172480814 -0.7226049439349748 -1.0178945993467632 1.1742814349113453
Ni 5.096064639486895 5.516582620826045 4.916485324396744 -1.0014086858765978 0.3132668087154992 0.3269052254345402
Ni 2.854155947599587 0.3695659360234913 11.539525733099202 -0.29872104969084035 1.8044410791307053 0.5754226576877961
Ni 9.141096097601844 4.4222261774370795 0.5481533223048355 -0.5369311864808173 0.919698770300616 1.475038284085292
Ni 6.439814983947517 8.57605193854989 9.146702692386395 0.7485700005401689 -0.32833630145411197 -0.7725946455895404
Ni 8.535598819268998 0.2728898057115328 3.1285827287698154 -0.6874535928448225 0.6510699120094657 -2.8762550542037433
Ni 8.258756256720865 6.7270910295364335 4.580685168568953 0.38149514486527847 0.8523461518875707 -1.6970586984892837
Ni 6.055702005261427 2.339063490955259 13.760515104509754 1.3128037314906809 1.1487750631101248 0.24449905512248216
Ni 8.147577958942183 4.901624155363025 2.784970549260233 -3.097419805475659 -1.001530556166443 -2.0339919975837875
Ni 2.2272027162393195 2.9548820643392046 10.40666637165005 -2.914326150043852 -0.4666493102361189 0.34048939187687816
Ni 1.9100659673956852 0.8189573663081255 0.060537574134402056 -0.6011270044324357 -1.255064982018316 1.0596292600813881
Ni 4.211733461788992 1.3502011538675602 8.779869468811668 0.2356223214581426 0.36361800747454154 1.5300668337153456
Ni 7.572492974813343 1.192492887366668 12.202190271376304 -0.030151840993031944 -1.141793746696285 0.022080376838807137
Ni 6.594185657755255 9.012435171430448 6.715731060680826 -0.6388039501579191 1.3537189816478044 -1.4920402179599273
Ni 8.334801015729596 2.645467588785613 10.670259532616283 1.4420479452022004 0.4165966165541019 -1.2242081445384596
P 9.08946157534893 8.870582807471823 0.8673487207592054 -0.34664641261720947 -0.19525600182595407 0.10879443049759971
P 2.166976463776296 5.547051009024896 12.33802281478837 -0.6551489671748458 -0.1924020773169267 0.07246962792463647
P 6.5481231389900705 8.465640258700725 4.356198871007384 0.5751861161969578 -0.3285427610379632 0.8105279303002041
P 2.149774305357798 8.441024343963822 10.133727016243073 -0.44170832402006505 -1.5790558620195385 -1.0484339055862009
P 1.758453248334391 1.396918102572579 8.90679522074259 0.5485026933685004 -0.2062963188005157 0.4821363501281245
P 4.602839491832168 8.88873856380265 7.792257092909053 -0.11536102797152391 -0.8670101816576488 0.09079105194164364
P 1.0095329741873176 1.6669545937464347 5.342320081547091 -0.17000879722339107 0.8065668887699271 -0.32307145351074684
P 7.671517573709393 3.873262296906764 8.821699695665954 -0.1608214742971682 -1.7229047130181103 -0.34581286097232056
