# total energy = -340896.40703776124 ev
CRYSTAL
PRIMVEC
9.03551194967925 0.00000000000000 0.00000000000000
0.00000000000000 9.03551194967925 0.00000000000000
0.00000000000000 0.00000000000000 13.22438506190748
PRIMCOORD
 96 1
Ni 6.324325246258268 2.0362339299619783 11.297301137406123 0.6622850639989948 0.26529568015285926 0.06256522432673095
Ni 4.464618112606475 0.4236200371360557 6.005484619509244 0.07677236906504842 -0.7628573636971184 -0.7105742380226859
Ni 2.6743037104724303 1.5776726646941153 4.6726119827166235 0.8031619768534362 -0.6527429288365145 0.6643951683634622
Ni 3.3557078061338093 4.193299760781617 4.760963928888497 0.13654306136577773 -0.904046922695972 1.1014084009007032
Ni 5.134420610967231 4.525065687327013 2.823895645759907 0.5864141237022933 0.7425248227873535 -0.36404455348899883
Ni 7.377378018063914 6.311567103432348 2.4934841424507757 -0.0598038595315099 -0.6027653113668071 0.3381545730961144
Ni 5.140718362772943 4.61850191605423 11.46506529425981 -0.19659811767614527 0.211781510284803 0.15278240604277557
Ni 5.794175620076979 8.122130087770987 12.260168657672065 -0.15465339781324333 -0.8723729886314588 0.6862904257746567
Ni 1.7724873371230407 6.538376523557153 0.4040301437501667 0.9791123363722429 0.14020276960555209 -0.026850287423624723
Ni 2.649934934833971 1.6223623066324975 0.2636282276328331 0.5311017242832337 -0.6199685626189709 0.9618808029853048
Ni 0.4779315957141842 0.1287533341547451 4.812737412169316 -0.16983344798779137 0.3530091216104436 -0.8159419022269239
Ni 8.59335010523369 2.298317988608303 1.3750982946314083 0.3304554046796438 1.2953505690112401 -0.5857968018332685
Ni 6.923704964742809 0.6936580569223642 4.65852742674138 -0.22988593319499764 -0.6914814830572931 0.3250594304750531
Ni 0.8994644295975578 7.631393364568918 2.5495955750026456 0.617915022524052 -1.6570610750504233 0.39874467597434554
Ni 7.533150243502191 3.893808682801507 3.7667811314227886 1.1006332132975756 0.6173074708470401 -0.3312730154849327
Ni 7.562398195575492 4.090538883756703 12.507702831479452 0.5948041475382014 -1.8101934082334499 0.8978119975298537
Ni 7.791683345965381 8.560641552096417 7.247002809520181 0.507000717469972 0.45045804518823707 -1.141183881026428
Ni 6.734953120809771 0.8886389827705509 0.44535586460208343 1.1243051029932185 -0.1402117684666166 -0.8001363026532349
Ni 1.786772481462827 6.408671749997613 9.408515015753867 0.834149426373886 0.23993766100404482 -0.5980995304600216
Ni 0.18733868986931818 4.895051829278668 1.3567950581424109 -1.1298954525968026 -0.6313359239156482 -0.03326724669356206
Ni 6.470113231028952 1.6765934491545704 6.847255498418375 -0.24472942596573338 0.9382474798370809 0.8267495343653891
Ni 3.5462035038667077 4.340388859268259 0.6658783755354744 -0.25384501511375634 0.704280177483858 -0.5429887055288068
Ni 5.933783314696863 5.748591462458875 4.8419763287307 0.13081695751527792 -0.19160040735123776 -0.03028810946058009
Ni 5.297927234605923 2.951992098198332 9.05576772698746 -0.3671504461078322 -0.7134045083826295 0.22034328381188503
P 0.2224886383263937 5.568884165954127 12.397424408540116 0.33265729742696903 0.06046823258838618 1.0758601201179536
P 4.056556323439223 6.216495447048269 12.778471824179796 -0.6905206618059204 -0.1975399127641243 -0.8496698906069882
P 2.3429805240109363 8.574727915174044 1.194673578480499 0.7163908447044629 0.11040111286308728 0.48543173304994464
P 6.408247080937543 7.731723688888327 5.676395011593477 -0.5793353624786409 0.3745066293625873 0.5395771087440966
P 4.722103095687366 1.080511692519505 12.457410268601727 -0.36772560188501185 0.37311874787612515 0.9515274847754387
P 4.109901985793491 6.060226268454591 8.097714327470563 -0.5637580768656743 -0.5238445285001881 0.8529012530600925
P 4.823996563568308 0.9722843307851853 3.7243702455897156 -0.758627641886487 0.24520379449899057 -0.24116099188818466
P 0.2290592625919804 5.671419155181131 3.5094741479266505 0.1472668755411851 -0.5057372773765162 0.43095622770988357
Ni 1.33140978741336 1.0752982021437578 2.5209647483932334 1.1715383249485694 0.8071227612733971 -0.05540830156697554
Ni 1.918338570477139 6.3870407344698155 4.91824147061204 0.34007158761316914 0.20156368921153675 -0.7656125578447524
Ni 6.085471488748939 5.696456558701401 9.125129737764693 -0.3384422795398623 0.20378023724688132 0.2867988443319577
Ni 8.662516948953526 2.2137907746306307 10.213443594823985 0.12809853014285033 0.7249001677270548 -0.37725976662769223
Ni 2.301146103838128 4.9403920280750295 7.165990409677978 0.5769804890932193 0.5675021172891388 0.1081825079452137
Ni 0.5727258618824318 8.980196512421298 9.051734274467991 0.19298623195517084 -0.0959913651956605 1.012176465916063
Ni 1.472463163939864 1.0105406882391101 11.490826442284582 0.08781371448087456 0.34342353480453763 -0.9687713594575508
Ni 3.9132169623978763 6.892207170202332 1.8203104945940214 0.33577013202433786 -0.28597454865844946 -0.5773882660545991
Ni 5.487736233433178 7.8562601496317015 7.928190956446757 0.15673881958736233 0.06456528547589525 0.3105275554074652
Ni 5.374205026203946 2.804640969866116 4.793720370238924 -0.04700670776684162 0.3091214190885579 0.5493251892697959
Ni 0.6838942827455311 7.130916359520999 6.998436780251941 0.8307416862439176 0.300725738825695 0.5550672339598957
Ni 5.061088396253945 4.44118903020732 6.87572820356925 0.39674847147992315 0.2973442239479718 0.20010355972624247
Ni 8.307647218437964 7.055831255495937 9.174179014202723 -0.7720272031218446 -0.25081985513418736 0.7855928576214213
Ni 4.591422486840859 0.2946272619155268 10.45566127341978 -0.3675029443512445 -0.0896116869215618 -1.6332392900404775
Ni 8.40636922163626 7.125124596382603 4.930407787407437 -0.5208828747687029 0.139192840283799 -1.0725511103493786
Ni 7.442496952445217 6.162553440907519 6.924182039771994 -0.8153387214252861 -1.3912195496964233 0.8158344301147821
Ni 2.242614057643862 5.157632841080394 2.6558396418713217 -0.023895575670674976 0.25136981410038645 -0.00981544342852503
Ni 2.4592223848150794 5.139977450795801 11.47784060455837 -0.43280485088284815 0.7930763104826599 1.4935327433450534
Ni 1.2091773822086613 3.2639612181349538 3.926332911495684 -1.4150433915888985 0.6168361876375764 -1.0504987585350296
Ni 3.775353121577852 2.7326911884760348 2.623281981783053 -0.8520772144969003 -1.287470137821899 -0.2347139507112603
Ni 0.9809493867129874 3.0860971660611454 8.148812858011228 -0.8316513425423806 1.234988522983415 0.626862718635643
Ni 3.6570150220091104 2.5449242153418807 7.075574752584404 -0.16489075927053537 0.10454285431009737 -0.3971575339928838
Ni 4.035277692876163 6.960316859027954 6.15730019427934 0.06500185879268161 -0.2532153519495574 -1.515037707296365
Ni 0.7639462076710238 7.414694682278537 11.477668929831959 0.40116691226259293 0.32787016045097084 -0.3263118148249154
P 0.30917714675446273 5.343511392224026 8.301673841510048 -0.610675053132187 -0.47826401165691185 -1.7437337339483194
P 8.440884877156805 1.5213543189193601 8.03989699026888 -0.14540411130083347 0.43246880769966806 -0.9291833127522836
P 1.8358443466806504 3.122835557513119 10.316316512196662 -0.4739967517401256 -0.16504219724673513 0.5449900522295517
P 3.897377710008474 6.005913806325271 3.9127778365187407 0.5900748603833321 1.9793614547231007 -0.3806952746718025
P 6.902010700631597 4.001231883975269 10.355645384915059 -0.07367958907233761 -0.05531677029443376 -0.3350610217724552
P 6.379866538008216 7.779521546925943 10.132180007750506 0.011923490910463337 -0.8458867694154723 0.27141310590450674
P 2.1532618803028454 8.356384769714882 5.793193459931668 1.5108601788799076 0.36516786846016464 0.19231543114039137
P 6.818097901464237 4.076163384297753 1.478936204676754 1.4059694543120884 -0.18477541400960437 0.8795761912481175
Ni 5.366976616670848 2.9128864026242685 0.36176653676133047 -0.4721496712290578 -0.08184464138163323 -0.4398489022138231
Ni 1.3659525494696552 0.9934364641814154 7.040927178589879 0.21083045922544338 0.10420732534754956 -1.2493514765733065
Ni 6.837732068858518 0.6593068477186961 9.164089058045711 -0.9285788463990652 0.19146002511863155 0.7363752582461899
Ni 2.6194762241638765 1.5079907967950439 9.056971257174721 0.9787914626977142 -0.5085176683351307 1.2829784205991324
Ni 6.43032987206116 2.1306550294880795 2.5555201601662114 -0.5213055641284183 -0.5142430008546821 0.07012632450344052
Ni 4.065736403546258 6.758490629351923 10.381102939739442 0.4793505598528712 0.39478466288533304 -0.14467546066492504
Ni 8.096405985345072 7.181451977669275 0.16066314803860918 -0.12167077223963564 0.5117652287381509 1.1016495703772318
Ni 7.357400501216813 3.817359216477072 8.149354988726211 1.4921114375174949 -0.2207600596343295 -0.34534492019696655
Ni 3.2648105562550933 8.256208049098051 12.29891654697424 -0.4655969577122046 0.17768328304951334 0.834145312608828
Ni 0.1180028820766441 4.730460944210012 10.457063584869202 -0.3060044707261311 -0.8381413211420984 -0.9789732396912172
Ni 8.60187059297083 2.2262778520990585 5.789847609869036 0.30782018377863113 1.3392791520733902 -0.020767828674970686
Ni 3.606443261813169 2.8186460133364943 11.577473387357836 -0.026010565131148754 -0.48478664326677795 -0.39202149831789906
Ni 1.1241261085398393 3.4622364916278503 12.622662553142664 -0.5244407673232904 -0.5741247648119789 -0.17506384314879525
Ni 2.9217321687903977 8.357125681692024 7.930610666537962 0.6170688724736727 -0.6208571358715114 0.4083904265942257
Ni 5.62398271762017 7.920376142190286 3.5173296219867454 -0.5181968432961075 -0.10588291327775959 0.22052248970222665
Ni 3.072128264638432 8.505732746180616 3.490602577738113 0.23740332461796532 -0.22882072515527688 0.6045260028116557
Ni 3.4214230843015923 4.441767302969968 9.560158915797553 0.8640043049517895 -0.20533549754914315 -1.7467462955223982
Ni 7.23181592109114 6.152018034013029 11.519020853668433 -0.35680278432492096 0.5857109269876817 -2.157394150692233
Ni 0.3910397882679968 9.09225493120816 0.33904041718926825 0.20886819329274994 0.36933614090524136 -0.1826570821150209
Ni 4.5901394441487335 0.3298829258620239 1.3827811904139005 -0.6654272091724024 -0.17579866443229078 0.4926315932324935
Ni 5.9710909433995685 5.701435125767323 0.4070118626825699 -0.4318324596672498 1.0834854978736954 0.2642227588036546
Ni 8.036175262910527 8.941867870872041 11.289313744872048 -0.4008344686238387 0.20328504277801765 0.09002871985432237
Ni 0.2231663017201217 4.951126216231681 5.747119577567698 -0.8110830314727258 -1.5975845169513454 0.014653745357432827
Ni 8.113094575854614 8.883200291999028 2.522828774501581 -1.569204937367388 0.3787780030444315 -0.11218031625069712
P 8.53564932613573 1.7443688240392867 3.5176729714395676 -0.6219056317406837 0.3800589266393842 1.000324965894116
P 1.8292484229816979 3.247381053768409 1.5575813003968673 -0.18792398694091508 -0.3757361308943142 0.2723268759680278
P 4.770515368535295 0.8985238328070633 8.177086781899945 -0.4781832790176474 1.1276040854594644 0.1714640416126789
P 8.504684626798317 1.8019702125061667 12.40968379110825 -0.5086418526178207 -0.6837825717511384 0.08781448581182297
P 6.382803079381036 7.994304700690053 1.4245839862950018 -0.025008349118879513 -0.8021026823509864 -0.3593589750878714
P 1.7565758006383072 3.081037279387976 6.029129650643202 0.08370817695293326 0.010253816517524276 0.15689128600482657
P 7.063809612518094 4.0245344692075955 5.910110273475965 -0.5498684633677756 -0.00983935468792499 0.2411339953049912
P 2.3800441938918997 8.360893490161152 10.207479253407985 0.2481253390211598 0.8442001257416688 0.0931541528571815
