# total energy = -381172.01139497064 ev
CRYSTAL
PRIMVEC
9.24036317610540 0.00000000000000 0.00000000000000

0.00000000000000 9.24036317610540 0.00000000000000

0.00000000000000 0.00000000000000 13.52420553845124

PRIMCOORD
 96 1
Ni 5.140820675897872 3.133508836662934 10.153054304282588 0.12126788037426213 -0.3107988067909809 -0.3677405142833473
Ni 1.6925111425679682 5.104755537965173 6.516773604700536 0.2953855575597042 1.2346779337215317 1.6928318048921298
Ni 5.858076155429501 5.403727492311181 10.798185976203124 1.5898827774317135 -0.6287825613661752 -0.3789703215608958
Ni 5.2066120625442505 2.176447448950572 7.2121885615527574 0.309381357618164 0.11609996302007747 1.2913807857302146
Ni 3.672323660642847 9.506485755869985 7.866678873416475 -0.27714666595417436 -1.4653580806830504 1.520592061455691
Ni 3.81105847512441 8.946002279967914 3.5807359517913144 -2.536943227574734 -1.7416087171855168 0.25026166863787225
Ni 0.38927617673613873 2.982743069173845 11.145013772043738 0.48370600860808954 1.068446601262702 -0.7229191327412839
Ni 0.7916274675319159 2.207587473248086 8.965425523609866 -0.4784097932061568 -0.6940536146598434 -0.5845014800606126
Ni 3.140124936780744 5.753438281499221 4.690749376947896 0.12963733538487995 0.36574662378177014 0.6659090339048274
Ni 2.4419323267226374 7.1616419262672215 8.379313900114575 -1.5852923298475536 -1.1256683018893323 -1.5835360092780792
Ni 8.848839859941696 4.079130654618523 7.812865769706852 0.46886123028577315 -0.17137559566393065 -2.012767540987372
Ni 7.454441317933485 6.777021044558111 9.123185322075448 -0.21513731413091333 2.546893653919227 -0.742228117482541
Ni 3.1182714775927263 4.275580778228356 12.458119293945183 -1.2691042337202014 0.5948959359210594 -1.4785033598157569
Ni 8.874029090278498 8.955972631961094 7.123158585260736 -1.1097768274700563 -0.5385761782834079 0.3951271338264163
Ni 2.8882973159557785 7.610963831754132 0.32591870178114446 1.103252138977661 -0.22589429553710128 -1.9639464057196112
Ni 7.509634007882757 6.290783887715543 12.060223706329305 -0.6681700620248621 0.32935780074009086 -0.6255524844646516
Ni 8.54301155603226 5.0519468617455034 9.778257776826628 0.29958211213955505 -1.3730580482960482 3.7361301674785077
Ni 4.839289140919694 8.791614290067956 12.417397936949126 -0.5170966682533933 1.3020860879628608 0.5020575145320838
Ni 1.2103397455743332 8.96744916317104 9.739199685223317 0.21623851761489213 -0.11137324696836948 -1.4963445017622359
Ni 0.3180560766551046 1.1093980169612658 1.6996410068848709 0.6800902105012159 0.032446807674795734 -0.011269659376548334
Ni 5.767114019172906 8.805844449539226 7.3164198594981436 2.3102701448900795 0.5664019422464245 1.3922055677587764
Ni 2.9764503817712913 0.7894097803415885 0.9581739274528427 -0.4345084638375162 -0.3202676655133645 0.26548002824952344
Ni -0.3420274271098849 7.399202426167747 10.887701995604358 1.998725203961693 0.5725769607088849 -0.2424743113829695
Ni 4.395825625760565 4.1512978919370935 3.1366145227657216 -0.35273632756503126 0.31117727317632216 -0.08171865732673023
P 7.199823107394024 8.384151230298476 5.642311824464576 -0.014569927394374906 -0.4260338507076018 -1.3025195759558537
Ni 4.7550447487771335 7.7465569227160636 5.66093485264535 -0.13301319383564836 -0.6247670124488789 -1.0368294885780531
P 1.5869492323083856 0.36517638523158535 7.5130612586281424 -0.06732330783700663 1.5234084478585634 1.0128894328226878
Ni 3.6047766049707928 1.6678116514856973 11.87887788055826 -0.09291221204970451 2.438076083493175 0.5385409541700984
P 2.0220964205037872 5.512560491176497 0.6095682857146493 0.43920046999654677 -0.5085230676517694 -0.19449855483463924
P 7.574039340035181 3.960318063396735 11.631682453852092 -0.49698909887024084 -0.388034488645693 -0.8068741355977007
P 0.05249727597669532 6.205449132704405 8.057193911683195 1.0271045479808052 0.6634713709976122 -1.2456765988248804
Ni 8.040474398340786 -0.14028165129681627 9.69693703562998 -0.5153655444948996 2.3687257179238106 -1.4609044157870712
Ni 9.452799245137477 2.7212962301608346 3.8268095983937105 -0.19372696677593731 -0.7064165071005705 1.3901175748814962
Ni 2.3249216063429894 8.102680524029468 6.123597994654738 0.44802886692145427 -1.6041827389941534 -0.45020967662285694
Ni 7.332145109750223 1.0749776636947266 0.9531453217487753 -0.8824236879992415 0.7148839211416333 0.21687075188225233
Ni 5.424740078439533 3.6580103379019424 12.744819121801717 1.256780679157842 -0.480449706454321 -1.9107947613972962
Ni 1.8991811079798928 6.540939002784469 11.180947696817675 -0.0030063909264915964 0.4915944102172309 0.7101358649336866
Ni 6.486855156430361 4.722879044154093 8.575847186994045 0.7634034660085756 -1.0630033187599435 -1.1929787542105326
Ni 4.557300974306276 5.226996303968677 0.5804130914524788 -0.47318094070704964 1.2945630401129382 1.2676428186833264
Ni 8.462213819398 2.744064485314862 -0.28979257745071163 -0.6375965601133794 -0.8894060328543457 0.30764843408745723
Ni 5.982553089349918 9.063077682890613 3.641541238404774 2.186435532229906 0.07918149272717331 -0.12900844355162944
Ni 6.336726974008491 1.5035826746786625 11.528073956392657 0.6127792439593834 -0.17821370163168662 -0.023947769064849078
Ni 3.3982822064614355 3.3820468881555805 6.068365571143306 0.34724805075695037 -0.025100394612053545 -1.2374225863462043
Ni 6.21952220599969 8.198881946273211 10.630701619407954 -1.648464591630664 -1.1759130569774974 -0.5756517429794666
Ni 1.3191357829864767 2.8692344464822557 6.30443005622669 -1.9697375584800918 -1.1621229451719406 0.5251077114833279
Ni 0.32027745999074925 5.137900721097274 12.49888130853973 1.4783580924871442 -0.46508942194816677 -0.7216400089185443
Ni 4.468103747438652 0.6415824483796834 10.049228658285765 0.9860651135409921 0.7255113189484924 -0.2576296789671692
Ni 4.41358560400977 6.65777415626155 12.02673847782802 -1.096617407269963 -0.9177084793434647 0.07942677596875998
Ni 5.389386448480398 2.335418659043872 5.036725211292894 0.14086122912515742 0.23132575096531774 -1.6754223511664306
Ni 7.470787520598856 8.684185826423183 12.449571957899131 0.2078443800139259 0.3166987172151836 1.461770363331792
Ni 9.469801513596652 6.884024451491406 5.762366320512947 0.08126742872192456 0.8880235506845222 -0.2604190687868483
Ni 5.114919937587507 4.802087438301952 5.91206575007802 1.650043763192326 0.9719325307943518 -0.8745985355278679
Ni 7.530230777662923 1.2388832277865052 5.1849230818228484 0.4866473506246006 0.1454035970802012 -1.3284846325610475
Ni 7.6392855452472705 2.7728112555194806 9.61337088615313 -0.09014801904100603 -0.5311678016344787 0.7430544700385784
Ni 6.075123048819499 3.339735264636793 1.4905842556343563 -0.02165460215529819 0.29526163038733017 0.49940876405532697
Ni 8.96488958253887 4.62100403884843 5.29357681764028 -1.230579852392758 -0.7274275621345988 0.21280583778425932
P 3.7245871554282286 6.230980256483048 6.843437079763099 -0.08678295922351505 0.009364471934035485 0.6675915638135729
Ni 5.182808886701404 6.709529431065815 8.674520406418672 -1.0196298368703147 0.8496891738806979 -0.8573754867813621
P 6.194758032374368 1.2243388959632748 8.86042357936584 1.0823979212364712 -0.39005666128204436 0.8503676880049613
Ni 3.199374146215657 6.482696992948497 2.3843306740628716 0.00267574705995023 -0.34696111564415083 0.09211362740780911
P 0.33511840747568583 8.934534989121262 13.536782938557499 0.8580928245633609 0.4205129208893726 -0.054738786303776696
P 2.400969796244632 3.7631841529032175 4.01655399036179 -0.2111564751062944 -1.6414547359717344 0.16515815399930908
P 7.109341470028667 2.1200350310466196 2.9023214153256105 0.5711469131305776 -0.34536240369846327 1.246800942237311
Ni -0.09530880314963586 6.02808035929468 1.1030489633426246 1.2949530764625052 1.0386035497593402 0.8739421328907916
Ni 9.282868964178641 0.6834154210798921 11.641758145986811 0.24161427737551938 0.3483916774430903 -0.14551544006771713
Ni 6.043631890716851 7.053779165547674 0.13780061375263752 -0.014437001360936426 0.9041325404312429 1.449136990838498
Ni 4.418020978390424 1.832668972996658 2.9230808154997336 0.5540835298903878 -0.08410746927388095 -1.0041062873134192
Ni 8.121475422967492 8.25419476094529 1.3983894549144718 -0.5981452960962924 -1.2965373902304895 0.833871490122151
Ni 6.757440714740179 4.2636699499436395 4.064970721908283 0.15607573208206668 -0.10708696088818977 -0.47117445179998213
Ni 8.610540130977729 3.9626373945832856 2.2419884217517096 -2.5081386446382163 0.6309967954086746 -0.8746257892213775
Ni 3.7404805802922416 5.448801984454586 10.13677093608761 -0.750981438195139 -0.6904142181350432 0.3012682415927263
Ni 3.581980628726886 3.1072292434575544 0.8215653205650061 0.5522061103620167 -0.6168968656721827 0.9672014438672698
Ni 7.718013440503893 6.740475407734174 4.004341926233721 -0.4607365442961097 -0.39622679464849825 -0.2801180898776724
Ni 1.0832108273888168 5.342066548056788 3.4532032297298927 -0.6892705914489032 0.7161746149285989 -0.5970762314018297
Ni 3.5122343665910902 7.885559707733125 10.046118352001331 1.384184754336829 0.3025676771304402 1.8731095881416966
Ni 2.0811977841260116 1.4449248484945039 3.5048790374098377 1.286700606645726 0.4721666405099223 -1.3831897374134114
Ni 5.199644828621306 1.4899993406379075 0.1364358120942569 -0.1375409065026728 -0.46539306923151463 1.0104029189554082
Ni 1.4467729211531097 2.34230272969718 13.12359177758267 1.3738962279266274 -1.3776929759648981 -1.0010356188078955
Ni 1.4110958784787184 3.294873300849129 1.5481701996765236 0.45424450881386286 1.2184018222693274 1.5952309291175044
Ni 2.3402790901360064 9.090789532406413 11.68380457107909 -0.42036662511949535 -0.9128460090448407 1.7327736353923902
Ni 7.564253795307861 4.790814195084455 0.14547473546749953 -2.3401926434811244 -0.4937510515489174 1.7447259226582594
Ni 4.325839114179151 4.432380502947794 8.11288742932295 -1.5731832052888455 0.028755474866137574 -0.10617293371435263
Ni 8.930949728163567 8.892371211415163 3.821318050488662 0.07000214022075041 -0.5491542109095704 -0.4363758560635581
Ni 0.9968781131420311 0.8319949186138499 5.3261296934852975 -1.0404233765768984 -0.6362009653174334 1.3934651511974905
Ni 5.152528216190142 6.375804470374718 3.663517594424589 2.0301481983576646 0.35623148520248327 -0.6652793707406284
Ni 7.9304401522473755 2.013364277191873 7.313051747077834 -0.5147358813307006 -0.30106435311203633 0.5770910465291545
Ni 1.5896289376633643 5.049137791304421 9.353800764924932 -0.18417274742859893 -1.189596468001861 -0.6279387253086411
Ni 3.0432304872900238 2.4344106710021105 8.345448892681947 -0.1828306315784077 0.14716068898062398 -0.38350471909613953
P 2.9970563919147497 3.3076342425568046 10.285428976709557 -1.182758104923789 0.20501925186030498 0.8186137926321322
Ni 1.3550807961963662 7.865314071758095 1.9441724368536595 -1.4516559006056096 1.241520924785294 0.8952465507955227
P 4.58578901433869 8.538788710007344 1.568077638355029 0.1827840946111884 -0.016099733775340016 -0.5676111320631773
Ni 7.253232407227741 6.40242595702194 6.652800068700912 -0.30718769240095484 -0.24880128204226185 0.0869451958329922
P 1.8383240753319927 7.518255266835155 4.098078019550883 -0.8417138689847053 0.1201931592528446 -0.7688274652376242
P 7.014027122661055 3.785148496450752 6.257771765814861 0.6354458323189637 -0.17566779528138135 0.2002935642498615
P 7.074329733511374 6.191607068491444 1.8962149513628301 -0.2745079427797466 -0.2758765409924991 0.9160287776481967
Ni 3.3565342451035227 0.8566380434800335 5.7745515875874665 0.953179418556565 1.9388732648010674 -1.7661257284902747
