# total energy = -340884.9511399855 ev
CRYSTAL
PRIMVEC
9.12367499801618 0.00000000000000 0.00000000000000

0.00000000000000 9.12367499801618 0.00000000000000

0.00000000000000 0.00000000000000 13.35342059480072

PRIMCOORD
 96 1
Ni 6.604044385446779 2.2279740532288352 11.785541794369914 0.9021167955527948 -0.14478421832864743 -0.12648464868851117
Ni 5.097889876361399 0.5040392476788725 6.226139031667025 -0.32686383067364355 1.06452772582427 -0.6124876808608936
Ni 3.0207940358798346 1.7615900368283404 5.214804296717486 0.6710085599149217 -0.36986398838425333 -1.1640700415959824
Ni 3.4256388647021505 4.69503400867949 5.061266532720543 1.1436236008161724 -1.4773381358630622 -1.029956929827936
Ni 3.9063926691583353 2.780713653087812 2.8683949065173997 -1.0169258076755905 0.48028772695516 -0.28038548460644613
Ni 5.216598011213835 4.672681005037305 3.0503748148221574 0.5232431474707635 1.2367551279655344 -0.7578704520054884
Ni 5.220302223245969 3.025684325656247 0.5482005715683697 0.7779397119515375 0.9666535417835997 0.7747358603022594
Ni 5.288894011565131 8.40166381467634 12.75792482382983 1.4726463868143476 -0.14713677772122402 0.4533502791343676
Ni 2.23559232181709 5.377995821185366 11.611226685395687 -0.6482185586035998 0.8793805302975435 -0.7383658063136574
Ni 0.7963134377916493 7.800267656277048 11.529156492064034 2.197631143835409 0.33699603401163897 -0.4358760336090042
Ni 0.67141306474658 0.30877344390319617 5.187563740401376 -0.07556086525545051 0.915715874393468 -1.2248056689131421
Ni 8.476350217866106 2.8115607981140274 1.6318011987418497 3.225592383389555 0.5607483435050731 -1.6054775465461768
Ni 1.5921451455456221 1.5708139934985086 2.8450127523401783 -0.35073729485713145 0.5449903093398679 0.40579824038701734
Ni 1.8806996133788405 7.074296840028615 0.4724257139563538 -0.2285024225839097 -0.7163839027259274 -0.235499165616717
Ni 7.567093895426712 3.99474633743218 3.8217486871215978 1.1994651332658246 1.3065497801611692 0.6149235439958958
Ni 8.089606760156482 4.226159229016009 12.601422777839684 -0.49107864692307684 -0.2037766377024555 1.0004386086538448
Ni 8.538409454916776 9.497198208692259 7.232065252102652 -1.2947497022024475 -0.6231101935717462 -0.009541878052164212
Ni 7.015549496986971 1.1035723516521505 0.41202789811517 0.04766645283802758 -1.1259868615710156 0.638137520218514
Ni 2.104402999624854 6.598816519696994 9.29446102749512 -0.6489320397308566 0.8664622795739787 -0.3832913175337528
Ni -0.07226315512145384 5.65323884725779 1.5920347490786548 0.6061121163518529 -1.3630659700803427 -0.6839360666098673
Ni 6.801316485345278 2.370996781838995 7.092148222447513 -0.8153857726131376 -0.38482960855515014 -0.05555459733685271
Ni 3.4983454304264656 4.7800940302942205 1.1695538565664025 0.8290743258438238 -0.7534365846038509 -2.268914207651112
Ni 6.186827853384135 5.9287555835788925 4.983790109729235 -0.21251453179608565 0.3346576156864494 0.04210464247953394
Ni 5.220110626071893 3.031459611903391 10.193653936458052 0.06271640519261457 -0.46579210444214614 -2.2500466813226474
P 0.3344483775968585 6.026096071684392 12.544536664489062 0.39331759142150324 -0.7984725417975668 1.698494659604862
P 3.8427276653154103 6.197219719159013 12.694015305498084 0.7715934580185357 -0.18652890636560132 2.3970687878428785
P 2.33400027989244 9.019154135698004 1.6477055889251382 1.547011431989484 -0.5750809580776611 0.2835199164703697
P 6.765624668917431 8.253103015367891 6.219502470504036 -1.3069650133217168 -0.6307422561957072 1.1595251025377773
P 4.594171782040977 1.470517434707268 12.56750460382328 0.2537771379902984 0.026147090709013034 -0.33294166143660725
P 4.40233739241625 6.134238990937787 8.36593094171119 -0.6392747191467507 1.7314158358129148 0.5310834694507887
P 4.983999041885727 1.2598791509982374 3.831723600950986 0.24851254715724944 0.5330380220739981 1.3963080199629243
P 0.3768497445873444 5.966691824045915 3.876137650636764 -1.6839183044525836 1.325146312216434 -1.3686838304877524
Ni 0.6044653626544884 7.842108829625236 2.7177685071989144 1.1820114565657514 0.09131478565559757 -0.0071841764532650475
Ni 2.1018392469622196 6.623167608154542 4.952223106748993 -0.46073551585484523 2.0671941953673687 1.3500217353018749
Ni 6.386910045169081 6.060428460543796 9.336671709679026 -0.6028802396781165 0.13140702569079304 1.1550593534569398
Ni 9.099168765062071 2.823339462482215 10.547613292948302 -0.8451097820401318 -0.5157195854002087 -0.24741931409307066
Ni 2.6754538151205103 5.461030386959867 7.0324054864681695 -0.9141750122689094 -0.263937623463068 1.671951876119327
Ni 0.5711338409377559 0.2594809652184481 9.378881479495435 0.7610300806803926 0.35003461236315203 0.5517934483046304
Ni 1.5704216754754008 1.442015074144743 11.648789767557009 0.6672982009428701 -0.21944056949195756 -0.2430055012960912
Ni 3.9088195666966294 7.40619788757776 1.749484744896728 1.63803079789185 0.3304340645234051 -0.6732536471953566
Ni 6.260118334305634 8.506686437094784 8.289376009890436 -0.7855087825480472 -0.9933621614230377 0.14664286880394098
Ni 7.084515355979328 0.7484424276650451 4.952342626890916 1.585525271793966 3.031792911504469 -0.34318082266611216
Ni 1.219251426419197 7.817584391343524 7.0639460307910396 -0.8248204356634762 -0.7480938322346987 1.0507571544027388
Ni 5.411999757746356 4.476704466982556 7.611663047586742 1.0353045672930943 -0.4959069215496556 -0.7581532733532297
Ni 8.444946528667574 7.366984332616899 9.62031125381345 -0.3445388793559034 1.0142261493562403 -1.03804304927018
Ni 4.708336326765329 0.40365692634304556 10.310256327130643 1.2891079305356379 0.379712599043559 0.29345363064431396
Ni 8.24358702238879 7.649270835755349 4.959767473570103 1.2562250637646881 -1.1981286738425883 -1.2300201232345462
Ni 7.492708573510495 6.4323824411497545 7.141983559792142 -0.02684540232761828 0.027931950523577706 0.2583033079954261
Ni 2.589828125658508 5.909240042848022 2.82155122219084 -1.6789110810459795 -0.5011535146605756 0.9853392911185611
Ni 3.4023278751895862 4.517879612058957 9.341064759170337 2.0948453814257344 0.4382782152925936 -0.20519357265464014
Ni 1.0770407048801205 3.989427234932836 4.0789624191134815 0.7213106506035836 -1.7740475544405123 -1.2718000353848096
Ni 0.7304742622067109 0.5089760681975608 0.500132490062716 -0.7817667990071118 -0.39071666346354644 -0.19400773124114976
Ni 1.355586501286613 3.764300555393687 8.396818230907211 -1.3860004673893291 0.0061572778506474605 -0.5997702332942252
Ni 5.52329034485957 3.374099224875741 5.07279064655746 -0.25628987710982315 -1.0402531695476214 0.33901846375830647
Ni 4.359620346272287 7.06084854314348 6.4222077188388305 0.6126272917625514 0.5184320992353652 -0.5204599282986714
Ni 8.161528689834581 7.84412516179051 0.2772821674250877 0.2583015082232132 -0.07481421689741309 1.6764801030069838
P 0.288632019070344 6.0589139305011015 8.090837543908044 0.9166026478737956 -0.6943598330463525 0.9208858486301819
P 8.737852989454801 2.2231658765270264 8.364435571385902 1.670372190337033 -1.172275203114594 -0.7999828077945061
P 2.094430822897953 3.5183080312301804 10.516032604455624 -1.7140323502291446 -1.54084464105714 1.6726568726061517
P 4.176252727006722 6.69773540356988 4.2308579216183455 1.0310614757460241 -0.9581719866751498 -1.509141139306272
P 7.184894027845172 4.109038613605915 10.574987967286267 -0.49373691048153034 -0.28373768890813067 -1.0162241536228755
P 6.068201831606302 7.807858553840434 10.91313599507778 0.9628817334459934 0.21989385497929226 -2.9630143592781746
P 2.579846825256651 8.737177837508058 5.784194603371152 1.4073120843829117 0.7405237331969247 0.9627470076403419
P 6.887380111205168 4.2947236463103025 1.4446399554295826 0.3339636749432184 0.05831570502175764 1.0281389027825907
Ni 2.8574072647678963 2.2320705832840764 0.5529722535703545 0.24690766456397473 -1.4893539293770157 0.8046460175981303
Ni 1.6794039728247478 1.3359706001312264 7.32489864477989 -0.44249559580805087 0.4201516808952119 -0.45639420816701404
Ni 7.154320593067637 1.2536203099784258 9.281228049338946 -0.7490148013870713 0.21122358089880397 1.905850015797511
Ni 2.868784487438021 1.7941615564212385 9.399846772176813 0.23803633021627393 -0.22188414593644368 0.2737970327556511
Ni 6.651049558820059 2.259578463276398 2.650693986024934 -2.8099694436026312 -1.5126190705525433 0.8392073005127676
Ni 3.789536640321966 7.263640466390356 10.869203675429679 1.4753092783584913 -0.7916691457224881 0.020545171141203328
Ni 7.5296777044321805 6.596672456082336 11.843162363554494 -1.0311095553751404 -0.8441283919634687 -0.8080640421407438
Ni 7.924769324726539 4.188597059222182 8.33214688571664 0.38071995726215074 1.0731077541837968 0.6408574902528381
Ni 3.14046015660265 8.935736375575352 12.816292621993304 -1.8489910978269382 0.5200259260850463 -0.02924398446678189
Ni -0.09744632273498813 5.222063092512475 10.415548097960292 1.2538377944794343 0.1508887885644885 -0.48891017851684837
Ni 8.842200459926504 2.6539310658993207 5.9303212062013415 0.1593865416228545 -0.05751634904891385 -0.709876440624713
Ni 3.7962425414146215 3.5003070205420044 11.934940147039324 -1.1464371590055675 -0.2782321857088692 0.7864958290516648
Ni 1.3654765649389105 3.7366649439519817 13.156604785484381 -1.3724381553238623 0.45430852928257887 -0.04169583707688948
Ni 3.6049464486122984 8.897736269383637 7.780584239926986 -1.0766214237640104 0.09063267198690843 1.9898970641471019
Ni 5.764538558045959 8.385268570780418 3.955737152790333 -1.2305292016604807 -2.249877502734635 -0.5846742581930511
Ni 3.330871252934242 -0.3544292257504851 3.7582132394630476 -0.8011151216267365 0.29006414534679076 -0.3732920402291959
Ni 3.6438041802498757 2.9869269544431853 7.4127240522737825 -0.556743593221054 0.21596778045200873 -1.2724487247124021
Ni 5.6307398648163085 4.971408370446456 11.64315407353669 -0.8125891837046069 0.6270756059773974 0.13162916900392815
Ni 7.670036319955191 -0.2141654964470177 2.5815903595407415 0.3320587446110217 2.8980294697663576 0.015327117275373604
Ni 4.69564529490154 0.7015211921013599 1.6431118185847953 0.06575467779830611 -0.3800812952368874 -0.45322378085883236
Ni 5.830621335752222 5.898839053398189 0.47088472525628644 -0.28294398936224174 0.4608201051488515 0.5617852694100195
Ni 8.068503699983268 -0.10603535033856076 11.551042363548474 -1.6412068816269865 1.9249453418660654 -0.4392611480311531
Ni 0.3440036023782709 5.135944724602849 5.904375299361486 -0.792036813474552 0.5654658035854003 2.0059340630053066
Ni 7.345133131097293 6.737970810125813 2.7427126345286017 -0.5737979776001796 -2.426153106803344 0.4454425942515167
P 8.630741045471433 1.7261080649244802 3.7065221466323686 0.18604245364748606 0.3205962524973769 -0.14165132912662054
P 1.7157070754746473 3.829553078678955 2.008233991383705 0.5732161369547806 -0.7709154581149047 -0.7471715775307455
P 5.086083840968342 1.7375217822944287 8.348852334561064 0.22589043888235935 -1.3318874875950095 0.26775725431947434
P 8.785934756472889 1.9487622285505548 12.69433554648904 -0.6624964086788526 0.7710740951799558 -0.3710433534043352
P 6.157540856775395 7.954074568685192 1.320277879206917 0.26929863066466525 0.4713621423307559 0.9955396286903305
P 1.7967344327588288 3.2617867861674563 6.08797101050095 0.7027388011386672 1.0844360347124227 0.7526526552499747
P 7.302133251029694 4.429042389012444 6.225577925657233 -1.1821405259444477 -0.783564771447799 -1.4542414019445986
P 2.6684924511290875 8.805760502152264 10.073660275804317 -2.5384030999497122 0.9038795438801723 -0.34086631560032266
