# total energy = -381160.4729476524 ev
CRYSTAL
PRIMVEC
9.35776975526149 0.00000000000000 0.00000000000000
0.00000000000000 9.35776975526149 0.00000000000000
0.00000000000000 0.00000000000000 13.69604193469694
PRIMCOORD
 96 1
Ni 6.771488042886931 5.476232346603244 8.002104009028299 -1.4661836619081394 0.6303925861657724 -2.044804514818259
Ni 3.532361557471879 4.452080596980212 13.343095060256037 2.0098249134192807 1.395297833530855 2.261296286094538
Ni 1.6385361208220022 6.15691651629349 6.517371255605416 0.32853864727290516 -1.2992419336458463 -1.3955603431636223
Ni 8.429563186891682 0.09071702703090671 0.42324163104898516 0.3661567147359952 -0.12222973006689915 -0.12267504513443388
Ni 1.1691691070287196 0.8876209535796213 2.9080944456678783 -0.568094499457499 0.035523389717590434 0.7335195339649496
Ni 0.15320821324470194 7.464412175375567 1.485486053885628 -1.745530420837426 0.898801872246949 -0.4361616831702231
Ni 8.871455788776654 3.541906482589889 12.540848782972153 -1.7581578797934496 -1.1529037405665177 -2.1760068806974138
Ni 5.834316762844198 2.1184493410937133 3.602292170615888 0.12492527462119131 -0.9209637530559687 -1.1181159434633712
Ni 9.19718103731361 0.39550894469630415 7.002525762699282 -0.8880415484066512 -0.5482286137715074 -0.8143362483027008
Ni 3.3329568424329805 3.7211358461048367 11.219263130017342 -0.16151361526818636 -1.329941162501916 -2.0744691317622275
Ni 3.9836119290803893 8.801412882395963 11.08761708976962 0.0460091197402627 -0.6724882297842417 -4.152366315369397
Ni 6.541286907687866 3.418795664107006 6.817985864866226 -1.6466586487701769 0.9742506374045674 -1.1055219088484445
Ni 9.077682317944014 1.3334447545254515 11.825491269125276 1.4877804142423088 -0.5321617901166319 0.7691830488048301
Ni 6.615961910081709 8.529934624946366 6.987514964285752 -0.5453052694771253 -0.5067484922498499 -1.42963877290457
Ni 8.722302297153163 7.658801125842649 12.444292507633758 -0.2465320263921109 1.2222055122861337 0.5166125295281232
Ni 1.5139748480319708 3.6002334612767095 6.994719511195905 1.2958465348110522 0.5526120875511837 -1.5266218125895386
Ni 7.020479579690864 2.2351875183948655 13.393167550269723 -0.19193722186536621 -2.005207469251927 -0.4040090096970784
Ni 3.39760031568319 6.447063524341549 1.2757260308706613 1.684530484115286 0.3028060183934914 -0.2744493216276693
Ni 5.542307558621155 5.183390300874806 2.0191119365934824 0.5043277986234992 0.9672135280521278 -0.09136235106408135
Ni 1.179172562863183 6.40500034943424 13.410122893231803 0.18397760069865735 0.378553031517819 0.18033357618816687
Ni 6.301241398739636 8.733091805644403 12.417639707907174 0.9826625156173464 0.5185120605436812 1.374839308566187
Ni 2.7780223822876553 5.74429501810375 8.545864356346748 -0.43707031102742144 0.19652766944952604 1.587560299946124
Ni 7.503331139655767 8.090428254340898 2.6004399862440506 -0.42819383447339804 0.6911207572837645 -0.6196754568585845
Ni 2.32519990536559 1.2611559834111106 10.728465887780184 -0.5558107969941396 0.6214112086027684 -0.7410819196932398
P 3.585092589864023 4.8123453735667505 6.713676677311878 0.09371593889792247 0.3744510935343035 -0.7212736267180611
Ni 4.410064210921521 3.3043127093092273 4.6825259699690625 -2.077893584062744 -0.40529378994677295 1.4436569415605331
P 0.07350902428629036 5.019011717911115 7.858857141654305 0.2697200344728 0.7501193473051597 -0.23436170957816413
Ni 8.992077440513077 2.2563080046608937 4.929780704712306 0.6242247667921637 -0.6514324375552071 0.36012979181562493
P 2.1264689497467866 2.837678164275218 3.976864977109718 0.02603216239770355 -0.12192711122481582 0.3122771911087202
P 2.2102116310027395 7.543934502486204 10.103652282224328 1.1291333776197972 0.2997502622863031 -0.15942665083217059
P 2.4320656356084087 8.38999853650056 6.207703939914055 0.006871530308852682 0.39642039871654305 0.04547664427556039
Ni 3.0166642257773533 8.89872432975105 8.436077130396239 -1.0933346227536331 -0.8945011879890659 0.4453639184947814
Ni 3.4578924260119535 4.520130298409789 2.773092709197295 -1.778391690341821 -1.6694990437034603 -2.0234335053416506
Ni 1.3144952708352844 1.4799032084685646 8.220693087777425 0.319206828349018 -0.5083813998675826 0.7503286351024884
Ni 7.823376221970534 9.006348039341473 4.756512240511253 1.413773009516907 1.7355044040599916 -0.6797058305786036
Ni 1.7528225624555873 5.507721241722953 11.3490057999033 -0.5211839509488896 -0.8946713950183429 -1.0897754446474652
Ni 1.684089743836191 8.695894670993335 12.132570225711108 -1.068612694526921 0.1489092962406145 0.14136362268287267
Ni 4.488660118829527 5.428124052454528 4.376117965472409 0.9972000471118889 2.566339935569296 1.995111004247874
Ni 2.540007509369434 1.4987123256128783 6.158220053615979 -0.5247971222214446 -0.7037037361550977 -0.7822195702738141
Ni 7.173273243736813 4.579524062845094 3.800377440123767 -0.532671896983831 0.3835972788099458 1.8017468201279936
Ni 3.276398482223909 2.10389800917361 12.892043073365665 -0.4058931140936687 -1.0479022014524468 1.1372377518944865
Ni 0.1880050799616827 7.031839912135241 10.36184999288228 0.6984923671574874 -0.1589106304277005 -1.1148879234443767
Ni 7.983291148776096 4.810838772641261 9.527692785064154 1.4810083856257976 -0.7201737087856629 1.878300645424333
Ni 6.408107128982454 7.038914386046236 4.512735788774249 0.3378601817841472 -0.2524710175843652 -0.602319224968324
Ni 2.3360081293962778 7.649349778421874 3.833124955271293 0.8755873818036984 -0.7999771513675512 0.8672014717328485
Ni 2.2456962937944005 8.456635214701883 1.5111806179925222 0.06608609299579586 1.1070663705174288 -0.5595250126209331
Ni 7.344969602624312 6.8799352362130275 0.5306370110581559 -1.2217033758387346 1.6716073482957148 1.2496083297791187
Ni 5.028697009574978 2.788568588766084 1.0770343778846967 0.5380884400137119 1.6334056404150128 0.39466484947801705
Ni 4.907523249424869 6.613500816644418 9.844441125105318 0.0755014727724248 0.2415962796533904 1.1651727877418578
Ni 3.8248386501810985 8.728029252223969 13.171839452322516 0.8455653815203116 2.072387309532534 4.406802169989616
Ni 7.267234609530871 0.6147745901964421 10.742408028891285 -1.0540481664491848 0.012536184793797764 -1.2590288517620705
Ni 1.753496321875682 5.158049460463461 4.373434157115699 0.7988317249091985 -0.7208851330303907 -0.6793222219869397
Ni 8.556501333191495 5.454615898541868 11.682477410217398 -0.9015591232771119 0.9472008323756267 0.43124804791868954
Ni 3.597051819570706 0.47198063887706704 3.901660324949522 0.16127630244639968 0.047864684891762724 -0.6335157051757864
Ni 8.695679442289693 5.170055479018762 0.5281712387360032 2.129778960078126 -0.9184592414665601 1.32739397060003
Ni 6.687371050842037 4.442170718842984 -0.006624365187293447 -1.072007579141083 0.49453755200595473 -0.016011802047224036
P 5.002832134059116 0.9871043392875395 12.177986289510361 0.5082510449373053 1.933953458901947 -0.17039780513169364
Ni 1.3667116258926333 5.750583439357968 2.054077243165487 0.29120417248850494 -1.836197545606696 0.5757748988208923
P 6.241651121140138 8.42254485959903 9.041880426758725 -1.4305350594665944 0.9060582966990459 0.9524415119492757
Ni 9.125013917205674 4.625919885134401 5.385955134749343 -1.1167658571933798 -0.15371365960779335 1.3960982179449632
P 1.1458682604171069 3.14859006333981 10.920730624520022 -0.4412334412661756 0.05575797159691042 0.9679732890362878
P 6.997291026315934 5.539902611802204 5.875136290155248 0.4803769442348566 -0.4057239355056561 -0.023992249149539326
P 5.423576176368888 7.58585731084766 1.9055984467390614 0.22318795234953176 -0.5911554950420206 -1.015670852222567
Ni 2.256934975232371 3.3554622786180923 9.065985105789588 0.9935603934767726 0.362131395626686 1.5190583984199837
Ni 7.924608574839781 1.4259930970912547 2.888809953821609 0.7591107521704926 -0.7497223689770572 -0.9696699600124202
Ni 4.8247257029109925 0.648017131362343 7.991024409675628 1.7675457487662527 -1.3629135036628783 -0.5777389645257985
Ni 4.620688891858943 1.9577015727827558 9.74403506330266 -1.7137996653930485 -0.2587995309055543 2.6250873288118335
Ni 4.345776332920806 7.56679553392081 5.381749753035584 -0.7897246204016077 1.5924299693335995 0.4522475329884921
Ni 4.796979915680699 1.2948439544158519 5.7688554205201505 1.377950343391343 -1.0408874606975105 -0.23458693821509277
Ni 4.3617406880691645 2.8803121631356627 7.480531869501336 -0.9445513105679216 0.9768487371490467 -0.1076250927798469
Ni 6.417923429422447 3.539202087139786 11.444549564557606 0.3143243034457361 -0.09273634859347255 -0.4260739599169178
Ni 5.352241897766349 4.101426249899749 9.436970143371415 -0.5706213796444108 1.185301954391565 -0.23101901835817634
Ni 4.794836986414009 6.58468824366564 7.585347312397727 -0.24722853823850324 0.4249483309529068 -1.55672917349788
Ni 8.817489530781003 2.6120623362406863 9.626481824258587 0.55332428312686 -0.9346494780731774 0.4785522323212919
Ni 7.978949143624374 7.347280971746026 8.47515143365385 2.3629361078252273 -0.0749096048246968 -1.415138522405866
Ni 2.1368467163701914 2.547783816009695 1.7425748688313392 1.4419718405486264 1.0046508469629793 -1.3723746490757784
Ni 0.9699796206934627 7.775548660913524 7.808469294800935 -0.3922744948689696 1.1271983653806135 1.478637571400776
Ni 8.648347843028033 3.0753842307925625 7.20844629279668 0.31681673085028667 -1.1905516328262786 0.8891304105954558
Ni 1.3953651167861107 3.9829849585089123 -0.24705167114024312 1.1190209717761437 0.09623407733408587 0.38478924223551797
Ni 0.06937101851454129 3.3373830675122145 2.834067000938904 -0.023898403884152392 1.6264065833893602 1.081253523219383
Ni 9.2590733262651 2.474606056771618 0.73950149551058 -0.39463425335039776 -1.5003423100677193 0.6649420420058678
Ni 3.242673080140274 6.861472356548484 12.492981919282306 0.9489923770584108 -2.6310067796200625 -1.1958882145478438
Ni 7.172898932947872 1.298437337989691 6.219235519544372 -0.36283896321667186 0.5261672630960939 0.4453482347654975
Ni -0.05034480111264126 9.24683336346671 9.597131179520705 0.07589253756325638 0.7854984981354021 0.07708938608483498
Ni 6.625862430449214 2.0269022798883287 8.843191581103676 1.1499796249411873 0.43944652456908184 -0.947067649231872
Ni 8.844046881256409 6.184643587984337 3.7883798435612173 0.6025210565664849 1.380163291882262 -1.452452942585608
Ni 8.808019467820781 7.401967778010389 5.836033913588467 0.5122036018271501 -1.5114111662873715 1.5759911070512858
Ni 4.049705856637747 0.8400170432190046 1.2575279760892946 -3.651253167028454 -0.6524966171536634 1.3000276627719352
P 4.779377950830722 5.132811555519076 11.673999270847872 0.551330906845915 -0.34587919543388174 -0.9541986038496986
Ni 5.974065695895533 6.547285238080654 12.518949730265126 -0.4717853459111036 -0.6358556661628726 -0.5354512595011811
P 0.4445782817956271 8.34383665845434 3.4448149428233075 -2.228659216785807 -0.47296831047561116 0.3801643418689969
Ni 6.103792457572958 0.5305864791016488 1.171674181983711 2.400975579096452 -1.2627942323417736 0.2528697956846806
P 1.444044234887962 0.9186597399756287 0.20092628839594573 -0.0034352509337940837 -0.36736667588369637 0.23203871787194233
P 5.859273934696877 -0.03190063698754536 4.174266193650806 -1.5057318565144069 0.15616546358239558 0.22173116529834716
P 7.086274058617068 3.4002111334360574 2.164974300605206 -0.26123719381276944 -1.243690164522471 -2.407377368857738
Ni 7.2586535346943855 7.306396875823883 10.580575695069369 -1.2126772610807244 0.026193113455600048 1.1474411747900497
