# total energy = -340864.77356714243 ev
CRYSTAL
PRIMVEC
9.28208207603739 0.00000000000000 0.00000000000000

0.00000000000000 9.28208207603739 0.00000000000000

0.00000000000000 0.00000000000000 13.58526536551484

PRIMCOORD
 96 1
Ni 8.809911805485575 2.2311062128927945 3.298339584881234 1.1547305093626112 -2.3986631289131917 0.162624588944178
Ni 4.842889174270861 7.8348012412940395 9.40785053536886 -0.6467887681356087 -0.9992214484172921 -0.6991166310050476
Ni 5.167817738044279 2.722295430105894 8.984982082986198 -0.3081063475604823 -1.0081740296248896 0.5235341963486209
Ni 6.354550490588387 3.662523930003865 6.290792797287147 -1.1704229803972037 -0.6822828472771605 -2.618825664172838
Ni 5.050148784066229 0.3706112587247765 7.7093390512380555 -1.28631314139932 0.18055983326636 0.5485890824347197
Ni 3.398671466031312 8.065730160282753 1.0771048662343694 2.34685745709581 1.5677005849077195 0.4535968479275349
Ni 6.251575072474284 6.646778279346844 7.158633124006241 0.2641602809968354 0.8359060040536763 1.283857737880292
Ni 0.5048106726018177 0.35768039023958115 12.731702850935909 -1.1313949199604645 0.10561680410056648 -1.4563270808290338
Ni 2.0501241773430574 1.2004702339582844 8.923060385511798 0.5973585385289389 2.367332694231026 0.8158115472966465
Ni 0.432460555959291 7.468214693340335 11.672907819726948 -3.4631409753361324 -1.7505582130693207 -0.4368977900052992
Ni 1.044178536625918 7.874881271528103 0.6372743371380135 -1.4056316113566953 1.2611620960549894 0.6695761983437694
Ni 2.155141653505214 3.9582881920182675 8.828153881312115 -0.07311574614906761 -2.2919710894705756 -0.279373498402164
Ni 4.490791956376298 6.040537655290017 5.609532529794066 -0.18230329832002795 -0.019019221414980147 -0.8368580835543006
Ni 1.7905693173534531 5.36547039293176 10.83343353571172 0.2813802444195477 2.067610456969181 0.7985231925298442
Ni 0.018019305857662583 2.9991149626835845 8.709282897710326 -0.8091871000015934 0.08411492547304869 -1.1547850167496305
Ni 6.599077659760727 5.6985950351435015 4.565885856468846 -0.1849325084127589 0.8362860131009145 -0.7582828569525585
Ni 2.454061823412063 6.480090650133479 2.2948369881561295 -1.900738148492243 -0.2242297633504848 1.3267347397494762
Ni 9.612338515468098 5.971998761531721 1.8574857031717507 -0.2826010042005262 -4.34464780794806 -0.11854276813361522
Ni 3.1533274736397514 4.053271737498854 12.683095371934815 1.4264776015677691 -0.13087275045387783 -0.7721822406424701
Ni 5.985327831336287 7.774634785532761 -0.025482099815093542 -1.926403928689463 -0.8477353925884368 0.6654153820978604
Ni 8.71620918732604 3.7383214119147867 0.43698185811932166 2.365388683130778 1.9735700448523041 -0.07864130395298714
Ni 6.909414790572601 8.686877808090367 8.906024052141813 0.7009045761434058 -0.5255005760463723 1.7307550623004644
Ni 2.591900741655657 5.267358785804838 4.368681526143733 0.45034131710471476 -1.918454591935399 -0.6957014346759115
Ni 1.3359607854466173 2.2322200627371873 0.9488794003560876 -0.6483856803090834 -0.764190223575929 -1.2630976225148052
P 4.235748188256484 3.760514870064311 5.683477308130481 -1.0616678877779715 -0.41355243041113937 0.6613769503624287
P 1.2419889869080216 1.227685298489612 6.4193914028633 1.0949695872538947 0.5700513660735537 0.07101746885914222
P 4.164591747363866 7.5724988850215995 7.080884548451224 -0.4435983419539264 0.9825871822947206 0.5819473461801913
P 3.888774679646128 0.4344292855592551 9.853474011864261 0.3515831877971945 0.7872494193882378 -0.1047966221921163
P 4.98205543024569 5.697249133248193 13.390126411994329 0.09202261035589958 -0.741960208533135 0.07383256971043414
P 8.824976624630986 5.183263122553191 12.321754128539999 0.8099532887436567 -0.7200644369013083 -2.060672592198767
P 2.519704707574938 7.55469585167539 4.286979711849326 0.7588060764458803 0.49263467855628706 -0.7978503348325355
P 3.988622036113895 1.968970934097014 12.932140130434373 1.5504135156924974 0.8411592820328158 -1.1064364502429138
Ni 2.244138256072189 2.6513617591821528 4.862274802604312 0.14541028194842054 0.610233080498762 1.3896164668753617
Ni 0.5879493531954908 6.514796354868348 4.416284683868464 -1.985656543703193 0.7012365055615278 -0.86977617443856
Ni 7.135879028101706 6.098105128081046 11.594765683893579 -2.0206605705822036 0.5291137473189275 -1.7269544576074518
Ni 4.969283285363321 4.8866170627453105 7.751847274132895 -1.8848736706561604 -0.6071318158656189 1.1757914437979686
Ni 6.536005912321992 4.059611399529856 13.073237059472815 0.23262158695860582 -0.4638473220109496 -0.6033242691940706
Ni 3.726570296056444 9.288579494031293 5.308007807667745 -1.9277306179206866 -0.9120890762741581 2.544103492768599
Ni 6.122646952985831 4.821493975176486 1.7103851234720313 -0.3804443350032609 -0.32552582858851037 0.05362986951031409
Ni 7.291400312625034 -0.14245396943219452 6.8221669322613225 0.1768823844147728 0.4158800501030515 -2.6170924835318154
Ni 5.547408482931268 1.2266735515476221 5.606326498658622 0.2746470394607722 1.8364813953957018 -0.3070743067515421
Ni 8.01276660018188 6.32973948530454 0.1823056604481573 -0.38713331698766235 1.1472072044023727 0.7622176732305904
Ni 2.585505387132436 0.625678232049682 13.55660055332085 -0.1064578119446231 -0.9152980701297592 -0.18958723357595092
Ni 7.120387233182611 3.838354410023286 8.298368838782608 0.7041210261981744 1.1134576187557534 -0.759607232190937
Ni 5.091936717395027 4.170699357343952 11.17187031347301 -0.2312136508674857 1.137916523129066 -0.4755743806398906
Ni 5.731258681830316 8.187938052376703 4.4697968150177 1.0291274919481048 0.23583238058641967 -0.1411779890346278
Ni 0.860975298844821 3.642131195769442 11.769431262617406 -0.19294740829743542 -1.2344840725431707 1.2658337904990458
Ni 0.16979991132023847 8.581071354955098 5.727764906151738 -0.13047705767735593 0.05975912233650353 -0.03378172443613536
Ni 8.624233036425315 2.7061446073621997 5.927821620286701 0.5245217570728709 -1.6813042638685043 -0.21074664126238543
Ni 2.1419146866030507 8.529927082933401 7.6969762461735 1.3231485650601147 0.5049510340297949 -1.485071757061894
Ni 2.3337753222996898 6.168741772379615 8.612039165253826 -0.39198730264585396 2.760257935310117 -1.5173660983192256
Ni 7.1823822591051005 3.5375592595450427 3.7394259796771423 -2.1765966917626125 0.9245918367268592 0.4052025157845473
Ni 5.023806235246342 2.6127018874996906 1.124077770588816 -1.0504547926709715 2.200208674754598 -0.15759911070512855
Ni 3.303028892726127 2.6093789021305853 2.8264413187648127 -0.12038702043120557 -2.4195515423264267 -0.0497053376449273
Ni 3.358480050812809 4.412200567772358 1.5345240125818893 2.1931862206901775 1.3178757466969495 0.17782392239243566
Ni 3.273224127306586 2.498003199773354 10.752411169822393 0.09698535367781361 -0.45329577174734836 0.007951650746908887
P 9.02426292595691 7.73485178192387 2.4325097571312684 -1.1275477783002323 3.023701906966218 1.6349220770595392
P 1.8995131142170938 0.4113735219885303 2.0269895160750213 -1.1427674234634642 0.24601343488447952 -0.40146850266341183
P 9.1465822030353 4.485445477123214 3.9516143750339485 -0.4368887911442347 0.023007516638766826 0.6757303908706233
P 0.6039098932574344 2.0652539710627247 10.469511873510726 0.7653965851792045 -1.6415292979634117 0.46713139207886
P 7.864875187092642 8.52353172841018 13.260550403179721 1.3764256792167004 1.4897992444445503 -0.8638374403566219
P 5.30419008732609 8.488686792444762 2.203896717610689 1.637958807003334 0.0729995322861775 -0.9887148924590133
P 7.374047971078971 0.8821867127148723 4.6589712161729455 1.0281005933454874 0.43235156539551345 -0.3554773806452781
P 1.6178668989803682 4.373317926121017 0.44714109690838655 -2.116868679774361 0.3875017560706746 0.4011635698284833
Ni 2.6276274754145525 6.335977044433139 13.563868423555514 1.154705826772263 -3.5329754796307675 -1.023192614520909
Ni 1.23307818815288 3.6444424341965567 2.607365618536846 0.6052903917815059 1.9316479506972217 1.2960892469494776
Ni 8.303704179537249 2.0929888321881025 12.388335431196774 -0.856913202432963 0.6206442485297569 0.4195693260291806
Ni 6.168129154965199 8.765636274170966 11.270730056412084 2.5040583039212554 -1.0447716262432651 -0.3987094518610359
Ni 5.924641578980959 1.953015035076089 11.298471414994887 -0.9472717948228783 -0.9971126296044054 0.9419943484740227
Ni 7.337857133218246 3.5993964900729094 10.470612728440267 1.1018454884381217 0.24779366671335387 1.9492476660568556
Ni 6.32829148050683 0.9662461758465769 0.4811673532381756 0.453420984471303 -1.48479176392763 -1.2976722751658814
Ni 4.713125667399114 4.154409303369709 3.6192917047101703 1.0068547965928338 0.23089843361991202 0.4643029214911294
Ni 4.501104349518967 6.571714081916813 2.9250708660693774 2.194186636930234 -0.2821310065426431 1.0992684717395649
Ni 0.20957920209631573 7.2348724330221055 7.6486945682518925 -0.6284753145384016 -1.919695663431352 -1.063911946617142
Ni 2.1450798765775336 6.726316440318517 6.175603087421074 0.3898723131853802 -0.49042790071295533 1.3568786103227082
Ni 8.580597968771231 0.811687443230445 1.265713060385382 0.9259833177577472 -1.0029667743923372 0.1641723930472721
Ni 5.739826043550103 1.4004341272728804 2.9165666225074394 1.006193508859751 -0.7095334554629974 1.1836176247106065
Ni 4.20543290832493 6.63499931724239 11.391462097462213 -0.1555121462691128 -0.23067860429962206 1.053314373606954
Ni 3.284065599125342 2.4318498010984655 7.315855814166879 0.5084235659594276 -0.05501260879045364 -1.5286951501787995
Ni 7.079564636385619 6.805548292582983 2.2469080293519124 -1.0533804509581988 1.2019678450830205 1.303710510940161
Ni 3.641732066241868 0.1590512603218491 3.1320148850755007 -0.0741380167659949 -0.12702072369763928 -0.20347119064689476
Ni 8.31223441292889 4.979781320146722 6.0602648642424155 0.6048653884289454 1.0706333245013755 0.058016942834416205
Ni 9.279798644424664 0.6004718100710756 8.116462307862024 -1.402809568526868 -0.6152714142536178 -0.30701517137883255
Ni 1.6959106447441485 8.482282155839505 9.946410858255778 0.0955697042772096 -1.099894792469654 1.2862455213861783
Ni 8.786947934527012 5.614183781102609 9.617104864593895 0.9779921067248706 -0.9112416406721984 0.037495940062928966
Ni 1.2033383973075955 0.6800508122037106 4.158232592960587 0.44374283795159064 -0.7010105055936507 -0.9208763355484849
Ni 8.09384558677163 0.7514448743964668 10.551893136210213 0.44787100118735124 -0.3768121375673123 -1.0415718883590448
Ni 4.292099708300718 9.079695519879518 12.185453251289868 -2.1726415637696066 0.680302583622338 -0.11433927157522888
P 3.642604581953309 5.113545404376246 9.8144846262695 2.0347818404749343 -0.7124709408247666 0.6728232445261574
P 2.281925612043211 7.885499973377979 12.301294563314912 2.377057377717958 2.4920900758157853 -1.3281401047374353
P 7.413580358472874 2.698524018010146 1.5186692882551633 -2.929599531263155 -1.279640871585467 1.4493519350627815
P 7.7827937356429375 7.109768531332734 5.841460200809918 0.8925584624403984 0.9273966531655061 -1.3923554630730797
P 7.2031369945389505 1.6410628219898458 8.515583481562235 -0.3074625433288963 -0.17273365235372187 0.1605625642088267
P 0.6712996652595988 4.776837878498376 7.385575388760231 0.7744658944703243 0.874034949714914 1.342457549801372
P 8.780970273695438 7.738221177703157 9.471986937617194 0.09623227756187297 1.872438530216601 2.32688718462147
P 6.64730735802293 5.75826954055684 9.395446889143345 -1.0858228877576204 -0.09241881735305374 -0.28204127504231424
