# total energy = -340868.47610068705 ev
CRYSTAL
PRIMVEC
9.24290554582342 0.00000000000000 0.00000000000000
0.00000000000000 9.24290554582342 0.00000000000000
0.00000000000000 0.00000000000000 13.52792655352615
PRIMCOORD
 96 1
Ni 1.3315329606165274 9.01996658063624 0.758361907209946 -0.28985614310104274 0.7395459426646876 -0.7414624429611102
Ni 9.455769573091255 4.107870688266044 0.5196361449802941 -2.240480892011083 -0.9372612046644117 -2.1517474939294168
Ni 3.8828706406449967 2.336329213210049 9.387758426132983 -0.6564067508413469 0.8101859735797531 1.5526323777206872
Ni 5.705719483911337 3.106568253936531 8.325181074344695 1.783498158330451 -2.78681280298051 0.09567331973460944
Ni 2.4468466337993298 5.122732464905876 4.171633795874743 0.9793542771797197 0.60811397727323 -0.13570385329393406
Ni 5.685486763858654 7.525305581550178 13.189619621870833 0.06626144223139557 0.5521022377943008 -0.14760214739341676
Ni 3.951305112673351 6.5765952792899975 9.774535199445262 0.5813053417208183 0.9807614419398916 0.47221626280093515
Ni 4.148391585804173 5.826524258277976 12.366946502758388 0.06976945538465404 0.20596798892681947 0.4581970657037077
Ni 4.40002044405646 8.565650048544166 1.4305651468807903 -0.4057319059254561 0.6260631055524831 -0.1326352416709393
Ni 3.7524809733159854 4.634707056599943 8.334352809432989 0.1550467765969201 0.029938182320329087 0.2036707082522105
Ni 2.1674520875441834 7.564264428065509 4.909825834789136 1.3310320815732495 2.629641780951736 0.929695990722644
Ni 6.989605266879814 5.741332398650026 8.353656617486909 0.35528146258438814 2.7421676534673094 -1.7155896674139357
Ni 3.6140684640473997 0.738957351486509 5.298969716189809 0.7883765910141455 -1.3899195999380773 -0.7322866899991131
Ni 7.3556243231092635 0.6220447646092191 7.5475144347902825 1.1341303166137564 3.2495771763399257 1.0288886364644216
Ni 5.771528970788955 -0.0428602769101409 3.702958410150032 -0.4983615537377352 1.306279300108602 0.5470299654777159
Ni 5.553719903616052 4.2574301415198 6.532527878926737 0.5145996128631524 1.8690511018016067 -1.6404810592045553
Ni 7.738585625047516 2.1749942983998203 0.9092717489514572 -0.9298607984352825 -0.19940473388700494 -0.15800174546018594
Ni 6.8712221337437835 4.642628226579454 13.374235566954564 -0.8733718622096185 -0.5214940259901406 0.028764216616885944
Ni 8.277502470818078 6.339939927883462 0.8020096796653079 0.3568701472277467 0.11024350423930045 0.8176419156371662
Ni 4.944473790197765 2.293673204510581 3.7526464213237256 -0.2807966040019358 0.42903561364840304 0.15007194909014798
Ni 7.996767703271183 8.764853147025406 0.3379936425831536 0.022368854613503412 0.022892588327457348 -0.5917974995013937
Ni 8.794513630647636 6.839500482203898 10.089073120841713 -0.31474056504754827 -0.13760184164759529 -0.8048673895803171
Ni 5.156700142472624 5.062330077722557 3.8547555708157355 0.005886540687764056 -0.27525973334410664 -0.00025299655107053205
Ni 3.999220334579752 6.270359335578025 5.507516467800906 1.6633597635749418 0.47716743615862334 2.13605733688767
P 5.613946675595625 2.7293375533836897 11.76040856063998 0.6889674583861877 0.4221262881230795 -0.1287518474561331
P 1.5175741617222434 0.8121824214149578 5.668079600005197 -0.19325722622837038 0.5528082627223899 1.5113584586725648
P 1.8625933367458012 7.610756242531019 9.862507325035683 -0.21402891155808298 0.8964719385621917 -0.36506528144402933
P 0.08394221880971246 1.4105967739242726 11.188555545552045 0.20539668980438175 1.5514064757333863 2.4586752478007656
P 1.7897407559074043 3.4272138872611735 8.503559906823789 -0.3543527801225317 0.18940031437612542 1.2829946185490486
P 2.6198368523950464 7.614878578366329 13.279405205512573 0.7385696947943474 -0.46297057583295104 0.6730050215196604
P 5.365340247428871 5.741628171624757 0.9306681508015975 0.17127660819222115 -1.1061122341342757 -0.34689915205796384
P 0.8651516640270721 6.157411030852675 5.868441758831163 -0.7136302512401903 -1.5331462439716175 1.0424337221387079
Ni 6.250773618907566 6.3994087816152865 10.976600010407175 -0.6806820784489438 -2.0090049886211467 -1.1727919948500123
Ni 1.464713985394561 5.2227869165140515 1.8980352577334734 0.18178753502587403 0.15548180725180966 1.9532223344338877
Ni 0.7375339440456167 3.536853231831722 10.732975508283543 0.4655272808165338 -1.117959620391165 0.7467231771394173
Ni 7.462555496379933 5.278105705694185 3.7141737516356077 1.0466377329177265 1.0345913432761538 -0.1322778583315206
Ni 0.4878331558723575 4.1341390255843296 4.581908807738845 -2.657005003456037 1.1746521879872027 -0.9563899550740625
Ni 2.9994614654621157 0.965597090536221 2.9007666452471548 -0.13473043363707118 0.1690693161282572 -0.6649104174369839
Ni 2.1489570337180437 4.413755401570524 6.547543903137605 -0.29014924886142934 -0.20769062804488103 -0.5577620071832394
Ni 0.34172315493640065 5.268844314422925 8.288520014126803 0.9265057659201205 -0.339231351100061 -0.7519944528406856
Ni 2.1072622871864515 0.02474510649842126 11.984620188425263 -0.888892840663353 0.12253183468835027 -0.3652367740248871
Ni 5.6309905932644915 1.0114326587140452 13.197155362692648 0.6541935452401121 -0.4310408170038899 0.08018730828386836
Ni 6.200704800028906 7.244127154541186 2.2290505066940707 0.31459221239514207 -0.6625835690760201 0.20221674941450338
Ni 6.489453166609915 8.46263786718868 6.221033646298377 -1.498102622103923 -2.779700360305445 -1.3929406461525882
Ni 0.5323580800559056 1.8415102693907666 13.266972573377869 0.23035464530130004 -0.9879538459232726 -1.9188664826618371
Ni 4.3007146677905705 3.4103178560796725 13.690532413260117 0.5369594686155913 1.4438572304967972 0.289786723315688
Ni 1.8122749594197123 5.467012207492606 10.27394601869724 0.19589517807184972 1.0200450700308625 -0.46809864108813576
Ni 8.153407222107557 1.9172004222054877 9.39572673493034 -0.9364772753105355 0.9936228712835921 0.9421239320733517
Ni 3.388255040745842 9.392363241633324 10.044295865339096 2.3902319674267027 -3.196710410247882 -0.2433163476682906
Ni 5.89248163164296 0.9714386067871557 9.751443648733696 -0.8505029280312449 2.0557098488768535 1.077012745665158
Ni 2.169051110188822 2.631982030169932 4.600604432613474 0.5262125145117325 -0.6624889524796849 0.09465979086843052
Ni 0.016711173072294052 9.140752869191958 9.86582183093376 -0.25373471478813714 -3.1463800374244455 -1.9181280618339163
Ni 0.5435632543454753 1.7995289927899039 2.0287428810103205 0.3577512642811193 0.15951535389123497 2.0956293107796102
Ni 9.231906402841828 8.183437421948202 6.039339383630658 0.3655782165247059 0.0870981764710887 1.0345401783232442
Ni 6.115660826888321 8.281717235707992 8.884709599291813 -0.30000120195484464 -2.908549909681707 -1.1453950908942985
Ni 0.31061892948126574 9.384229484828225 4.124624378703456 0.10470766202273579 1.0550958909874089 -1.7965855876420287
P 9.314353119548057 8.17985117462959 2.22483019606088 -0.7067566640488085 -1.1498389855982647 -0.18776277877270242
P 8.246871482122511 7.948704594877417 7.888485217222211 -0.5789579245345642 -1.0493155368602058 1.97749997603433
P 8.42588807507837 3.846952710026117 2.3166704775864524 -0.2115053738052809 -0.20545196852234937 1.164777094965336
P 4.186176583326041 8.015077898988116 4.0880178516277805 -1.8993767493683416 -0.9300091510876886 -0.5934239793612232
P 6.482696602718408 6.15182831595463 5.598938045709126 0.19891905249983804 0.39448435803609483 -0.7057588189119135
P 7.820376095466061 3.220394634680614 7.696727279089275 0.3474095160354791 -1.661678262107461 1.0392478682115585
P 3.9843022851667635 3.793214457679702 5.257723250573044 -1.1227272169831375 -0.6878533993864024 -0.8245178168213929
P 7.523281385254364 7.54684155127277 12.055492938914055 3.053037679815858 -0.040807006714032944 0.9859355299416632
Ni 6.208348682844606 3.5089119286251154 2.130242923032494 -0.9532961466400871 1.1179763325617134 -0.7752835052756132
Ni 2.367727363058822 7.856765414263418 2.4442937433111838 0.11132388178767279 -0.5519356303094494 1.076220845891482
Ni 7.439170945565273 9.650055445867592 11.608652068758303 -0.6892798474202839 -0.3042836313802824 -0.5712795820537
Ni 3.6208989711825903 5.86199852943476 2.1344225648816595 1.2232851185035578 0.9421565850835 -0.39164714569761583
Ni 7.4022732669675975 2.941563905658548 4.12555791215495 -0.009680974733189778 -0.895767199185683 -0.0767883099046484
Ni 1.6904442225469756 1.4191834330969282 9.842459463092208 0.5051400101121494 2.327163063990676 -0.6097018905856402
Ni 7.618363153724879 0.23420598145954594 2.4680886791282823 0.3812228650404983 1.5645268151654281 -0.12614552018153757
Ni 0.40882664857846635 7.168778989228498 12.459179607766027 1.2949744166187438 2.5990117147707044 0.06913902088950673
Ni 8.88339340955426 2.4040519815179575 5.86454587417963 0.0808406255971511 -1.094881655525779 -0.0016290509629907429
Ni 3.130137662860397 2.171657609528638 7.2739798905969915 -1.5130386745884652 1.5698119748237676 -2.197210511358222
Ni 7.69872097379707 2.7255109905231096 12.099283052113504 0.7738470299394028 0.6868213585774623 -0.5494887114308536
Ni 8.113108154300477 4.391637128803931 9.792649445566436 -1.4307484610289811 -0.6405960090613354 0.8704888842348686
Ni 0.5740861010471549 1.5178144772642124 7.802339489750754 0.755270552488796 -0.11426239559070644 -0.6784997260856445
Ni 2.340017132488724 6.616321286958537 7.593955413275759 0.47249008528761205 0.739816679827571 0.34009009955593045
Ni 5.722365956645409 1.7145589628930016 5.790588766138723 0.4811145937318295 0.5500615532151882 1.4301931027461434
Ni 8.650777207833894 5.330134020530436 11.962271767312707 -0.620928355429079 -1.9781010999534385 -0.14811199715029977
Ni 8.096655782581072 4.757009181651156 6.461992494487247 0.25114818500788355 1.463915177588937 -2.7376116586655113
Ni 7.717576500936163 7.810772716692768 4.128155168589306 -0.3944681600861787 -1.1795303420151104 0.4219082585750024
Ni 0.5958494462440705 6.610692357533191 3.686900710493784 -1.8235027237478467 -0.9174428843869039 -1.0440208641201698
Ni 3.2671914650263134 1.2928051867377042 0.250618608685471 -0.9000005205407403 -1.4385119070244838 2.434970705094974
Ni 3.399272584054567 3.615297770473625 2.6621878452143224 -1.014491230092169 -0.7031892584125243 -1.6558539421162
Ni 1.850882575527551 5.497633953282711 -0.351692552765923 0.4953070831821277 0.0003560977878380964 -0.7562966797604652
Ni 2.4729208701029477 9.102025095313135 7.344176060406086 0.4770000573428237 -0.7025734792053965 0.968381323107984
Ni 3.6626491751469445 2.0298621968615675 11.785083421056905 -1.064483759960212 0.760193186601394 -2.268231065541158
P 7.527034004871262 0.7853437968297696 5.010080857445802 0.4060262972374233 -0.2801404584751756 -0.4873608317518574
P 4.6205191967183215 7.03006146407972 7.715896140723473 -0.45740722281256063 -0.4949131901778186 -0.802334081635502
P 5.724445610373986 4.7158320378253435 9.553935699113882 -1.7663093052559902 0.7338321801093619 2.6278435514007326
P 5.236475659500815 1.4934316926598363 1.7443580900971367 -0.28041068141742675 -0.2011381716383439 -0.06930922791878387
P 2.009647962619805 2.9412866184947375 0.8860849963136492 1.596980050598127 0.8191964046084795 0.88146878028514
P 5.299456817307569 8.347129277650817 11.075245843223197 -0.9773171921450329 1.0260953899900007 -0.4119208083449874
P 4.720314846973609 0.9226342173754704 7.568617836537329 1.5433483813156001 -1.5018772586550069 1.3349735827195008
P 2.8221825387328017 4.239693005941408 11.67608830699694 0.5128705459871876 -1.2442622349758572 0.4197804135987222
