# total energy = -340891.1499115977 ev
CRYSTAL
PRIMVEC
9.05362093486677 0.00000000000000 0.00000000000000
0.00000000000000 9.05362093486677 0.00000000000000
0.00000000000000 0.00000000000000 13.25088939220543
PRIMCOORD
 96 1
Ni 6.292221250181732 1.9852146133297346 11.53431572946266 -0.2710009580677526 -0.7219313149067179 -0.8730214208487351
Ni 4.503596960849214 0.6298902822398272 6.025602979327478 -0.3625108904532918 -1.577079197909142 -1.2544749138428009
Ni 2.688309757996765 1.6639649833033339 4.637016550451195 0.06422461430702488 -0.17634785206754144 1.2601207992746686
Ni 3.189871301660846 4.4085339415082005 5.036675969554242 0.22177770226556642 0.14892420863894998 -0.39274654940938164
Ni 5.087039451839022 4.444331958505759 2.4598425402092836 0.17819621813018988 0.45575837435522804 0.46062727241175505
Ni 7.292148409335858 5.955245480670061 2.5882165468894778 -0.27821675908990146 1.0396543596213579 0.13883340006185121
Ni 4.963004845651223 4.3996432857945935 11.171679282263538 0.25928084141734703 0.46215527902050735 1.5554665047353728
Ni 5.840445567789674 7.9338781116130415 12.582143786019587 -0.7948783966884053 -0.23240664273432235 -0.0018702204395193596
Ni 2.201903975701909 6.134398530833869 0.5479242308777378 -1.317862119850195 0.7616350612542432 -1.318540633974458
Ni 2.534289559422543 1.537721293618467 0.1902944360305754 0.6373368786940895 -0.9342923518440749 1.3141401909139174
Ni 0.3933590043259604 8.81991977359663 4.531167952544376 0.8770271995740185 0.9031449797069929 0.9788953352654302
Ni 8.593343857212991 2.3793821060011378 1.382147493699586 0.8607557161075046 0.8174773650348437 0.3370055470933357
Ni 6.865496524912495 0.9456235410581821 4.808589003844124 -0.9189739763194497 -0.9073680166494051 -0.21534711614887428
Ni 0.6470124900662773 7.217492251480047 2.510420593309148 0.3110816281387223 -0.11967482485552938 0.12193276765177065
Ni 7.1277889757056885 3.892296478382045 3.7615169246314784 2.1350116692319747 0.13227477300772703 1.4537793747065155
Ni 7.414616739109753 3.5690550517599275 12.708888140939651 1.760662391382858 2.0375105522600068 -0.584397864603213
Ni 7.88762316248797 8.689221702434072 6.926651017935614 0.5944771032160858 0.3329475749738782 -0.04536351573646381
Ni 6.8931100686258375 0.7831880018670577 0.21021783416027404 0.11521961729765319 -0.43638896868968075 2.311366977498684
Ni 2.072708805607026 6.756907395962389 9.247848218565428 -0.101059009526555 -0.8156539386728597 0.049124268330476686
Ni 0.15418587983650237 4.946445773044107 1.5933005668977576 0.517447880945225 -1.0927430119162214 -1.0209953497592739
Ni 6.417469041568741 1.9428165067036423 6.917454349835937 -0.4116194750544847 0.8725125995331167 0.8351513852758391
Ni 3.6270072790743884 4.059317676553762 0.31396237057234533 -1.174679184570396 0.7695861977805197 -0.27837719592716575
Ni 6.0148726278491 5.671767556995156 4.882501859424896 -1.254419120904201 0.09423298774365707 -1.4899360271327309
Ni 5.457314438982718 2.659392492875318 9.496792916081056 -1.4646255733924003 0.836086752605915 -1.6584188746298987
P 0.41431451523707574 5.551164273124522 12.46682057385178 -0.36834549485719786 -0.26536432860726555 0.7291656278716281
P 4.224283702783536 6.150957603440984 12.739259417575973 -0.7801228356457854 -1.0949346202509014 -1.3174893098918083
P 2.059906985669103 8.305583570857296 1.3139619586935878 1.6689061473144677 0.2685851495374084 -0.018773938173393474
P 6.297571940127498 8.048641810009869 5.6607139912510185 -0.6360469562380723 -1.3561023942783161 0.340655228030781
P 4.754834940536181 1.1101368862434746 12.836322381771504 -0.7414357034882327 -0.9135741454601171 -0.7887059493291061
P 4.13448989080028 6.483913565277665 8.107689525451972 -0.9993744290553885 -1.5818293109996178 0.3354168624499772
P 4.717307681948704 1.2012615804975038 3.8287119935121523 0.5275281479993624 -0.7757031093115351 -1.005409322395559
P 0.21716739355514666 5.501668127720968 3.790363571509987 0.09663954030262066 -0.042318301152236795 -0.940866919737799
Ni 1.502901067676987 1.0787932507236087 2.679542231527257 -0.7832315564780963 0.5001199311897387 -1.0787634098076777
Ni 1.86368786012836 6.56963324786059 4.926323195254837 -0.1950048050470964 -0.14450756762849304 -1.166236710229998
Ni 5.939827164295036 5.426260519331319 9.171549733880243 -0.43457839784350316 1.1146503535122738 -0.0507682316918029
Ni 8.630173986991966 2.4717743071797145 9.978622093016208 -0.4396995211201524 -0.7893944907556986 1.2046232804279964
Ni 2.247651922057161 5.4214077785344825 7.167088027901264 0.8219896510829006 -0.8868179604121953 -0.11807739846142246
Ni 0.6559529406947774 8.952220335656655 9.055962155982458 0.4471590627219912 1.0097107779843901 0.08996289961339345
Ni 1.195032689325445 0.9744593235916232 11.373728939657195 0.521440804154702 0.3638460643249476 0.2629914574997148
Ni 4.112154608065587 7.088695440704307 1.4872663697627013 1.0249885300790669 0.01465683068122637 0.8298204599812289
Ni 5.63040156315048 8.016872654308191 7.765537800877706 -0.2572776949443891 0.2043592496788029 0.6909690621972487
Ni 5.1984352032649115 2.9591488269097597 4.971415659457681 -0.669531461148763 0.2254962887677342 -0.12040990324934102
Ni 0.950947070141279 7.475755840977359 6.970445192902886 -0.3750995257515798 0.8257259781968811 0.14332948815999186
Ni 4.77081458140636 4.5109394473906965 6.998854549892426 0.9560616252003663 1.7199685132079217 0.2183488790896756
Ni 8.125452729637408 7.31783353179971 9.05726135058012 -0.8578141169806776 -0.7375525663837427 0.4872168499748254
Ni 4.755676927278916 0.25844104046674815 10.505543734154204 -1.4183346607456606 0.001863278460983888 0.22846334181585812
Ni 8.06337205119728 6.997625068175616 4.772930412608265 0.06153395484873919 0.32686922999028223 0.07133654276145779
Ni 7.067546182306154 6.238750565207633 6.902917856135564 0.6246906506849886 -0.6822208836909734 1.061064449866018
Ni 2.5511383478981267 4.942353536401998 2.5028010659684434 -0.4617197341449855 0.013352252937189907 0.9013068980569896
Ni 2.506838980885214 5.098338370709269 11.399965427633227 0.08524389687116932 0.8538101380276069 0.6658275299346146
Ni 1.0300304486121132 3.480447264113213 3.857400202025092 -0.4019876083916754 -0.7322188128756552 0.08397428613012635
Ni 3.612838362382132 2.561432314849625 2.5371876234693107 -0.19237019563772675 0.4915779551569985 -0.49694204768238937
Ni 1.0386042275945837 3.104242155286816 8.32196971930542 0.7194563710036642 0.8919815068910056 -1.1244192599735796
Ni 3.652927795681371 2.596406452346229 7.205634724200912 -1.4310212550743935 -0.1178637397887196 -0.07049193537297538
Ni 4.177775252273555 6.905558797349066 5.777374423224223 -0.14611939220030318 0.7987340229890696 0.2117326593247386
Ni 0.9021670661500932 7.383019602204977 11.470924086717716 0.4526540243982914 -0.3295292933209486 -0.12363715193738707
P 0.24094763418382362 5.708914563505268 8.004226556649568 -0.31154339826648925 -0.18878119273488775 1.0309162084174117
P 8.230891198517927 1.5240412724542507 7.906872065861393 2.0167098134645722 0.42750503593648953 1.082617236336129
P 1.7978137145354818 3.246664665501435 10.573122676560597 0.25139269691852195 -0.09632226617251798 -2.678107075541975
P 4.0888958560001525 6.021192055230055 3.5385968603630666 0.11775601056626171 1.2549546816926966 1.6065805498023686
P 7.0007304601407565 3.8729669977827057 10.545919261873555 0.012906423649022933 1.505888179586613 -1.123736117863626
P 6.486801670341453 7.917482004181938 10.513706478748286 -0.019893396489817354 -1.3931193378222975 -1.020781433976255
P 2.3531809271465765 8.674509568488439 5.596500279729297 0.2659837073588193 -0.40491352378921874 0.8496395515896851
P 7.0335860503491885 4.042966837227108 1.4808265292239144 0.8269608790452466 0.7153644603224777 1.8045310677413504
Ni 5.492822740111809 2.897231113645646 0.6178933291989911 -0.8895327882401971 -1.2344316220386804 -0.4949093335230767
Ni 1.1362384752682502 1.0651313368011714 6.845912637566157 0.6064137067526718 -0.4644875266981097 0.12781493746416053
Ni 6.760175753103541 0.6956503522094959 9.343864584186122 1.0421467870259085 -0.577826124922966 -0.8685870392264654
Ni 2.6494968852429626 1.571681425575433 9.496581061352238 0.7663188398831576 -0.4284131495730557 -1.2150614450421848
Ni 6.526284511041088 2.0616633881216893 2.6373116168876223 -0.7778911181017893 -1.6405149977662843 -0.5269627624141957
Ni 4.3862077123943966 6.726894642713297 10.47392667928347 -0.1030439011670677 0.9558163419587796 0.29423858843945455
Ni 8.286326519225074 7.281112045471409 0.27181685996907334 -0.26073634291695097 -0.7643313771394836 0.3396707526303247
Ni 7.664342764108152 4.189056063902022 8.313329848890454 0.8412279304872222 -0.940134926667781 -0.8602072998032024
Ni 3.3537146789003063 8.253099730560166 12.444943404334103 -0.572997078965439 0.23682199819319857 0.6920499539662532
Ni 0.2974367963625212 4.989106434675999 10.285578771744165 -0.10375352563958261 -0.4630217407858606 -0.9588990946491616
Ni 8.482373625968913 2.39555187291 5.739039581653391 0.7135788291769646 1.6869655759193396 0.7139603808860995
Ni 3.5809062415044406 2.468868094874146 11.552841248527002 0.7434349933064487 0.3519837656697229 -0.37614802162075217
Ni 1.0167578403879296 3.179857996956926 12.50523508728644 -0.8008814083493755 1.3353697897166548 1.2141934406149346
Ni 3.133874656458544 8.617824848098524 8.011712995763197 0.014067276726343513 -0.07423109070043345 -0.393357186410187
Ni 5.878860081224333 8.116399108747787 3.513910352283339 -2.0712064018505556 -0.31969919460440427 1.0925722906663118
Ni 3.0633378961075115 8.33792310467502 3.5152756383134935 0.4039609300679623 -0.22596268688119145 -0.2752350507537582
Ni 3.499894441784117 4.296395793169363 9.191307450747662 -0.3940197596948505 0.11930972820662678 -0.08417560350765504
Ni 7.408098132069225 5.944734226817212 11.408114591795975 -0.4120552770403226 0.31159224922655365 0.013848732957634216
Ni 0.3747728260016587 9.357460406676063 0.546629563090522 -0.09242858754506662 -0.32933697480448443 -0.5718665649054215
Ni 4.56619369568005 0.41844839853527643 1.6339404603470855 0.3272363835217138 -0.021245539642337604 0.2735304093578257
Ni 6.172106861839138 5.741797314576369 0.3038349902452159 -0.18742724981015463 -0.49022195534973634 0.5797948186135627
Ni 8.181784358812626 8.821766712258114 11.555212391837992 -1.2301304235601653 -0.6610401358483002 -0.7072474876422981
Ni 0.06192676688500355 4.926591182433169 5.8858458551027635 -0.11633521895933513 -0.795149905182237 0.53892404854113
Ni 7.991948035999067 8.86361254800994 2.6577175730107383 0.10533321142187665 0.7446328702692917 -0.9659675714601685
P 8.558134325573258 1.7020173519024082 3.730191396353392 0.5501978216827363 0.025954515082232718 -1.647247174283795
P 1.7593720402381536 3.1813699516454923 1.429174716686541 -0.21792541839901175 -0.2654687153956138 0.6101724024641555
P 4.80039276085275 1.0503196130257526 8.099778471518624 -0.09026166180073486 -0.37703556643202807 2.338851813182514
P 8.390099121861903 1.7289880885325877 12.260080235475211 0.8039996422633829 -0.20942509423748445 0.6352578846778737
P 6.437160667003664 7.734381575310255 1.5589402648974702 0.30277156561113017 -0.09914610877455828 -2.2112147960571145
P 1.7504542236618774 3.105165624617557 6.1203473112131785 -0.44063540267086043 0.6129486796577122 -0.20279679028768946
P 6.762674552469077 4.045411314867305 6.09665489070713 0.8356182976099288 0.1804626455668634 0.37206793801410765
P 2.451439874661627 8.537048442521332 10.421135015876096 0.9428518113783116 0.17330006638015316 -0.8468933563031158
