# total energy = -381169.97107234696 ev
CRYSTAL
PRIMVEC
9.26831461261927 0.00000000000000 0.00000000000000
0.00000000000000 9.26831461261927 0.00000000000000
0.00000000000000 0.00000000000000 13.56511529116225
PRIMCOORD
 96 1
Ni 3.889661323114244 7.691041951252488 12.999545043032354 -0.0601149630140255 -0.34888610058100555 -1.951073663522001
Ni -0.2297142463948222 3.7355385224049615 1.4896127640144694 0.9061230884987105 -3.1004357094838477 0.6292530732446905
Ni 8.29002530812535 3.944715110847309 8.674918016243392 1.3696533934898734 0.6964403697244651 1.1512458932481204
Ni 7.636581335643146 5.983225260537757 7.647889606083063 -0.29212796985435496 0.2967582695375147 0.8643773720204919
Ni 6.302157228497774 7.95013768123192 9.346174762234714 1.3040871775532896 -1.0205950289970618 0.19391774263050474
Ni 2.893178496831333 0.1524887968747137 3.6702043203026173 0.2982736777407766 -0.6199677912880226 1.20931374392513
Ni 6.4100960183865405 2.4176583565228085 1.2294159582803748 1.4162965472697093 -0.7079478561434324 -0.967563969413011
Ni 4.887923665768324 3.6851466968317834 2.1862220573063023 -0.9671942447784181 0.9829026566526103 0.9843339897824983
Ni 5.675072342263523 1.6113706107231016 3.3858663359644297 0.21914540684904196 -0.40284841373007396 -0.29864211682378894
Ni 6.04664833620398 4.0733222419220585 7.163913982517153 0.9838825040673765 0.7760707770635988 0.5330894441372238
Ni 2.764367462839054 1.1714500661524059 12.744860103891671 0.9070934228317796 0.2813321647904316 0.6654701465951958
Ni 1.4965639998393514 7.499818087867202 10.880293972157295 0.9333047911198248 1.4941140697698203 0.5740401755179727
Ni 6.827615046972251 7.49867808519192 2.6563211605028623 -0.49788487121163283 0.33675974963111677 -0.34107380362543843
Ni 8.324401486357997 3.6904759776308595 6.222481236641533 0.907621784531424 0.3442192912329556 0.66061976048143
Ni 0.7716307376397324 2.2525896764679456 11.434442784791111 0.5588459842760375 1.338088731309715 -0.49181063999309493
Ni 4.414303529918601 1.576049064418268 10.539131025197863 -0.9520669022186766 -0.35357039343055235 0.5408199800122621
Ni 4.887673421278628 0.7396142722617696 5.488459465308742 -0.3494484008423788 -0.26003031798886184 0.6448645545297024
Ni 2.7022326828790426 1.291419128175435 8.187048773784104 0.6235100001133261 -0.5046198759426211 0.2565966097169645
Ni 5.601231681174411 7.770703113805634 6.756268489297105 -0.9312273397655059 0.604260922075727 -0.2891264640238698
Ni 6.223302409300312 2.012206673329094 12.161655125509848 -0.8915318209480969 1.276031299857338 0.43129278511369595
Ni 5.271029442863651 6.128858285226251 1.494129213637756 -0.9666733392779415 -0.5030103653636563 -0.3497353359551783
Ni 5.626311740030585 3.345472241170319 4.836329739813164 -1.3866393865249085 1.3077209176511349 0.4580903649225143
Ni 4.682426598155947 6.441793653748003 11.022944453261193 0.5976786408725191 1.759198919463454 -1.2474439751379485
Ni 3.006845105039803 5.47679529159459 0.08864864705899786 0.5272363277905565 1.5500874998116465 1.9931014300170125
P 0.11610417490439492 2.00224323531343 5.211052326503683 0.24672305935699446 1.1190286850856275 -0.09663414098598196
Ni 5.713165114583877 0.29402151925797015 0.5261668445286144 -1.78837425547583 -0.16514606981445107 0.4040951416529815
P 0.0385617490306718 7.01844037283691 7.281455672990132 1.05516685343466 3.852270239707901 1.4811030022221332
Ni 0.8849887109775774 4.604415195571906 11.221917554344056 -0.6318784266826795 0.9853102376528385 -0.5017530959177874
P 3.4552554256312877 5.726530023996516 3.041041477972449 0.3234895148847719 -0.22942287751565005 -1.196180806087598
P 4.0933047278399854 8.550696651558422 10.416950543351078 -1.0630267157987112 -0.42151590823259016 0.11034557703480352
P 8.963859572360539 7.406995918818945 2.505544221303956 0.7696214218938293 0.5740363188632307 -0.4756905945027808
Ni 4.3595926698195635 2.917906359739047 13.376885928550246 -0.6419466095519589 0.23050402639497075 0.1983860628145035
Ni 3.0761350237422267 2.8269656585207246 4.256746818711827 1.9408517286836768 0.015556202567044179 -0.012450567058526943
Ni 5.225651775398822 5.109111989716068 12.739488188846202 0.08012611602862975 -1.173647143761456 1.0476862287868989
Ni 6.39973404285025 5.421407844541931 9.367227738469674 0.23017055431495198 -1.205380984529627 2.1260740004227126
Ni 8.90847212530788 9.090705723692984 9.103291167861794 0.5965915784559274 -0.31284720467957733 0.07229119336524324
Ni 2.0922756417173014 8.292907753914065 8.580274623409016 0.2324351819794126 -1.0924020836370347 -1.111623393760492
Ni 0.6205859441537076 5.4612986698623205 6.178556840879827 0.256631576719958 -1.9242467731371442 0.08543955782174319
Ni 7.556521635569371 8.668079853854595 7.125483843551432 1.732897562564764 0.29401310269220976 0.018527369380226155
Ni 5.806061430147599 5.5395881218793575 3.746318498922188 -0.8673020018664547 -0.45050175394197894 -1.1282833709146762
Ni 7.809667107682706 3.8352285124482015 11.213534363939251 0.2055465851186847 -0.2527214430322744 -1.3566286990954313
Ni 1.1905613305136147 -0.1867778529516914 1.919111089005059 -1.9636702692400891 0.8969321660280617 0.30705785169130995
Ni 4.98380437857953 0.3553101021102326 8.632011281406447 -0.3405816944803683 -0.05681135256208925 -1.3636092441783225
Ni 6.981802725882566 8.760790803129654 4.592117069150524 -0.23194435838592312 0.3275243470757779 0.46235659639803595
Ni 7.13593479490628 1.791194447355581 5.537307189697352 0.3655049400846092 -1.3028612755659883 -0.6594403954613482
Ni 7.960944535861003 1.203110628256135 10.84011397542659 0.3697241203722794 0.8451514339113445 -1.0690356409969524
Ni 1.0718434909390642 4.061143676756865 4.452789278770921 -0.6323142286685175 -0.804331314571189 -0.9198394096435384
Ni 3.2527242186375274 5.095941714906525 5.06704496416677 0.29872464923526615 0.2042558913317192 0.6481838487109224
Ni 1.292837180283711 2.078669756129399 2.9901037486791573 -0.9386411157310738 -0.9276355086491894 -0.29323045888991434
Ni 7.753612341990857 4.187035191702694 4.082394068089251 1.0116211076332253 -0.2726197246180982 -1.5369303936043983
Ni 2.163020685785733 3.4480539453167105 9.279175970860173 -0.8130123872849546 0.08310576748224396 1.638460686340417
Ni 8.17723918978803 6.74660071051186 0.41993435132699514 1.52356939891646 -0.3164248947285067 1.39379193840929
Ni 8.448012995953265 2.231559871019069 13.134571408683522 1.620877426041015 -0.7608141080148446 0.884140156469716
Ni 1.2291082502411934 7.558477249914771 0.1228774590921599 0.6726311831200094 -1.695773661129273 -0.4054467705848695
Ni 1.4970922937620423 2.977297718626838 7.2018417788405955 -1.7880328129760108 1.3243958072036548 -1.6901804833122118
Ni 8.0553423183629 1.7617582807158143 3.13008217473197 0.2196861098438604 1.0357323988591323 1.1919222879215603
P 1.2264111707411391 1.8957503024762388 0.6867719043524602 -0.037196920765271424 -0.7219246300384986 0.45459469306442996
Ni 3.6047533374384155 1.4771098078441152 1.9541629273598866 0.4432563852334754 1.1982135202469104 -1.3512972595801889
P 3.3039965340818567 8.831962189662011 6.573369425935698 0.8028794126160108 -0.5306091009175312 0.7738187478046287
Ni 2.032216964190321 0.6313028961327889 10.382494657614302 0.5051991454848589 -0.5457914650849245 0.16172495994804406
P 5.8563605725764445 1.8862502801822334 7.363144742741258 -1.734033218831104 -0.45084859575843644 -0.6212188900863044
P 4.761503856899805 5.806459967668225 6.596376162853171 -0.16819616949468452 -1.538361983844602 -2.1291678088566877
P 0.033225980411492405 6.557591974276103 11.961677339142428 -0.14738437495565584 -1.3662199423282921 1.1122558851381683
Ni 4.6081503262884755 6.516829927398995 8.488859384491715 -1.0432765297549775 1.1848725801636304 1.0831332567405991
Ni 1.7284386903285467 7.1584011890923 3.581909722854967 1.6806139226696992 -0.180855767240224 -1.7527796462006715
Ni 9.018412871114212 7.0909185917043445 4.725041381088247 -2.5347549616741634 -0.2561674925993459 -0.34374903646475635
Ni 2.6083075844132377 5.161857967155272 7.4589142357792655 0.5968582018537527 0.08000913083479125 -0.10166707542419909
Ni 1.7407470118958046 3.709828218167331 13.205761331844746 -0.8196034102389111 -1.1182146738247645 0.1392640598413666
Ni 8.008889526423822 0.3095023848557039 1.4522271640853677 0.30207299688220884 -1.4152750479837304 -0.6007945607936814
Ni 3.183962593857795 8.480720877587943 1.2874254114861796 1.4800223675634445 -0.09816831824232125 1.1511340502606047
Ni 2.546209877710959 3.6761842367749025 1.9043791032135255 -0.19166468493026992 1.4397480934244302 0.06188002533424826
Ni 2.3157068977578734 1.259017100917052 5.823883471971152 0.5222139348753007 0.3374842865019672 -1.4994899893697529
Ni 0.7390906124962952 5.506148043404459 1.9998779614700837 1.6335197973953737 2.257285622273248 0.3592016235744008
Ni 0.4759761413786367 0.6856615602833658 7.05528377637167 -0.4262539371382078 -0.560714404943344 -0.14520202259235637
Ni 4.304937419607125 4.129803350077832 8.95899926827178 0.1594176519711061 0.3722494578972944 0.104462121670833
Ni 0.7647907215880486 9.43987093333402 12.469623604326863 -1.7035347931319307 -0.4780009878035123 0.3381944251951143
Ni 2.692306318121111 5.985764778692447 9.657371394968804 -0.8312132265636974 -0.5326623839021343 -0.027456039328423686
Ni 6.998874961068475 5.741303717202999 5.600140800565626 -0.6584371510078144 0.9294139407058509 -0.48061297150506266
Ni 6.175366687051927 7.409470558772602 13.329637915232803 -1.2331154743304182 0.6185153751122122 0.26384660641115854
Ni 8.196063136401811 8.189427023267656 11.154105931793726 -0.004250290635921712 -0.8221277193226615 0.20422220988030637
Ni 0.19983505432514964 6.049104439528771 9.445756312999087 -0.5995010387932386 0.5407765283688365 -0.7417632620309805
Ni 6.309191879152554 2.78679678376734 9.52560006134657 0.19475257982697428 -0.5239550859361235 -0.22915291168371502
Ni 1.7248611209573408 7.506630298975585 5.825769573958304 1.0589126936303375 1.210533218154528 1.595126028108524
Ni 4.565868275844327 7.434921350206103 4.6371397601725635 -0.6307993346858878 0.33624372922664675 -0.6479995006142583
Ni 3.162200591568698 4.755349696116175 11.561859864292641 0.29788261294994506 -1.3042031343058638 -0.7395225456259199
Ni 4.030345067895421 2.934737618749694 6.851305785494891 -1.1907547499760203 -0.08864418080196992 -0.73291249650857
Ni 7.199821286294163 5.991659426671947 12.011312870257859 0.7767518622910236 0.058554817615757225 -2.689858559650948
Ni 6.008231172878466 8.970477148865825 11.478597034750761 -1.2966469192251602 -0.09427798204897957 -0.17914829763081405
P 4.95544333641401 9.048534893022033 2.660499316649338 -0.11427113734145482 -1.447079594088837 0.19709794013069926
Ni 7.603539794688873 4.212893788971255 -0.14664883195036954 -1.759566587215518 1.8388974610363622 0.6317580990547313
P 7.0811497882917775 4.314215002354734 2.0000809375561706 -1.5023724531238707 1.0668417186694272 0.8724460079612394
Ni 7.825840316368598 1.9379767430337884 7.843607675136996 1.4652781193747346 -1.7060436755967134 0.4591077504434351
P 4.9575101705326095 3.613660187608698 10.936345030523372 0.16340980384963472 0.8743751066631522 1.896471917016721
P 7.544065020971183 9.62579332086353 12.887334487021338 0.2715306053189775 -1.4578473741283022 -0.15500486761539112
P 0.3721358001322202 2.007294466679511 9.306170863478242 0.02348779870929503 -0.10284206956890675 -0.7603623651894066
Ni 0.38237728758087963 9.391304965704178 4.254060861189092 -0.06094131557006279 -0.6479655620525293 -0.0374422040068581
