# total energy = -381165.20773946564 ev
CRYSTAL
PRIMVEC
9.33130520561779 0.00000000000000 0.00000000000000
0.00000000000000 9.33130520561779 0.00000000000000
0.00000000000000 0.00000000000000 13.65730839121104
PRIMCOORD
 96 1
Ni 1.2459345118409295 6.787451318100497 11.747784586157438 2.663462586155923 -0.5179983541320562 -0.5050628770173108
Ni 3.1255859430109063 8.87997781119755 7.788940163665169 0.7647499527341409 0.9700229724764649 -0.3086992439494748
Ni 4.923000582844219 5.54371899424952 6.050310879336533 -1.6278248038931256 0.7254938354469957 0.06611386090993776
Ni 3.09664956607513 4.418970140991282 7.7716501885525275 4.120129823933194 -0.9083892588250678 0.2756690529673833
Ni 0.03013078398117435 8.202609046881221 1.2689651058155151 0.26415359612861605 1.1383171010015942 -0.8353401042478775
Ni 0.725821565747809 1.011672098757194 5.4683724385559955 0.0709508772872649 0.827845081422413 -2.577542746263651
Ni 7.345192751776177 1.7044281850880656 6.207232636839232 2.058320289916507 0.29057913730999635 -0.5307116879336666
Ni 1.1191407389278925 0.04436942234502506 3.2020653191365507 0.660265719576121 -0.9483657992180053 -0.042680569587661976
Ni 9.172001002492333 3.000705087631515 9.798408710581846 1.7275848921025991 0.7199626212161213 0.5954662066022326
Ni 8.184683609895208 0.9316440273240117 3.4381454704425014 -0.2153967384398871 -2.365523151826113 0.3260660173626965
Ni 7.414235077783211 8.363378101452808 8.759224192038312 0.9003008253899786 0.025742913292058894 -0.10808557735603322
Ni 4.145264301494285 8.539450496293556 0.6013298257886757 0.7211820954455194 0.09178401198253225 -0.4156597065621293
Ni 4.611801559687772 0.7977995203211092 2.19106880686441 -0.7253938195340216 -0.8786449376830996 1.2452824487102554
Ni 8.736966230121219 6.423679722336453 7.9150387543525635 -0.17515974529671124 2.7185633837848084 0.02307822197570219
Ni 8.482772149467403 2.9400049483321835 4.230624280628564 -2.742579287083432 0.512473053438453 -0.6080129329189916
Ni 1.1328204321197168 9.24904958822555 12.716060517685507 0.9428122163896278 -0.4056426886457595 -1.6980681135904048
Ni 8.674091896747061 7.099266207389726 12.793333054739735 -1.7574857934270893 0.786058227293614 -0.3127919259616097
Ni 4.901510587332096 4.197006387953129 9.658625761050105 0.46697866855107967 -2.2691612906649112 -2.1500389958787425
Ni 0.523224936324685 4.320972775438388 5.309879289284195 0.9440118931246839 1.1802520506724834 0.44446608927086034
Ni 8.348522663825669 0.9229173908485722 10.84510492968433 0.35407767208427404 -0.7215132535326929 0.31980409561338474
Ni 0.49448078427277753 5.48031277648796 9.933547469594098 0.6837113521935709 0.5279204983417747 -1.5540580544236204
Ni 4.1220106893291915 6.39776668823434 13.187441656326387 0.6622948341910078 -2.109405024407464 -0.2722728828016408
Ni 3.728826820072219 6.870089355553975 8.63901178857152 -0.035063419362036385 -0.8493629008895308 0.7959119801592421
Ni 3.5393546711909103 0.9160551491205586 11.873746006660715 0.9635905865875598 -1.1936786084910347 0.548525833296952
P 3.127956094491618 8.350790170950917 2.671137390499552 -0.6512609449743494 0.9173608661960588 0.3725194237292294
Ni 2.607269273138404 1.5318923548582997 6.97803762480384 -0.08024053011930697 1.7191696714557103 0.02914473988475626
P 2.9733923577730765 8.051619199993832 12.554083992241463 -1.809713383273238 0.7825260457706394 -0.23489701325634385
Ni 2.201852062971144 0.5612472049800246 0.9758846776594549 0.6282421154816729 -0.6801598873968867 1.993353655237135
P 6.4676488316951675 5.806507206847176 13.31479624067246 0.39881332442875184 -0.05435980569780316 0.3251838718680593
P 1.9761931131362915 3.0259462677705904 9.111691844874269 -0.14589879154906488 -0.25267593450631964 -0.30824518713119176
P 9.026833889951257 9.331958233525251 6.884212285735303 -1.5190445144629128 -0.3494653701232433 2.237048726401083
Ni 4.403517499841445 4.408509748039007 1.246091277765638 1.3197120285747401 -0.4581641555832432 0.049720250043262755
Ni 4.083808326486538 3.1254086482151053 5.735427856949437 0.38347643696136535 -0.40081801356360647 0.3105666361755168
Ni 6.3281178273995655 6.317125550059886 2.472833161395828 -1.0727755676553588 -0.027133108771366175 -0.934040897954901
Ni 4.739789739646207 4.911859004623865 3.7465133756491524 1.2129788514815434 0.5744489809206171 -0.5594175405087913
Ni 3.9853910522067464 3.270174514639366 11.988849520616917 0.2568053832936609 0.5064476731799793 -1.2267411953729583
Ni 0.9692333234253945 2.534391780759038 2.9986531336527404 0.8330358815947331 -0.3438271980008595 -0.9205937713110597
Ni 7.0281896568835 3.5427232723111346 13.379477114702778 -2.8705397489865208 2.4166045438829604 3.6042202340093663
Ni 7.367074662100071 3.0868610270858916 11.39907185047045 -1.5544342068161163 -0.7850554970607124 -4.307850950834684
Ni 6.921663478522061 8.251971650554312 11.065533683043045 -0.9634545752303277 -0.08372874577822355 0.8704186931185655
Ni 1.4638111532706106 7.431386016450723 8.044482617897577 -0.9167898241839373 -0.3142376572692008 0.4957313152037398
Ni 5.839120117969569 6.012458440432962 8.384262495267693 -0.23986849832900622 0.39612009386730485 -0.0040962815565606875
Ni 6.020492694074272 1.0826739988230831 13.09092610201419 1.3679556940724762 -0.7096836078876165 -0.870121730703437
Ni 4.416068105123166 2.368798441480649 0.3809402639111377 -0.665018660880074 -1.266210200001858 0.37683836281955746
Ni 7.035943971373546 6.059982777012745 6.427921733608624 1.187181430802465 -0.10868310173071606 -1.0231023687999474
Ni 5.142276920030225 9.031247597236206 8.990059216780057 0.34293631075547387 -0.46020021217666546 0.7834413584960572
Ni 5.561840388641419 5.260317928813706 11.387095120448823 1.3120406280724115 0.9925928873571809 1.980861179197079
Ni 1.5467104672652694 4.036209339466417 11.417933217352195 -0.6660884969054852 -1.1762002492006132 -1.1735116466248565
Ni 2.186464740956602 8.82855298911014 10.167155758194376 1.1193181913015884 -1.4224813359241826 0.8174403411493213
Ni 4.064903102471097 7.502686518277962 4.455518996580462 0.06390785439755446 -0.4189646025656462 0.4666747641574156
Ni 0.9710995844338288 0.6403374802564685 8.649241698289252 -0.4163328213697539 -1.264688878261325 0.47797759076474455
Ni 1.4566167170830957 6.443415432500647 0.3808189569455894 0.09346731322222614 0.2672844284481139 1.0661542056840994
Ni 9.0840627837749 7.852283861682946 10.368409612821932 0.5015900879773619 0.20024419906916482 -0.7699073285653644
Ni 1.971023570142928 8.350211630038302 5.606161288200225 0.21558571452224162 0.27303161534453624 1.382336902494813
Ni 2.801873639792907 4.953327324231279 4.826615666802613 -0.11665814951639265 -0.5479506775197724 1.5808903441251163
Ni 1.6799988284876584 6.821837177180902 4.007163786261647 -1.2474234063126581 -0.23704645549917885 -1.9628593433030193
P 4.85603913786159 7.905024397781304 6.8551079453087675 -1.0526818822292774 -1.475508024632859 -0.0865091367368381
Ni 7.861073951032673 5.43929235952257 4.077730847512571 0.7108915121527886 -0.4669928096184667 0.2630001992504632
P 2.5229329381672505 2.7064703770417378 1.4831017601842933 0.5420006305839247 0.724790381622068 -0.6861937522957925
Ni 8.850042984622261 7.68614930671211 5.519068485719613 0.27244848914755654 -0.5901530219194352 1.249660523173293
P 5.590543482951141 1.9434588950483511 10.924276387314642 -0.9903588558203394 -0.28217780062017855 -0.242627292021066
P 6.575257441441499 9.014609880346011 2.4324622032613736 0.05319149642131484 -0.5387034478898916 0.646191500871242
P 1.5572175167427553 6.179806065059279 6.195324025344411 0.13816002814391046 1.8379430675428927 -1.5225509849542747
Ni 3.8429860059581546 6.432628443871895 1.7672829227216338 -0.6931971801968191 2.0689746843065593 1.969262932836518
Ni 5.534079756140956 1.5279452128254607 7.394434981614225 -2.6166926769902354 -0.34023845220833665 0.4179531305819963
Ni 5.896460987453718 1.809368041592335 4.3811139695656935 -0.5337599878416872 0.16684556900406106 -0.30123815968573925
Ni 3.307779673959321 5.2826104165594545 10.734684797728791 -0.9333736966845474 1.4505228154424308 0.0696252164973059
Ni 6.534955534964356 7.926729013309398 0.4344580977195085 0.46904146461737933 0.39693539067974865 0.018016234071762522
Ni 6.532557389568519 1.9373562215507703 2.0054252924419047 0.8761468538515943 1.8048750813443304 -0.9186729001392631
Ni 6.470653511918748 7.4937751219626865 4.491137521056938 -0.8822856197594805 0.6687279914108611 0.763772162201904
Ni 6.653388458559608 8.874500335137794 6.610984209056464 1.0648069476275854 -0.5415943962844415 -0.5952075536242071
Ni 3.267179165720829 0.7732022002299429 4.5623335122677044 0.21350234963065165 0.04826500565397494 -0.21271970582835623
Ni 0.11385311908055265 2.2401664014743035 7.416573502826779 -0.4814002432930483 2.2374179368150435 -0.5391865581738973
Ni 9.088205883213625 1.2777076055095262 1.3158287859983129 0.1621929007233981 -0.6047543167723778 -0.08915634455169807
Ni 8.297359118279438 6.147127834801592 1.2033165754523203 -1.7396505650178813 -0.21586313655334438 -1.6682628573035139
Ni 1.5448348749517926 1.665833907433641 10.887278695952931 -0.18627565270421467 0.07755578419829223 -0.38697390859166264
Ni 7.442704889466878 5.8290982963542755 9.950550973641944 0.13255450903167496 0.9074176389404179 0.8946035178948851
Ni 3.771732160656127 1.7147579397697503 9.412998751555508 -0.007473682669225838 0.19410389049938184 0.11031086714212614
Ni 1.1026803168335004 4.856328408317897 7.636196964560354 -2.907003905350826 -1.0082601615807927 1.3891873497577432
Ni 7.358900438883129 2.169407115339511 8.88721983704078 -1.8317243403266905 -0.9617208803686726 -0.2697457455044128
Ni 2.3555759822358904 4.445555029056431 13.349608540393291 1.292567092728832 0.5048191364376209 2.2169344721497106
Ni 1.6117216694940835 2.2307417833817094 13.227963781602524 1.2686818014708021 0.8542706226037932 -0.5151783681847579
Ni 8.71133313517037 4.83206701520825 11.751184913714807 -0.39970729699793095 0.6283950961197693 1.6383948660994883
Ni 8.77919971674209 2.368266557093245 12.981517483525224 0.8026896652027079 -1.2977378382964941 -1.1041689943649757
Ni 4.373498691520777 7.5238312555035245 11.16478144347159 0.9420871652981453 0.3788160553712186 -2.3766642560445974
Ni 2.26880417664873 4.755895572148997 2.5153073956867877 0.12186849007273849 -0.38195357255893575 -0.7351550126858436
Ni 8.14620130790129 4.397358838513611 8.24491718394243 -0.877999847899933 -1.6555536372669617 -0.17081226696129292
Ni 8.433652159725407 7.704895898541835 3.3372861936331737 0.36590963172219565 -0.02383489763606863 -1.5480943806410177
P 7.910912451262916 3.7949951041262624 6.0883872695611165 -0.21619686574367927 1.0197313954451859 0.794895880189902
Ni 8.696888274965087 3.6556320633214194 1.456647510389735 -0.47397412603230626 0.34601160724668795 0.76441596643349
P 1.9826783701406012 2.7167534751982116 4.820947832119997 1.828481922129993 0.22844662964530976 1.4797783698734388
Ni 6.0799797637181205 3.820273609485507 7.261864197749579 -0.6972448679036314 -0.22700578343372516 -0.0017331806410228214
P 0.3126957644852106 5.506524412351421 2.470252122421163 1.3980543132300696 -0.023189550742585868 1.9398510553333046
P 6.562025650891699 4.0567662044743225 2.9208477790806042 0.139596760590437 -0.9345484337189389 -0.3880062065109188
P 8.456719145789657 0.04553210295327973 13.023349724029282 -2.9437112880741885 -0.02564881091635583 0.3208027120812282
Ni 3.758435050971032 2.803012059008052 3.3100397160405346 -0.32134084397288526 0.019147262352412184 -0.23429563222691907
