# total energy = -340868.5427914351 ev
CRYSTAL
PRIMVEC
9.30531923948848 0.00000000000000 0.00000000000000
0.00000000000000 9.30531923948848 0.00000000000000
0.00000000000000 0.00000000000000 13.61927530307367
PRIMCOORD
 96 1
Ni 5.7248557402156415 0.015143476573779525 5.440546598548371 -0.6855604895871676 -0.0510911622488604 -1.9078940428107334
Ni 8.423714708262569 0.44842705756486717 9.933477634838077 -0.1749486577271697 -0.2311941104834599 -0.35856244732850506
Ni 1.9506275511727498 3.236473788650413 7.097113033462895 -0.2675140279604167 0.4772983053095328 0.20720520376803025
Ni 8.558837249326753 8.521802078647362 0.7057303016578328 0.6546108352831888 -0.31665423713049334 -1.2294673360548696
Ni 0.5719644761426581 7.218945717551122 6.061285836156633 -1.0219836818144723 -0.3782049041497809 -0.9240557617177312
Ni 6.547939145266962 7.891310866448144 9.306077649699084 0.3351234995792745 2.0175130260921574 0.33199678102483465
Ni 0.8737331883490596 4.673726875908074 1.4520327258481323 -0.7581185634605524 0.7849703935460739 0.3027746509349237
Ni 5.906374603140993 6.9710054857037855 6.782848208013942 -0.5744258409921656 1.2972043343905273 -0.5986376623516787
Ni 3.865141158273459 8.211609260909288 1.6734686168296116 1.831577016115549 1.3616469782456293 1.0734425118153965
Ni 3.8593346390513634 1.4163068135894918 6.154196657433649 1.61146178915407 -3.1748542336047385 0.12209808958504133
Ni 3.7477545557306127 6.6265783983854405 10.329920526322434 -1.802367741541444 -0.0023029371015637757 -1.3265755884637929
Ni 1.0428192142028696 3.329554897270001 10.494754951803525 -0.02733596881079163 0.4227248409390268 0.3939907062291279
Ni 6.649004217816931 8.983606463189288 11.510970258224392 -1.2530824043706483 0.4382141948238776 0.30517631839788084
Ni 8.09573012008756 6.5879147968344665 7.622354571038143 0.6376706078844244 -0.17210836006489713 -0.2756140313597318
Ni 8.98564432810858 4.472369072307229 6.521998706748636 -0.5855723445272882 1.9418444316142494 -0.8650018929783684
Ni 4.684604794130237 5.621557391041789 4.726828610832451 0.24365033396894167 0.970731054287083 -0.302633240261053
Ni 4.892094803127494 3.2121403787693557 10.76752177545303 0.28321549785607353 -1.0171114413238354 0.2745385389073659
Ni 2.1045282265160825 6.678101951162272 4.005551912276612 0.09780682113784445 0.8086278850640138 -2.362539900828073
Ni 6.677273777747582 1.8551642808210205 12.818270839802159 -2.3525971877930645 -0.6831788767288686 -0.30440704433202415
Ni 8.061328354760498 7.809870712230547 3.5430682394282553 0.3128947700880611 1.1165154317454706 0.9172855328734331
Ni 4.431890933499351 3.2114983117399896 3.289599717404882 -0.5107020775809591 0.8039973282705379 0.4299126169367177
Ni 7.857727969216505 8.722676005646365 5.9340681638090675 0.7111902743401299 -0.9737436158611616 -0.12249223969966644
Ni -0.024541849032620203 5.33526993849853 3.7676772442795015 -0.28068064724936176 -0.5077656206604546 0.8312469080151105
Ni 8.419006216713882 3.0454728053928255 0.09305040106600905 0.8152420479464217 2.8418297826463377 1.590887564547144
P 8.30962218873995 3.8966768852665394 2.150510461669905 -1.7677897464562586 0.3860195150981932 0.3404767934713878
P 1.785234806535686 1.0829716668364315 6.652525350627253 -0.3763619374037712 -1.6558328590702773 0.8224840742208157
P 2.482175303614686 6.445608549296793 5.992862893060493 0.7846569760707133 0.5113119432508162 1.0953269705933135
P 2.4358999509039787 7.632976592980486 11.771548044167124 -0.1491576648059947 0.5651809253551299 1.0242801911581325
P 4.711320365743436 5.218143884895135 0.9992191407811885 1.534818746578034 -1.0238593015706303 -0.08806002616372577
P 4.700842576249719 7.87636652370666 3.447610552268086 1.2541319286810853 -0.8909996025937106 3.042890049858895
P 6.330790214871412 4.575686032119613 11.63376232072896 -0.4615343576070568 -0.6649934640690934 1.1662739912258366
P 8.677917419976044 1.4778149739389344 12.458136373562501 1.135425638386412 -2.719009213072975 -2.2312691436048278
Ni 1.7699275563428216 6.119280307951165 8.073669999703231 -0.8346309939959949 -0.1000249118350858 0.8893993479861263
Ni 6.213571108075357 2.698347175487288 1.7521060088842362 0.704148022781368 0.02536881778209179 -0.1920763185463918
Ni 6.347483957634937 5.725302395540418 8.997451847725435 -1.4055634771229213 -2.103939373307202 0.17086008948009285
Ni 4.25937961962366 1.2289814314420444 0.6085585746888332 -0.7787601509703039 0.840947680242642 2.2149758057614433
Ni 4.209931153043185 2.7242066577279993 7.811280468099373 0.3051781181700937 0.16550293893323756 1.2045775147917255
Ni 6.4745015656182785 0.07053990322919569 0.7769085497886885 -1.2855621221659086 -0.16495529395988365 0.2124191438688019
Ni 3.1385259980546145 9.216388329952018 7.987868442345575 -1.6822722842087285 -0.5365128679964761 -1.3077620553017155
Ni 6.398467801894331 7.08474440309429 2.021100456103229 -4.144739909172391 1.6875170775474357 -0.6302601743529661
Ni 5.612708032419653 6.480038230581655 11.290910623962379 2.332584235006247 0.4071041036826344 0.7097872233450163
Ni 1.2922482971327947 1.411942618853654 8.944799559721615 -0.359150201511175 0.3462682033421843 -1.3828778625999476
Ni 3.4448664136164893 5.235703022350415 12.708363852885464 -0.2430065297373557 0.9723631905738672 -1.6575812092199518
Ni 3.5589961544161737 4.341229207888969 9.354235468497338 -1.2851844271115156 0.8488929032316477 0.09111912470502372
Ni 8.063868706920164 3.0120294879501786 4.134444542092089 -0.6440122338317359 0.06409014561168963 -0.5041987292448026
Ni 9.126219786262745 1.46428503972591 5.748301422638705 -0.9032077146241283 -1.582691916110229 0.8015187848230584
Ni 2.8816247437539473 3.7234211458495547 0.8072569180434043 1.3217061761866333 -1.3833823130401917 2.0027968029279055
Ni 0.7310202983594538 9.036218738320262 2.432075464685579 1.7664538012536544 -0.4898105788439307 0.6468067658577377
Ni 1.1123392544404922 0.8682337446627479 11.240669344180427 0.08201433419027811 -0.24628880003305326 1.1965196774842555
Ni 0.9312670468399171 6.677171419235655 13.185937031455857 0.1428762026726572 -0.1565058776409498 1.5217945664042243
Ni 2.7608975315945425 2.3787187640133096 12.482460478124294 0.012589406629236383 -0.1355506155455214 -1.1970241279244997
Ni 0.3350017294336328 8.714161638517812 7.875127985712332 -0.6148073301330058 0.23992300571602548 -0.2967191887694632
Ni 4.947191598502539 3.4479278636550625 13.188674656383968 0.4310022504564706 0.08301295065812156 0.22005557736813713
Ni 1.7619901190087712 8.276048596827577 9.741554494441209 -0.62638475055796 -0.6076095268329859 0.8962395108364113
Ni 8.599827180694271 5.255867649200225 9.820355660114918 -0.0014308189092556002 0.21097726921595278 -1.7136518269612744
Ni 6.270957011989882 4.758535555700028 6.489734373257013 0.6473161013939883 -1.6000062390189607 -0.015859078519443657
P 5.888499084830663 3.666333012151547 8.570922997989666 0.19931757348983736 1.1565919880513822 0.2787371503697458
P 7.440412316086181 0.5364032680350289 7.721393875583865 1.2181100020605216 1.0461201698513596 0.932083260007898
P 2.8909858949357234 2.0078831806175486 10.16515496020391 1.037265547674207 0.28554131777577274 0.8980757927142018
P 7.218257123925425 0.9016044806151187 4.028799391399307 -0.7670156088398661 -0.7549669052054482 1.333152470350362
P 1.3078719281807092 4.103636491065624 13.045413683089583 -0.4154355063664652 0.4518790939054798 -2.6024215117832017
P 4.7374217862850685 0.5686461992923387 12.387303352776422 0.8083165244711822 -0.07658570697553907 -1.8198214182415173
P 8.721494230099559 7.381816720667052 9.55558303624699 0.975114013846127 1.4787041629726532 0.44513868985785277
P 4.435854999506742 7.349769201114332 8.40694745347684 -0.04245688361263011 -0.232080112632839 -0.0931163576407106
Ni 0.864047281524894 2.531242252105248 2.7054415508958227 0.344160155860246 0.5133243456951547 0.7138228268669706
Ni 1.4979702954694778 5.784232982453128 11.143672557213632 -0.2966094026644763 -0.9571733702073065 -1.0863857022396257
Ni 4.226476010698452 9.185773829566289 9.918060581877869 0.7740601743914735 0.4912511679451991 2.2061306966659875
Ni 6.689333471516551 2.1972743436420874 6.009300739544198 -0.36134335250775185 -0.23201634927443915 0.9928463981288835
Ni 6.336680481966903 1.7736869053263582 9.35186633421217 0.018323480899536185 -1.4204833316575471 -0.08140472563073722
Ni 8.228154118564554 1.167110363641221 2.2511437674059236 -0.8617975271084577 0.21869700645771367 -1.076340659298798
Ni 8.036324961892277 3.1616124951540043 8.142297659823228 -1.412257087093013 -1.5377606028151773 0.7117129796128194
Ni 7.776790302239281 3.145933032190493 11.006090620267397 0.2930584520884243 -2.3796901873551146 -1.269481671664278
Ni 2.682835208270568 4.455907962525358 4.983006841826135 -0.6326610704849749 -1.2058448115399234 0.8350665388715167
Ni 6.722925674067456 4.898850464914739 0.440386331186962 0.9826185497532883 0.5258250492653267 -0.2876074562761821
Ni 8.336923995466918 6.401036070011796 1.7127733548780246 2.4607105330632395 -2.3530795267461215 -0.972984369097634
Ni 0.8389229195062111 1.315827976153292 0.5084575332148404 0.28246293596076516 -0.04455387535097488 -0.5978668456239251
Ni 2.9287189645600793 6.232163135969182 1.2504943990535236 0.35151016846741395 -0.6469777442179633 -0.2387680661759759
Ni 8.671943405007157 7.767894417020813 11.763457999597108 0.15172722530538385 -0.2900240361374747 -0.41503904225899485
Ni 4.69623644321296 7.730942994214817 13.074300185687584 -0.6361153475821625 0.4460547739142189 -0.1120795290067747
Ni 5.412131875637168 -0.04835974422633169 7.711696802376579 -0.2112474921582039 0.6706066964908128 -0.3018097159184931
Ni 3.8342940249060757 5.306051236002728 7.060191387678551 1.312957997680358 -0.4970034970479441 0.9401858345103744
Ni 4.912901497006669 0.777652044798056 3.149171283295123 -0.04860464838158081 0.08074600900081577 -0.39052871582245646
Ni 2.3966687248777685 8.68900936054133 0.25465308916595797 -2.213656058508755 0.3029453721848331 -2.3987369195739205
Ni 1.4746790813462318 9.117993884031442 4.775707591873835 -0.812737279246697 -0.5308075900815826 0.2882083230849746
Ni 6.499886476576415 5.145348372275818 3.3042537341852602 0.9747386327845794 -0.7751577783310263 -0.1403043281804229
Ni 3.5881311090385797 8.32620426767228 5.481554210022495 0.40995802819166166 -0.9829278534635911 -0.346889381865951
Ni 2.386953971563878 1.9666978375454407 4.677281507867755 -1.1002503760368598 1.0347625787466954 -2.503483919475024
Ni 8.400711959036574 5.028901606978856 11.93728136348933 1.329819292212071 1.8257948622161329 3.4825396915777183
P 2.660111618622559 4.676937211054905 2.9281718117872275 -0.15774823468848315 -0.3572409003036041 -1.256090852179669
P 6.894785615594515 7.334517782837064 13.169649000612338 0.7462716914242953 0.008607796273669047 0.8245581831410251
P 7.8563135606880445 6.386919900685003 5.307880661770458 -0.40925431725641775 -0.0648283093292948 -0.06280767935484022
P 2.4837385972514046 1.1894152139222518 2.1312940468533195 1.0477839307070276 -0.4506483068221723 0.12444267855781793
P 0.5139681432842715 4.189636251723649 8.506272431324035 2.286334202899772 0.10098393331424546 0.4860045748342791
P 1.132513186609568 6.954097720597138 1.8092657935405931 -2.4395614097894502 2.0744110248307823 0.8238470160066135
P 0.6271524636465119 3.234938410971494 5.217516706376596 1.8034992840427264 1.4322556417021268 -2.6623464702736084
P 4.677821216385193 3.1728067942312177 5.528172929014125 0.8797337998719043 2.577332430025058 -0.8561755529359899
