# total energy = -381169.69667193573 ev
CRYSTAL
PRIMVEC
9.22130294237607 0.00000000000000 0.00000000000000
0.00000000000000 9.22130294237607 0.00000000000000
0.00000000000000 0.00000000000000 13.49630895975081
PRIMCOORD
 96 1
Ni 2.236848319758609 2.802934880979767 3.133087031506953 2.2785872119645014 -1.0941177807765607 -0.5652914827910651
Ni 5.511628046738888 -0.20581947981651846 5.615449773499919 0.6906965252621524 1.5521451536716235 0.9959723453523749
Ni 2.023190732511802 5.013345725441156 2.8330774757657995 -0.5468456173810518 -0.09522543356391341 -1.8544366943225417
Ni 0.8437768755219933 4.185217400871162 4.834849888126623 1.2489385574056038 -0.2235355654969376 -0.009257771152842119
Ni 8.278295543573568 5.190108879948451 3.591961192905766 -0.3415306886571989 0.3281792070509574 -0.13635459950405548
Ni 4.9164759389056485 4.297117911067105 6.652424931615094 -0.14950682061529735 -0.1075019369384213 -1.0126505773390042
Ni 7.08190526802004 6.97658876806554 -0.2155903723260876 1.1005252269648014 0.27912898649152573 1.5192867123807061
Ni 8.23982426804514 5.4153392022835085 1.2883063781930928 -0.25947290282349506 -0.8072258625101646 -0.8588633841807982
Ni 4.761825468654625 1.3414044843167252 1.364436532468057 0.1716890131392914 -0.8307807670119691 0.5065250633851341
Ni 8.554501228114077 5.639619730424071 10.371143997883488 -0.3756068044053015 0.9166730961004149 0.9520273072299926
Ni 3.915143882731996 5.398869955377044 4.630408070957264 -0.10385534132476952 -0.4268946560460003 -0.6214001528591749
Ni 3.3247223032655064 3.979582347111827 8.160799546802684 0.6957554278422986 0.21888186877501015 0.31131328453355417
Ni 2.820058840389233 4.640436237816603 10.450934087263253 0.8646987599156527 -0.6796852617533132 1.169673503825689
Ni 0.2589793686693073 2.973528983874283 2.2550982002471787 -2.4869231869028656 0.43956145288039133 -0.18071512789730168
Ni 6.86728866527588 0.8853409760293847 9.396737223928305 -0.9128501228098989 0.21802260609850838 0.7554309893260602
Ni -0.07978732298890799 7.833607434493291 1.3193480500078933 0.3396843794770795 -1.2899111431632238 0.16149793153890252
Ni 9.19125985444786 0.814121165526925 10.342167897909139 0.7830991446652901 1.2158052651867448 0.31223528212719126
Ni 5.135555652233643 8.952031594372595 8.008250611473265 -0.4621732767426363 -0.1491656352257947 -0.5197377054206661
Ni 1.5982823180644294 1.6813846994312065 12.245943680525064 -1.6462333883073004 1.011800056413251 -1.4024650407032555
Ni 5.859547803615109 7.071171671491975 11.467273813840192 0.34848269449499986 -0.16969178020360454 1.401436342328425
Ni 6.036965670625406 4.518641269652779 4.191508173681683 0.30320042561843263 0.4186948938440273 -0.1283553833486628
Ni 5.8107302262787 9.375944108111177 13.231673292261014 -0.026778039424792597 -1.5220341932188561 -1.1342421596012724
Ni 8.689593315000815 3.3694917286467425 6.4377391690994905 -0.5524040853054358 -0.7587803654142674 -0.1942733261977106
Ni 4.87415938008495 6.271094550219554 9.707678634208994 -2.2253170397864515 -0.7168238184768235 -1.813584693303186
P 7.87294551249048 7.894744672449541 11.181934428817682 1.2660384503106843 0.4109335047310536 1.416492208220283
Ni 3.7647628757047658 3.368634147480841 1.2709583411241494 -0.36371288118119294 0.22753903022937585 -0.882504420638506
P 0.9918986633487288 5.914082588724199 0.7748974316851892 0.9328059971065354 0.08593166696681329 0.7794623192436512
Ni 1.5942157235035386 6.150553679244576 9.296068260614822 -0.8505234968565353 -0.26331670204961743 -0.9956499290159497
P 2.6212014442313825 1.6789963819906832 0.6239373268384034 -0.4774044918700939 0.02116789232686677 -0.17881765376427267
P 6.395148737583875 7.224586487159869 7.277844121822965 -0.45942373902195716 -0.4573288041661414 -0.9343147204415779
P 4.218995033244276 6.896815277030919 12.96420294791899 1.3397203533758668 1.3554246514850012 0.0012678109688300746
Ni 3.7704616408717286 7.510382326673908 5.627772200510618 0.4272031884253546 -0.7946426265285154 -0.6398321343121174
Ni 6.772170926283613 3.0117512842255136 7.9092147408961395 -0.6160764266534164 -1.4468492232455856 0.021063248428202435
Ni 1.6907996496504119 6.300879358454651 4.656712759493312 0.021554072021691913 0.34127177856885743 0.40521357152814086
Ni 8.314793460290135 6.236699090554877 8.123657983146549 1.335337650927139 0.4746523830462535 -0.3428308955258612
Ni 5.049225814866159 3.2917008177268436 9.863196829059065 -0.6298865930636313 -0.4181045685581961 -0.12633912424958244
Ni 1.6000528082133887 3.7460436309006644 13.813201847250127 -0.8691768502916644 -0.17133574356493073 0.04095381670454237
Ni 2.33301728727682 7.66636988583951 0.25356093110926314 -1.5342698160530996 -0.9150023932662112 0.8788922778072153
Ni 6.895524294630636 3.3032551102093746 2.063315387642878 -0.006977973979729918 0.21969922246998289 0.3366975289346137
Ni 1.8960013021753663 2.526351123022032 7.044331225259808 -1.4317329364294373 0.42561373245104767 -1.509181248515588
Ni 8.428722657115093 2.7380537940626963 13.29507897072062 1.048714155830781 -0.09663928319230454 0.291504220227427
Ni 0.16828785504943908 8.018549884636665 9.29604151883653 0.196217594408275 -0.10098007665950351 0.8211933804338502
Ni 4.637144232695882 8.045614408528307 1.3636269020770224 0.5472662498582381 -0.18595323636778943 -1.4686321234486321
Ni 6.3093445144793625 2.531736363891783 5.384379600064155 0.1543924308423728 -0.47768782743846766 0.5091907831427553
Ni 5.128999305900779 7.9065848253207065 3.6224495865490165 -0.8253194867870818 0.006390219797059962 0.20472948853402803
Ni 0.46684597772056 0.688712368772594 0.47960180596564017 -0.049299617566076384 0.6495786721759199 0.2119717719187382
Ni 7.029325399117092 5.041083404441518 6.688473770882421 -0.45910080846489965 0.1475995762902555 -0.47700571376977857
Ni 7.1601111375686015 8.442831250489613 2.450470866054551 0.34107251807385774 -0.8941229787140407 0.2856223075253532
Ni 7.3099388664242815 3.021286111381888 10.679683258769366 1.0050521961664562 0.23072462704620914 -0.5838995848105557
Ni 2.4380755907512643 9.403146951545708 10.566502831736571 -0.7416048820762454 0.28890200671788957 -0.1281422388965922
Ni 7.987363438366975 8.692055402864213 7.521330779558593 0.7174180004173967 0.6609221222131973 -1.4751935787162336
Ni 1.7607063466257267 0.3628610338989223 8.183244197961887 -2.2816046586345866 -1.5008241348001443 2.023362285784083
Ni 1.72552707621802 7.47973071597005 6.747925354676016 -2.645660524977495 0.8631363005245394 1.2836628482606667
Ni 6.85957043478276 7.694153671354169 9.376870849048524 -0.3619408768824347 -0.6949933528652934 -0.15071266799794045
Ni 0.7981876763165773 5.499677238233414 12.181025708396557 0.8906653591827435 -0.13188987886448253 -0.31238440611054585
Ni 3.4565684915458195 0.12560428837494533 12.749571591090255 0.5867265127363895 0.5161332758988596 -0.37054687338389086
P 5.178619136585935 1.4269966174554765 11.134711214745622 1.7806941132227525 -1.1685887554019423 -1.1698992466832496
Ni 2.9346980775343474 7.199818067680157 2.733029106134738 -0.16160668920262491 -0.5472788482637285 0.3391027959419966
P 8.800304277127927 7.350650918547487 3.746224368436704 -0.17815302359708027 1.016600563125688 -0.017480673283266673
Ni 3.297316591168074 6.171569028460608 7.479371085158543 2.072540033060314 -0.5940819246601963 0.7215145390842735
P 0.3655739412000881 3.620135961661653 10.958679309555059 0.07098558717994226 -0.10999899232866216 0.2552843186634442
P 3.028515612823472 7.84991991925115 9.157056197882653 0.21809588253860504 -0.3198848282526491 -0.6794209523483331
P 4.046067940726393 5.2748434319213 2.0186695277199544 0.8968570898157522 1.8100512262286312 1.7944667415268127
Ni 9.240667595167256 0.5866758862450975 2.711435581229436 -0.7361705984345515 -0.7163342804349148 0.468485077893277
Ni 3.034417246653337 0.4164847542855271 6.378396396679633 2.3081433283550634 1.3230706606343277 -0.8042798925079633
Ni 5.915788529753144 2.6070651869482853 12.747304072717187 0.6349586082698999 0.47337583032667513 1.3373649657698128
Ni 6.06776482217501 0.892499473438953 3.563902612565905 -0.5055796687527293 0.995196129307983 -0.8760967173399492
Ni 3.344815522195623 2.945865075296794 5.254544577937425 0.5483101177417202 -0.22312778853555765 0.4249215914800295
Ni 6.65134419492 4.866874550826211 9.191026555485525 0.006518517844808129 1.0196516912471858 0.20470686282620873
Ni 2.8080342614608846 7.0303581850373185 11.277893150630705 0.004551109705792162 0.018204695933484775 0.12424778893819248
Ni 4.848081535599237 8.649600524500626 10.379457924541308 -1.5759067748675957 1.7414217979856912 -0.5130723775853485
Ni 0.8058155380416769 1.8165136715293813 4.476374505867519 -1.0236718681501726 -0.11971853360927125 1.401953905394792
Ni 0.548649077514481 8.547234841461057 12.035036807921148 0.3302594866187538 -1.0674685536201487 0.3051161545839068
Ni 3.470455773651719 4.949903161770115 12.883549744591607 -2.563374425183069 0.020926208629705893 0.6822532795908056
Ni 5.553594196050939 4.667971048154064 0.512424111362545 1.3759037452749594 0.765659609032604 0.3025705053439176
Ni 4.6238655565786875 2.7735742526761924 3.298713618551237 0.7855866869738342 0.11799178072615163 0.6625133779597171
Ni 8.769016396526787 1.7082002481456524 8.334078893089789 0.7316742532260947 -0.12886857553965547 -1.5891248162197664
Ni 7.238058810637106 1.196630029427866 1.1560387763721165 0.7235850484600571 -0.06400427076610267 0.16106470065622583
Ni 1.7915977112039227 2.862891792170045 9.22468615518204 -2.313239769041364 -0.8490772513283119 3.524998117852246
Ni 2.3922918220555203 9.449253465841524 2.168370924726464 0.04017914332204694 0.19207811831860466 0.6424562021985258
Ni 3.695225030843817 2.588013975241255 11.85083851691851 -1.5121758123675375 1.4803275575086894 0.3847337064072342
Ni 7.521696865282102 0.9823822787980726 11.949874387495633 0.4817031192454478 -1.1971979344982029 -0.13959161838411444
Ni 1.7897257867235128 8.564552448230565 4.754951909503405 -3.1404202202965847 0.7374849463706008 -1.6797616019717327
Ni 7.919863501437901 0.2421495688210489 4.902979640040978 1.0653486790636686 -0.5868725513959505 0.2232753698570155
Ni 6.633814498184731 6.839763076241279 5.149502872808127 -0.24483201298186866 0.2239220023020789 -0.8618602620255931
Ni 6.146837494192333 6.266437792275677 2.218077435658497 -0.03062980907071499 -0.7338800026281618 0.5434059955718835
Ni 5.264257376238982 4.912197254378997 11.725606769179073 1.2741291977386184 -1.1840272014441995 -2.139660480857896
Ni 9.01157354693421 3.9679450629035635 8.764435253266354 -0.11810233816208691 0.8540325384510582 -0.42758191192101197
P 7.958592973446386 2.9797256993956407 4.035369385149192 0.6519417730914578 -0.15967784761102824 -0.06953985587235122
Ni 3.4941453006969088 1.4837537365536246 8.888588108571268 3.519863110618525 0.5352247453126718 -0.3991444825159255
P 4.964020976447493 1.9988925994779074 7.02202120512235 -0.8916009836231356 -0.7316752816673592 0.6382334223664299
Ni 7.563266498571209 4.594587920000845 12.474205967240215 -0.29942681750861333 1.4812107314445908 -0.07039346212189812
P 1.4195365834424136 5.081555702690385 7.076128121778774 -0.9677298055669138 -0.2574376175610211 -0.07544028051718621
P 3.507138116425469 0.22673523896167203 4.1190333438600915 2.425263247999223 0.7224416788842332 -0.5880465170993936
P 0.7015392010496897 0.7829928134652484 6.353171522708393 -1.4620814668143078 -0.7807861802613972 0.2516960870915536
Ni -0.3873850888528664 6.2659490632241415 5.790051454617028 0.8352809688751678 -0.09235402555338934 0.11696591056479858
