# total energy = -340875.6118610639 ev
CRYSTAL
PRIMVEC
9.20224040115606 0.00000000000000 0.00000000000000

0.00000000000000 9.20224040115606 0.00000000000000

0.00000000000000 0.00000000000000 13.46840900380496

PRIMCOORD
 96 1
Ni 2.3540895090216716 4.449301593682187 4.74483982320872 0.028791984531027832 -0.40356009508511786 0.7608956119850573
Ni 7.088964226200224 1.2094412415172144 0.1005979708294367 1.1532192149244074 0.6632821378049415 0.5439394994778503
Ni 8.140725080029808 1.6676667976832789 4.435430136641024 0.8091714162723097 -1.5683001661649314 -0.03742034962998717
Ni 0.2907328196373892 5.491124027978499 3.5241709282909994 0.4920232702245333 0.20397152732208096 -0.5487325499911195
Ni 0.2855344740870686 5.267702835526327 7.952193261483612 -0.32031265981868706 -0.4450700414034464 -0.01518544949118675
Ni 1.8766036638897352 0.9597844619452628 12.56470578927889 -0.17483038698175052 0.03716246798291019 0.3391470189163707
Ni 3.1197711161379194 5.863869973918103 3.2867365642969126 -0.5575822870722655 1.0417402956161093 -3.0264234196624398
Ni 0.9544471625662827 2.7719540391942754 8.340217687007563 0.27861476585926853 0.5685007337569823 0.0907745968814114
Ni 3.848110032081923 0.8887781352761477 11.161122123299332 0.19843337111267118 0.15294849930699464 0.1604268099619108
Ni 5.686128702357755 3.309576524742824 7.994847485761972 0.44279230111286316 0.12438662850890192 -0.35757025861856484
Ni 2.9742008766963894 8.452147296552992 3.3833720504494718 -0.48443028836862384 0.4171959407009976 -0.6347264376544359
Ni 1.1593258407966525 7.25396039493318 1.6415563610316957 -0.12170419658073234 0.14143278535791126 1.4758034443860906
Ni 0.25446310968512637 3.5105350486017364 5.227211137720485 -0.7976143075623295 0.06636814301258892 1.7470088051551653
Ni 2.467083817770805 3.072167927021601 0.8478861400168819 -0.13954919518195322 -0.6387620411763902 -0.03319602713599444
Ni 1.5185536957229433 8.314306938970676 10.86747035303606 -0.020905382694099483 1.8202453931528135 1.5646291450712475
Ni 0.565510795027751 8.680390462926864 3.5421916754873046 -0.6078522389714112 -2.166769935480178 2.849697615430189
Ni 6.827500972312356 8.039620065759369 0.5562192929881713 0.1739968353368616 0.7840540523793916 -1.1469608927195214
Ni 4.088398931019734 5.166929101906997 11.178671715791838 0.2630415940113599 0.06000080603366441 0.5970654327685524
Ni 6.4422031705918394 3.1408626509251993 5.339105778752742 0.8357057151174124 1.228806305432103 1.0911337584475724
Ni 7.125579940388089 5.100295679832522 6.771458408609033 -0.03445895300881807 -1.010762616287672 0.28220839674779785
Ni 6.31876431909246 4.2473952390714915 12.202674931954604 -1.73946004627363 1.2697331255534519 -1.5502453655457493
Ni 9.078010064420578 6.652161485472548 10.989992661400704 -1.3073612203188711 -1.330958548022837 -1.9436544882397946
Ni 3.5369546805276877 7.832670883459566 8.077179929802895 1.1453464970445502 0.8429276867871482 0.574210896767882
Ni 4.901867772058471 1.4602851100889735 5.2956840876326465 -2.0501338974509724 0.2815756482598054 0.6384632789890489
P 1.0123844675491431 8.226535970907378 7.5255139053194124 -0.24814513651550166 0.38412898294369974 -0.33524357009690653
P 5.4509286423105925 6.441641833933015 7.069029413019733 -1.5609601808600924 0.4927226102844031 0.7036762253512721
P 5.553064307495594 3.8054024348097735 10.053089569982742 -1.0622695259177124 -0.5514221810081407 -0.060056598972264306
P 8.083965661806447 3.2776631553526467 12.215833215371852 1.9768656848844406 -0.9790267186369721 0.288551051136374
P 7.175226026852913 0.43576748869295917 9.35280000272334 -0.21297013127626552 -0.5785149234598747 -0.466597373952261
P 7.311023487086724 8.93607470990094 5.055986892746677 -0.5351527544241558 0.2416983524488934 0.3035860910926256
P 4.590187892806647 3.53817857848873 4.328194589877004 -1.1909167294751812 0.11719216764299172 0.05784107937818426
P 9.03833920645026 9.02714007999471 12.817656050657284 0.3799074886631844 -0.20981075971167737 0.395288599104945
Ni 7.6952078177299015 5.933567742015338 13.138365168099893 0.7434331935342358 -0.18429513193907615 -0.7180376362792666
Ni 8.990966073341658 4.328476178430447 1.0934451619794199 -0.580257102961962 0.9633725570394829 -0.03323330813183309
Ni 0.8744925774210981 4.163608841061811 12.079963977663633 -0.457927871202721 0.8470437658380507 0.5955173715551422
Ni 3.8075281523210567 7.663036785611084 10.90182875767623 -0.3627016663078592 -0.06908631327470037 -0.1736407375490235
Ni 3.565592052368009 2.454237490300018 9.074340210985513 0.38522607266262043 0.34117047710430276 0.0032205638198267114
Ni 0.6647762814605045 6.748702188549929 12.976165560196717 1.6105637028198325 0.7187503460755751 1.5046512218557184
Ni 4.192190999460281 4.642925932015156 6.308157816912782 0.895193071849768 0.3399504886542726 0.1829167635343108
Ni 0.17895136616092724 2.2133504457421496 0.17379074979587195 -0.6175797506718202 0.4695369161965591 -0.9605811103372746
Ni 2.4798657295594313 9.024066531731643 5.903782850808536 -0.14367555864550094 0.37379083424248527 -0.13023048888418862
Ni 2.019772118610724 4.55019495642553 9.912048673221097 -0.47235407393038004 -0.9027935099048451 -0.0228283107484252
Ni 7.164671057218965 7.896000701263259 6.997996399853722 1.2811074288286646 -0.13498702973256752 0.5256622984352173
Ni 4.676836187552297 2.036952701266855 13.458132896358935 -0.5295662614753138 0.4315020729110246 -0.68871626160733
Ni 8.67220967129253 4.305673026945769 10.054193838819772 -0.2675554227213134 0.8745627971939262 0.9040356098420624
Ni 8.885977713660994 0.8554209343815525 10.882353136287136 0.9863178529817463 0.8479976451108879 0.2671054796680884
Ni 6.579767460964899 1.2094964549590659 6.980918882289048 1.0840295433026235 -0.0036882474848646154 0.8870223631135175
Ni 4.0129129537683985 5.301060956644953 8.805511483954652 -0.20235224655110315 -0.6532070129571267 -1.6865050913431536
Ni 5.297002768668867 8.662584127929748 4.0331956116325545 2.003917289685594 1.0131737968323262 -1.0357051451656227
Ni 3.1549788875585714 1.853202366785 3.4711457791848623 -0.21208387201657022 -0.20518174558009825 -0.14785025884848085
Ni 3.0160434633795323 3.1817298001356322 12.00634605519494 0.7038870558104975 -0.46467496011856746 -0.4526414259928011
Ni 6.504014618744614 2.0140851341000174 11.253030418605372 -0.6054066056443961 -0.826037853010345 -0.594483273863673
Ni 5.278598288051694 6.640005326024905 12.867488942600373 -0.557691301846304 -0.425392360468861 -1.38408242443101
Ni 7.5663856556499995 3.6958497639360512 3.1455741979631955 -0.47885665093558816 1.4997147037860494 -0.5228487402458221
Ni 2.9677409039997618 6.082082698355616 0.6777008279739141 1.775076252815343 -0.4847897285905715 -1.046544658983288
Ni 7.116497329203514 8.360060477784968 11.158751626195842 -0.62445745162826 0.5162764863449432 0.7535671966444442
P 8.085106739604711 2.030741189058559 2.1225270945684933 -0.13205468657712097 -1.0770250869603324 -1.6817166688155745
P 2.0495413660090014 6.2642962587059365 11.343700092365873 1.0167597144113716 -1.046920297155152 0.30668067085754924
P 4.603862421905206 4.422311422857104 0.0228261570854488 -1.310308475872653 0.3345835679154044 0.20623126989053514
P 2.0539676435974314 4.473659923779016 7.1408961491577 0.8173189850801086 -1.040308448265589 0.5938700657597062
P 1.2111160492533772 1.261544326144431 4.55276698259178 0.7846562047397648 1.1164187582666063 0.3707965275008517
P 5.579042231886734 0.07417925912751575 12.62100325503876 -0.6474464563242657 0.1918562321157857 -1.0670260667660916
P 4.744334620215779 7.443103242235866 2.356675338548384 -0.4218084997723445 -0.9709809655143601 -0.43168539256642424
P 3.890348315098335 1.1739574028873048 7.2252494051703895 0.7074562612189944 -0.8142244053151848 1.4452134874143756
Ni 2.2319113644445685 6.514302723409614 6.714244399714427 -0.1534742899034776 0.2667743215809148 -0.7364711603941058
Ni 5.03898115265641 0.3153515731349506 1.534375107485496 0.0570401807434437 -0.6539793723467769 1.2106296345230765
Ni 7.561379636922128 7.112613983793291 3.7373757935525784 -0.32705563496947543 -0.42838692432081055 1.2594466560257793
Ni 7.55590430393852 6.275394160518092 8.742990543074084 0.09578284872928021 -0.47025913907456435 0.8010012217566914
Ni 7.452903628164511 9.086927035279597 2.494901269999631 0.5170665863464063 1.0395700274376676 0.638535526987881
Ni 7.930389473296447 2.364110748717722 9.21398052677219 -0.7242265386987978 0.4291731676675319 -1.4096769850706625
Ni 8.915728556578655 6.469892711680376 5.89556709066103 0.5327598287119469 0.45798777790637907 -0.45205624291329244
Ni 2.5831884837442405 2.6316382789689485 6.2520085072218805 -0.1973537648952472 -1.6413891728411216 -0.20411088111342268
Ni 6.078567442557734 1.8090960289859446 3.3900795634104006 -1.1344067102035948 0.014285820495052814 -2.3171223919252224
Ni 1.7780108612235395 6.821878403483809 9.137157464004016 -0.33602621389920195 -0.6177085629402007 -0.1907527146389618
Ni 0.8659436961744212 3.054103929295846 3.0020680210228816 0.4902641214415815 -0.8058482654363476 -0.5269861594529633
Ni 8.798160734396152 8.15777683132162 9.222991360482357 0.27631080031644023 0.9353534461187375 -0.9313790348520218
Ni 6.383189203492874 3.464183364167386 1.0257875305585995 1.4520917025914477 -0.30751216561990913 -0.40720643358845354
Ni 4.4237837813064775 3.680914527915215 2.1825689519099276 -0.6527082189438371 0.6485242627694766 0.3811210493553114
Ni 5.504605310030578 5.686607218853802 3.66193950839891 0.9667671845433284 -1.7521201582398018 0.5759430489676404
Ni 6.200653564731752 6.005050744732437 1.4591670378914805 -0.45285585599645234 -1.0368827104134917 0.8845667024841732
Ni 3.7242202708074235 8.49487329830576 13.156170582872978 -1.511968838563054 -0.12793115132705066 0.6278222543354349
Ni 5.058940811885734 0.2200071612976859 9.235489843269479 -0.048449096640323014 0.2577842022671625 -0.8568885198426146
Ni 0.552217238677967 0.6743410900372492 1.8044571796463864 1.2246503742822006 0.0900451749145546 -1.925202452182194
Ni 5.4599836467742415 6.894346045913927 9.54119562811297 0.49084081988065786 0.8122757662292464 -0.1652903087017992
Ni 5.07745571938661 8.615358230666082 6.379877317205813 -0.8170742160591542 -0.2866036976020161 0.653235552202217
Ni 1.9315502407723053 0.5441800019924475 8.987980866585552 0.3015040117526162 -0.24446614500201766 -0.45869714526857774
Ni 0.16293578712786333 1.172356213073611 6.534077417608735 0.3680703868189403 -0.6338311795336762 0.34324767134830564
Ni 4.160792955527383 6.957270965144041 4.9199694989694915 -1.305449605118455 -0.33219167064446015 3.1903615852117184
P 7.641917644102877 5.016316034776362 4.674575197108477 -0.09180303814592576 2.072152824924225 1.2647251308158993
P 1.5588963172357866 6.8833217620242415 4.716987402466722 0.9249037115403234 0.5993318602052258 -1.2833784842510285
P 2.8856477182068616 0.8336668382920541 1.3729696529209507 -0.50868838958504 0.26507970748731124 -0.4423647266571413
P 6.99823013675756 6.214236071427226 10.995178123814592 -0.8583545628651797 -1.2097004378405876 -0.20573401853914247
P 8.119900410211477 3.0193930788518575 7.08811393919571 -0.1991939034277795 -0.04948113744926317 0.38278532443161173
P 8.2382412205799 6.8596075887490136 1.73758633977195 0.848891617680067 -0.2490733047567259 -0.666636141878839
P 1.789550470570507 2.189801912792477 10.487863216722372 -0.29875267425972424 0.054544410904783486 0.17076907242818332
P 1.71974227558957 4.832565700294507 1.8390842897035664 -0.11126088976022129 0.27125729705293283 0.7192943915045031
