# total energy = -340863.20301817625 ev
CRYSTAL
PRIMVEC
9.34038884147985 0.00000000000000 0.00000000000000

0.00000000000000 9.34038884147985 0.00000000000000

0.00000000000000 0.00000000000000 13.67060321047895

PRIMCOORD
 96 1
Ni 3.2732458854609905 3.8526769107565406 13.121755675805767 0.9357902765458399 -0.978906905229656 0.23013147354690044
Ni 3.8775970683367538 0.06251522289519008 5.86712232057199 0.24876220127421025 0.36811563823457893 0.23544311556780098
Ni 6.725285495210004 0.029574473368151853 6.04017824395989 -0.10808223492192354 1.3960311121524538 1.48179257208999
Ni 5.015863561407476 3.2632890308955833 9.45793862645276 0.9661475486814587 -0.767793110435839 1.0170456210829064
Ni 3.0617794808073073 6.167187918157785 12.462108456614176 -1.0993597459017905 0.5132585254542258 0.6284619448019628
Ni 4.417387483148637 5.181076360237615 2.8626657404714018 1.097761291066419 -0.1972727751456667 1.722669714189169
Ni 7.878104314184013 5.150869542541059 8.914586721354022 0.006348567925847131 -0.6949738124812675 -0.08899487927316932
Ni 6.808620444959128 7.339827042373627 8.21793288134804 0.7392793192668623 1.1490897661370663 -1.082871004218148
Ni 8.18085433953913 2.0897625697344173 6.198251249516298 -0.3811377615258597 -1.2213745317444062 -0.6563746120518308
Ni 2.4571761074312946 3.19969032288821 10.540021746262337 0.5326700972116182 2.0670355583023174 -0.1817137443651451
Ni 7.442141662363753 0.6831635163204122 3.820387186335702 -1.9932690659431287 2.0238109432857274 -0.09013876306962541
Ni 7.291126254658773 8.00324684464117 0.7242247999554854 -0.6758280927907523 0.9269798773430616 0.13084781075321333
Ni 9.27835003506951 8.476384244275991 12.334794285738205 0.15475804171190766 0.831434084325252 0.16451280710582636
Ni 9.49198340994756 4.043968075390262 5.839165602560994 0.7294919008627954 -0.23440464700095762 -0.43041989559043936
Ni 3.9378612575074947 8.625540914590243 11.094391574105313 1.3741499958086463 0.3480687468860328 0.3064636697507367
Ni 9.248741002262435 4.714720082942837 0.900184650251814 0.8915639597376128 0.7749158375235492 -1.5248544362764707
Ni 8.375227832509234 2.4388876259687544 8.420257847387122 0.2459908091766602 2.195681990528838 0.8654353809713612
Ni 4.886760706057511 2.968711845826331 3.7716779922708397 0.24250027952489853 -0.39734136786891566 -0.44759332204593244
Ni 5.8503245651775915 1.324625932366229 2.104288742548791 1.3386448609235009 0.02126353736446661 0.23663225077989566
Ni 3.8357054241286375 0.743455726657847 3.0345868066081785 -0.31611610523883626 -0.019054445528289762 0.6878032628747573
Ni 8.052713544245671 3.483993080169518 12.146002609173623 -0.06073768419968893 2.993085467631942 2.586223047646469
Ni 1.540613085246608 7.37065032573746 0.3630422356925516 0.17573618662547152 0.4863964109560591 -0.5775505026640763
Ni 1.8704595787952023 2.5833367402783485 8.254255785695092 -1.5814423599738443 0.23380352308184896 -0.10954570684132747
Ni 6.54569783786564 4.51496652596741 1.9988338838111133 0.9234152999202548 0.32346174697063007 -0.27536103480866125
P 5.463408295461417 1.8105970263470814 5.505849154536744 0.14919777401531079 -0.03625538278760852 0.1540962397581927
P 1.4618175645019758 4.287901671853848 12.601807983169072 -4.372528079298096 1.5342798433554288 -0.7592148818485247
P 8.667806174354286 7.804987749889444 6.352592769707902 0.0976723524425092 -0.15348945941212921 0.3272842060405138
P 6.771772610756 5.510801428730534 3.9118837679040133 -1.7007515739598387 0.41657476217723094 0.5566482052937703
P 3.870759903663322 8.118544605199698 13.253485982552775 -1.3482656718427166 0.6518227310150903 1.052758501103484
P 5.359141534191583 1.021847885844418 10.207620656350104 0.40734424471789843 -0.5601446484828031 -0.7835377748646055
P 3.5473115765099474 1.6677918204835582 12.084088907323473 1.052110840217156 0.07350321139547342 0.3089180448285002
P 6.517499203782183 4.473345753037338 10.625982279330724 0.35279057784173434 -0.3481587354966778 0.3123664083884169
Ni 1.0431439725321565 6.050984139876138 7.146977900871699 -0.5113638795346742 -1.345055135325219 0.9387167061640155
Ni 5.320276175986459 6.756753265407807 1.3855019170097973 1.0958021104575193 -2.1902811312282404 -1.2152583915443393
Ni 0.8900914260084938 3.8824073686192917 3.199864054121715 0.19979862689131397 -0.22367029130258897 1.3113055496785997
Ni 4.745926322251493 3.40277839870027 1.1471604113795217 0.7448701830910784 -0.3119583743167208 0.34776355694078814
Ni 8.353483407154386 0.46563333119406214 1.676508271403294 0.4510627686517716 -1.6869920582819011 2.5943220226045187
Ni 7.308116422064473 3.496892157237837 4.488004559374065 -0.131700902782128 0.05908472197729824 -0.37418909812216844
Ni 3.657014444118495 6.408057867062784 6.657160434742596 -0.928532309431846 1.029347321268395 1.3200002492391203
Ni 1.3533849897835741 7.5791464867215375 2.6827875970323074 -2.6113504388417157 -0.4391745018546178 -0.7838231673155082
Ni -0.0900460191724309 2.4375799715230158 10.60397258693117 2.9623361022642274 -0.0004897951522249628 -1.5917198306404523
Ni 4.270706015892389 5.102094031715019 10.802100916238322 0.9710856094130244 -0.3217295947708717 -0.06932542586869996
Ni 7.427944271238594 9.138617817153472 10.05461948196538 0.43794345766099413 -0.7220189895245178 -0.5317424431910261
Ni 1.472605713679317 2.0646462639873437 12.307684741000271 -0.7953365672717464 -0.24802892265261156 1.767334918307027
Ni -0.3209497731231248 8.694697153992005 4.327757111282173 3.5253393032417475 -0.07511837840139321 0.6162749158174676
Ni 2.496415081192342 2.638015376888007 4.570903312961647 1.1779043763759134 1.3374361853273804 0.1031230911444353
Ni 1.304291905734998 5.5090454356176854 10.693050007774863 0.14386607738975224 -1.3001004249913997 -0.08975592580890994
Ni 8.759239241278088 9.54130066332969 8.005628643810194 0.7402116012731446 -1.4895691307116152 -0.5045481421644213
Ni 5.8129163076405765 7.205306761462746 10.368264136931277 0.18711820321016806 -0.5625828256106504 -0.004134333883347718
Ni 5.35585371729944 5.370153852702479 8.008867890680065 0.18796152504706984 -0.3196524005268689 0.474357477513654
Ni 1.4929584210883442 1.1274876842822785 5.8863289622632164 -1.337747288809896 -0.7186500730522849 0.32723072709475903
Ni 1.8256163716952758 7.63899969878076 11.145643222028244 -0.11344401345446914 1.583677677062266 -0.30420058474817285
Ni 8.620861379752279 5.485423592094312 2.970881618167367 0.09092449219571437 0.8439178186145595 -0.44266811683017315
Ni 4.01908527936564 2.6641684658027733 7.545284774849144 1.0679575774414254 -0.5579085600634327 -2.5218264265379533
Ni 7.248160465727371 1.8662470634021455 11.081773642742826 -3.1526856679274995 -0.6370463440368641 -1.4517782851160868
Ni 7.012184880604992 7.722614860196828 4.553432115527693 -1.4422101818116775 -1.8392908398200387 -1.612609272494952
P 8.879151153952293 6.930904816413457 1.3383805890576166 1.4687627354892254 -1.0614344316109268 -0.13202974687645647
P 0.4683009462633683 9.65628085066568 10.127566051182002 -2.249639675692216 -1.305161898674707 -0.12231560491248611
P 0.6854266925504293 4.245019946422529 9.016924692316394 -0.9957975103374075 0.3011628263631136 -0.002264627664460616
P 1.0566408344899556 0.38481841836965397 0.41997003794887977 1.968994766776796 -1.1133959122798827 1.110753589561029
P 3.836405953295997 6.765720038750011 9.48618209440293 -1.630066805849767 -1.0525484419752067 0.02717810307668868
P 9.222625274903262 2.036344885626007 4.19619212941866 -0.8219122608777457 0.7351915223507338 0.8327941978975723
P 2.546965265909027 0.6245180165457177 7.731477955222264 0.7139860919177123 -1.1707507960502677 -0.14390850059191346
P 7.77252989846844 7.347598245936872 11.302758837722594 -0.2744884023957208 -0.5841358691910779 0.8861615577751191
Ni 5.778179401328429 7.414886407559007 12.808617269918148 -0.20616879208371588 -0.9012978991959252 -1.6929572747264003
Ni 8.239941639708706 2.819415069678607 1.878340998947445 -1.0415983707216063 0.3462692317834488 1.9303006926407076
Ni 3.0235212478805633 1.6878176142811507 0.6410747899065447 0.020849075534867322 -1.4552065940713454 0.24133145602777792
Ni 6.474309245517226 1.0859136132966978 8.233941373880546 -1.270501114067728 0.654753274398324 0.004124563691334833
Ni 2.2360330598791474 6.11028626899037 4.273307314200518 0.9576032586558734 -0.8841414420212967 0.0387138716304301
Ni 2.5439389799060326 5.470385565968321 1.8991616598402687 -1.8139778149765469 -0.22435163364032973 -1.3774392080828795
Ni 4.413856816145143 8.548361281124988 8.626984938713894 0.2439231280143541 1.4647142764514645 -1.3888646763110017
Ni 8.803531365433026 1.4760990191272179 13.560664286284496 -1.5036379500998556 1.952433262873689 -4.340535071331267
Ni 4.333137175287496 7.131816581612251 4.495208801331194 1.5740905475944633 0.8052358286633294 -0.8769678070909929
Ni 3.534636668775184 7.942375530192051 1.8840554488753216 -0.8793445348532856 0.7077326548088327 -0.013789854695240767
Ni 2.922850536336508 4.879699372050523 8.546354965589668 -0.3684799635525331 0.026232451333967725 -0.05203475710905232
Ni 6.877991513305545 5.89386011783178 6.0942460191356105 0.3356893993850735 -0.8883053435909992 0.4093278508068306
Ni 4.0427164632779125 4.7057159480450395 5.210153924916385 0.4440871086648868 -0.976809399270679 0.04792999091205939
Ni 1.068577851501767 2.739498702266199 1.264085267684104 0.9026428432595939 -0.4421384695789482 -1.922798727836708
Ni 2.3920829372002204 0.9274922112343895 10.321729385401898 1.2167743139682334 -0.8126354635615102 -1.0513119984649442
Ni 9.32172680111243 7.315682137071959 9.62284692860482 -3.813377933518077 -0.7428333551667078 1.7625115287764548
Ni 5.1397918413078765 0.7907274348712876 13.648128621965483 -0.8030174808557718 -0.3312506468874295 -1.1149506583615123
Ni 7.388303660754927 5.592959489478493 13.377628157358942 -0.7646741051908832 0.6934910572881541 -0.011825788990334471
Ni 1.6098160265928598 7.895981818535035 8.544578423621244 4.002877749586545 1.872910584757013 -1.6063962017057043
Ni 5.309534728753609 3.118195429752018 12.279673848733664 1.5319488812294066 -0.3244701336304863 -0.3366005983454332
Ni 1.4040005572225456 1.1110112382659756 3.0685988987418327 -0.08884164152475667 -1.4223954610785954 -0.565231318977091
Ni 1.7264214415971257 7.93398786096153 6.004894924897201 -0.2345789677952928 1.066637573078421 -0.22699498480044777
Ni 0.12095336603634602 6.279767625546956 4.887677932247307 -1.5715600678631256 0.27159642555990643 1.0518105353679175
Ni 7.001891772039251 0.10402391115848376 12.421984948024477 0.49363869434076924 -0.6172226244427177 0.43844173745365134
P 5.652999509315679 8.448110887081349 2.580791484303608 0.8906159940020468 1.494725220991258 1.0840853362412233
P 2.9596143070395513 3.079834452547394 2.396306661059955 -0.01620566322558499 0.3245963747957055 0.732438642195945
P 4.873600098100044 5.3100484501430065 13.193977430843894 1.7451642957472588 -0.5163268799669043 0.577467713142283
P 6.8589931622867475 2.316584573736628 0.31912652921020956 -1.3726926945368294 0.29621165300542535 -0.7943178961992449
P 2.5859800703365194 8.45925397103682 4.035808311648855 0.680526526707686 1.3444419272212522 1.2593625809524054
P 2.293233601491301 4.226899591960155 6.327452178949693 -0.005124722821075046 0.08816801249649978 0.675661742416217
P 6.540626006693955 3.627087838088883 7.399924972621982 0.6382023120181783 -0.5280238566888584 0.04516939744778672
P 5.417257433915752 7.706568072069839 6.4593870402135725 -0.0891098075844788 -0.6752570507786306 0.3177580117176334
