# total energy = -340889.48975391185 ev
CRYSTAL
PRIMVEC
9.04861370280334 0.00000000000000 0.00000000000000

0.00000000000000 9.04861370280334 0.00000000000000

0.00000000000000 0.00000000000000 13.24356080194379

PRIMCOORD
 96 1
Ni 6.362541852543144 2.127012406393583 11.368034135705281 -0.8183301999534422 -0.09771760385814783 1.9961646423233688
Ni 4.604468577223458 0.5085538130691285 5.8207036184173795 -1.0942908160193152 -0.8632509717255327 1.3743078615427493
Ni 2.705019759660166 1.6114676342910819 4.811028523666661 -0.19960090905821107 -1.0998477412818026 -0.09954874352961567
Ni 3.214293842388958 3.9621527255745588 4.715105073476553 0.3112055553110963 1.2471015041968652 0.1023892983022043
Ni 4.931648355541707 4.4319386576152375 2.479247796365221 0.5860721669818422 0.39622036689059503 0.479804102450522
Ni 7.218848372300021 5.641231602290387 2.3348129177908046 0.6861006783613539 1.2821204434742115 0.5130659498274455
Ni 5.117407348547275 4.492419592353861 11.622496538823052 0.24857656762596547 -0.850706816511935 -1.2174142615450774
Ni 5.8474133166761275 8.182308576852648 12.443596711949015 -0.8830379245444727 -0.7145861873955563 -0.7907818580215283
Ni 2.1534072128915733 6.096385925792412 0.4644626325333873 -2.251446389883651 1.8795052072553955 0.166601571314055
Ni 2.697029833661631 1.5150003624107 0.4245338143524886 0.0038921359655545874 -1.0733268121731387 -0.4508113147625978
Ni 0.3145777738582725 0.05004335870316597 4.769470050137703 0.8652044959074777 0.6485350614027541 0.9955889938710273
Ni 8.89668758892321 2.2223576501609204 1.3545385790473776 -0.04205836262263079 0.977977451436851 0.20837402726515084
Ni 6.859129778703482 0.9818741336658969 4.875576810315072 -0.5493298172554861 -1.1163151428092064 -0.23399892692210672
Ni 0.851686297543002 7.166755502567786 2.5358106813220043 -0.24562931207218344 1.2112531270396882 -0.9221006948738893
Ni 7.576929166796068 3.859921486694102 3.8192307752299905 0.6045794817574104 -0.298376264756912 0.12512633488840386
Ni 7.87993104900097 3.7490759674618834 12.555902677450954 0.42778400062948907 0.4441097343727061 -0.39149802171426124
Ni 7.703175426741204 8.70600615000235 7.043309788598354 1.1280977372664316 2.1197814825457817 0.22014428042720152
Ni 6.849112963210416 0.9895111637256514 0.5623125326046822 0.5447457974292296 -0.021952850122007355 -0.9155729210577007
Ni 1.986686503352502 6.43195376911705 9.239012937044798 -1.0924673896573314 1.1454598826939628 -0.3710572373614061
Ni 0.2951703069481287 4.808080485285775 1.5514300816293864 -0.11427319422398385 -0.8215592484137012 -0.7166610676467142
Ni 6.3860772970756345 2.0400009359497453 7.143762070002808 0.8412695823584351 -0.37014680973199476 0.1881520437913211
Ni 3.42511749566173 4.268267330931779 0.3433206956412228 0.2539835975741497 -0.60520246005339 0.20071856760242204
Ni 6.28940190707751 5.8012653862202646 4.734042917329705 -0.8503712875493872 -1.9099182723296138 1.4236804984386062
Ni 5.2705370401364044 3.188242883215933 9.328486535307663 -0.09349996623237446 -0.11015762939371351 0.4789170718598784
P 0.3993053741752357 5.506923027436198 12.374319619720948 -0.153645011153387 -0.4686516853781284 1.2196050985488094
P 4.123362829300371 6.096413071633857 12.421559717864268 0.7195263050096511 1.7906813063424516 2.7194555565817744
P 2.3471561318956757 8.472832420606839 1.5016346549447483 1.207879582581765 -0.9119170694726683 -0.19029454405562066
P 6.020495201727056 8.003471773415459 5.902218055968681 1.2065606066600252 -0.17106320662983443 -2.166023544232457
P 4.510489674142167 0.9383864956716079 12.521309826836685 1.0127408230599655 1.3743420572147944 0.056900826952102
P 4.033654871939701 6.320275777413864 7.951606023889977 -0.0004021205344251139 -0.40301887786966717 1.1243392986652636
P 4.786436201040594 0.8105675866454471 3.6854841192937053 0.3102203085796915 0.15403427617200569 0.5382293364669505
P 9.303151321487395 5.501855803699868 3.71602409578029 -0.46420984755669087 -1.3335733599378645 -1.3099158684199246
Ni 1.4653053753394067 0.9015758298113151 2.7887230568932853 0.18297487046575583 0.6152266770586113 -0.49143680159344405
Ni 1.803225858255912 6.492235634351747 4.793189181530635 0.2657368814553359 0.8669219928192167 0.8280571974332191
Ni 6.0528078016599745 5.485296840418647 9.391114706104556 -0.9381708609628746 3.072547724824328 -1.0895360749431493
Ni 8.538833009772537 2.2849107174631507 10.26089913613869 1.4454597990972267 0.975865290189855 0.6554140479107745
Ni 2.2410158918471925 5.113507395993064 6.929865507478505 -0.5598402298685068 1.0986300668246176 -0.05418985577884215
Ni 0.5970012985253869 9.171674962757262 8.989225952685175 -0.6034211997832511 -0.016765392383796936 0.5904258159648477
Ni 1.5929179759705883 0.867173904948542 11.40270570925974 -0.8252891477697786 0.7244749072641781 1.11723405507905
Ni 4.175256629528679 6.622237069030056 1.509487946874678 0.8738233479247403 0.7311767447643859 0.049768586782694926
Ni 5.5965224014310895 8.146530357828633 8.051515388465537 -1.792398031923242 0.549603382631847 1.434249275093388
Ni 5.006281322286796 2.7319393857594187 5.337459683049838 0.893721372400248 0.5834699534723048 -1.0113750530606904
Ni 0.7034292844931832 7.551982138508459 7.129803678331982 0.36918316026714487 -0.7552173306533575 -0.742483942247089
Ni 5.224678665322618 4.473607524232737 7.257219924043381 -0.9537545743337446 0.5682531365225504 -0.3898008365174964
Ni 8.568268150512324 7.255097119242411 9.3939623048721 -1.2614320618869244 -0.8793280797930535 -0.07957152907674038
Ni 4.446054495166442 0.3351036494359349 10.44724900362637 0.23615094026810296 -0.5756057202328797 -0.5819365475469139
Ni 8.266044449095501 7.1972402825101005 4.465966874727456 -1.2365229573500702 -0.06656868905916923 0.22410994994316888
Ni 6.91137647487057 6.481621610346899 6.953716748633132 1.3049664948344495 -2.4226749184467566 1.1020509195807084
Ni 2.4184049170740014 5.116059105088859 2.8098597139034514 0.11035611855776478 0.04760551769310511 -1.1087962087243421
Ni 2.466769757914508 5.251788312311984 11.498748601152203 -1.5294327996757724 -0.9529662741044942 -1.7660629935731391
Ni 1.0646779986858177 3.254922118417747 3.7959224509042544 -0.7303239098457873 0.1188495007407566 -1.2379951710202226
Ni 3.8033495531235033 2.295208039984479 2.5215346833062755 -1.3335401927070842 1.3050706245124815 0.5543709792238194
Ni 0.8570910345746269 3.3533257936545118 8.159754906919071 0.5568703486069054 0.3800959505249067 0.383957490362842
Ni 3.216637433367011 2.910568071078865 7.0505142949177575 1.4361035546933074 -1.0683118754570504 1.3580062961692483
Ni 3.8604372576815495 7.007137954873391 5.916361944222712 0.8357435103338833 0.4814907461243256 -0.028013197383474332
Ni 0.8651252987808543 7.469160176260907 11.650625059727972 0.9904141345383074 -0.22973680921164305 -0.9969249390736316
P 0.17217430908529632 5.627206250877331 8.078519166673269 0.21842858328767542 -0.1737232699605008 -0.553890440042975
P 8.400515898998357 1.7666332639885578 8.137452788449549 -0.5748744984938099 -1.0216147285108277 -0.7733029845104746
P 1.9068958267329346 3.33862179620534 10.276407555356004 -1.0465675418014233 -0.03874215376520424 -0.21291536677893008
P 4.078653628441074 5.92285161005074 4.0212881314389115 0.2685630380502213 0.17416987057961617 -1.3051937803539069
P 6.936042996129919 4.058701434979275 10.509203052694057 1.6833863432085139 -0.9266024393989848 0.3871592851295913
P 6.432560026242647 7.781310207032648 10.077754287664238 -0.13421004235722692 0.019821919821933605 0.5566983418054154
P 2.2965291376014503 8.618098866790842 5.867798033878278 -0.3852481841498075 -0.2292210459174891 -1.9254125113104712
P 6.986271851416291 3.778420622063523 1.27629883483568 -0.24924608288916433 -0.2780190412567986 1.3155072464647732
Ni 5.194284371518453 2.920793004689674 0.26982152020713795 1.0368030062154918 -1.3140396607803113 0.5000397127711065
Ni 1.3391134070771606 1.1403696532472467 6.977105605621822 -0.46855346923736724 0.8595069313020681 -0.39338186900053546
Ni 6.713112297572845 0.9633878156421074 9.511511942079757 -0.09643513760129842 -1.5098664475080705 -2.0518192555731956
Ni 2.4733209543164776 1.4423309448634392 9.294290918839868 1.5181543985484756 1.48293285634202 -1.0431945115641326
Ni 6.193649475688503 2.200179497700662 2.7315240543853156 1.1002357207488407 -0.10578084048225653 -0.546179958772595
Ni 4.122557502670848 6.77611779556582 10.383136860163836 0.6452972711917467 1.2063672597022965 -0.6768128253015246
Ni 8.328914217881252 7.209455911160181 0.19768235142942883 -0.8733142694988056 -0.9826933688552819 1.2090867155159886
Ni 7.5394407597610416 4.082490240698581 8.13998278087219 0.7726111006497727 -0.09175187319301617 -0.07352455155171207
Ni 3.2339293343672373 8.157877319552485 12.785691320418321 0.23918432777778806 0.1541682306467087 -0.988508175764846
Ni 9.180995034986582 4.844854051829427 10.2590315022473 0.0037460973059935485 -0.8328998702375009 -0.217118092006368
Ni 8.552795020888889 2.575742214087047 5.8615074375541765 -0.4442187491467446 -1.0325254618860604 0.4159461274542966
Ni 3.5669183227546357 2.6816381415625288 11.410824125574445 0.4268082669797811 -0.5592720160698625 0.22343683513554424
Ni 1.2510432488169825 3.1239072389921723 12.56240501133832 -0.38790644770826094 0.7186454450665947 -0.47176143465170367
Ni 2.9607154888409024 8.464163848572188 7.8815344633689675 0.9898842301767663 -0.3488542189018057 1.1005136570005756
Ni 5.885462737767677 7.300521160593083 3.2561282986392697 -1.132828309972881 2.8494165938546603 -0.681657812098652
Ni 3.2952970332597187 8.186054702972006 3.3986946384609134 0.21581917068928638 -0.22896573537357337 1.3333365613367103
Ni 3.35057501505479 4.6021702293144795 9.137050441994644 0.7387599564282825 -1.2291505761453994 0.3304047539473664
Ni 7.457623193646942 6.240620830001519 11.380191853226949 -0.43724334627017597 -0.4208152826211398 -0.027902897057855175
Ni 0.7084983179522761 8.976233952969777 0.31165778618021234 -0.4859456965718856 0.8963757793039594 0.16303879366346113
Ni 4.72224533463787 0.4598659367154308 1.42402740883871 -0.12343223501543259 -2.2029389292015673 0.20420035550343543
Ni 6.2086430287797505 5.571095796611291 0.21463040510468964 -0.7496930584010185 0.7976888695540069 -0.13219738280257234
Ni 7.974715278711786 -0.21903527030977074 11.412228470438514 0.07379040361858905 0.2509867197293549 -0.5126864550008395
Ni 8.807404916411839 5.020071409740665 5.780854428038052 0.25368097873206635 0.4861287591169693 1.0459695032061083
Ni 8.111313152861138 9.11095876405945 2.4381001299034577 -0.294215448511003 -1.3653303406344874 0.0279031541681713
P 8.491391127541148 1.7622899293574177 3.6631421869233973 -0.20909419326062698 -0.10740012125323438 -0.25335984794722166
P 2.0280477171002955 3.1560660124902378 1.5619988625651604 -1.5344068558515962 1.0393468556832681 0.9779604821559866
P 4.712934311022365 1.45022133611001 8.373333863098473 -1.3542614844148355 -1.8913384524448977 -0.5676355575432096
P 8.561481690151169 1.5398569045601613 12.481790910861601 0.33346848047435473 0.46368919916653045 -0.3132554958615896
P 6.48370279152432 7.826869977590544 1.237083952284775 0.25485545865614173 -0.44193998041489696 0.7200621229084632
P 1.4968940861671352 3.2641426558951046 5.907369431813489 0.8446873497907322 0.18556988488644172 0.5052508246584008
P 6.837503591685931 3.9843218294210025 5.949285325588135 -0.7156663078336126 -0.04043676785880778 -0.22029109041771092
P 2.3798940166778935 8.39235404933734 10.200283377054225 0.2359722485983936 -0.7928338554545507 -0.14992102533458052
