# total energy = -340856.4877687838 ev
CRYSTAL
PRIMVEC
9.38258688151700 0.00000000000000 0.00000000000000

0.00000000000000 9.38258688151700 0.00000000000000

0.00000000000000 0.00000000000000 13.73236430751596

PRIMCOORD
 96 1
Ni 1.911251752607628 2.779628951689332 11.40788698955228 0.10937549981205033 0.10221420617692073 -0.5070598528426816
Ni 6.4334335412734935 1.5240792969058983 9.814506966242444 0.17414235977579043 -2.5479637470549537 0.038105805732785984
Ni 7.772732168299593 6.9474679568332895 12.706584347523297 -1.5707275446595013 -1.666368725604595 0.27522862299585504
Ni 1.3639373006883502 8.970588295151126 8.066404329010304 -0.7329842302867698 0.6063144621706461 -0.08428950337769998
Ni 0.8713233314236483 0.060204308233508294 2.795346661559477 -1.755287243113874 1.8131841154306578 0.9155520951220941
Ni 2.607186383814811 0.6383039666086919 12.087749249097838 -0.7390270940467402 -1.1539769190260385 0.7358967759478746
Ni 3.964096126783045 8.327299360028817 11.110169995552997 -2.1333859607030936 0.8297019321254935 -0.3659669673226923
Ni 6.80016133973606 8.529522259283377 8.989686551144846 0.8608387627396142 -0.5390461759412911 -0.6499735936214935
Ni 3.0727691197128175 7.367066633470563 7.862987026420937 -1.0497983900338952 -0.3819502301248261 -0.4111355934395306
Ni 6.176012882249317 5.354914539444871 5.2213609184840175 -0.13512432664138016 -0.9647732940417514 0.9729000369139438
Ni 5.5244485053257515 1.0889430560703446 2.656374596562087 -0.33932211104165433 0.2589496833301734 1.0366168583466149
Ni 5.473407231630916 7.681702308485752 13.135899631336741 -0.2632999898790691 -1.5463061783923433 -1.530999372831944
Ni 8.160476961812975 8.319633786387516 10.923862778755892 -0.8522582201594548 1.5776960055575344 -0.9791624728838879
Ni 3.249856068190085 2.4187465049752728 6.727526980143927 0.6093807598007956 0.09660200219646589 -0.30676705992376846
Ni 9.082531941557944 5.710280024958091 9.475180075077375 -9.51308169675781e-06 -0.9745316589800957 1.522387719903533
Ni 0.22927102127799176 2.0036139397862986 6.971646883728803 0.677433489604659 -1.1159888698180394 1.199611686146018
Ni 8.729727902316542 3.6469553010184947 13.397789216585338 0.05177173325565277 -0.4616009491789341 0.8888015665011274
Ni 3.664876042334145 4.436959750252226 10.079033996718177 0.5791795536270671 -1.193279830390719 -0.590472610042383
Ni 6.720296758542964 5.486092489358014 10.55255346302399 -0.6738686550715363 1.244665641061863 -0.07924448475462481
Ni 8.37833125113658 3.82051439675509 10.903717426044462 0.010389313654124044 -1.1208333423945342 -0.10111685934768391
Ni 7.003857305161592 3.725281137931085 2.0152933841788228 0.6765415739180091 -0.7800205057399663 -0.5246788514760254
Ni 6.636857411673813 7.57618573422617 1.588120144994888 -0.741630335997542 -2.529036056912515 -0.8933974134019259
Ni 4.629330933076717 5.04684667538306 12.262164036775786 -0.5530149794165573 1.1692248463240442 0.5847603901489542
Ni 7.16246993968571 5.93180290582851 3.130882987545736 0.1364600147336682 -0.3028780092820074 0.3992041321092673
P 5.854030641553417 7.768097170283923 10.952055576402628 3.662678892366892 -1.2437133044509225 -0.032560450434524574
P 1.4823736973519375 3.852433957988515 6.242389994520294 0.3883255375235506 -0.7514357521237381 0.6704424029988066
P 0.18082590942715593 5.7795798131033225 2.9025136328857726 -0.8500427005653747 -0.1026194120351394 1.4171740647786562
P 2.4466597015271363 4.673419709748046 12.638073634951176 -0.23726885592263008 2.768215242483981 -1.7846135028818169
P 2.522911986695874 8.0111343233202 13.701329044124147 0.6813019714211299 1.2505241567251688 -0.4785442619014919
P 4.1140204856745495 1.466564038128445 10.460038339675975 -0.8817395174480234 -1.2885548862456453 0.47303490204748855
P 6.0257695153972195 8.00557044918398 3.6537154550069375 -0.07804892178462687 0.4675476536806722 0.33579738571784745
P 9.171882318285135 8.040070221863374 1.1083049627609076 -0.46595254127941044 0.796771242835744 0.0016349645002617006
Ni 8.90936691447855 2.611596199740652 5.123297871397814 -2.077549313349448 1.0871092106692117 -2.0513268893178087
Ni 5.352869135462246 3.0246270654245446 11.326454578058742 -0.3635542441161416 -0.30715092562574847 -0.13695829452632544
Ni 3.7014868971056982 8.805858213853288 3.6193432855117793 1.115218310200602 1.82668497813057 -1.3285977611001443
Ni 8.892056041322856 7.780895019055937 3.7687647377359963 0.2744192397206822 -1.5594095485435209 1.385354349164898
Ni 5.124543878961541 3.5012155759630006 3.345011451541357 -1.118649447369338 -0.5053636960871812 -0.30420855516797285
Ni 5.893221707770943 0.4449494886586105 11.718142872920273 -1.862889195965269 -1.5659458070001417 0.630609844382901
Ni 1.214069237319303 5.738549759818851 0.9841480027569266 3.9318885628621767 -1.152234996634267 -0.8844111507429154
Ni 6.658906491303017 8.198007310118003 5.7743630946889235 0.9263062483148046 -1.0994399643204227 -1.3448646165809677
Ni 1.9319966526332317 8.343268523232608 4.861147450228497 -1.168920170599432 -0.2630606201747534 1.0744501271443045
Ni 2.688702300333329 0.7055226969404097 1.6982126069715602 1.0434043135820934 1.2607869721037577 -0.9035159898931665
Ni 2.2864801749612833 6.000727390490691 3.3265277550011314 0.11486609061297635 -1.0436801929512993 1.209469552776704
Ni 3.586672179053546 6.203091028551394 0.633769362274737 0.5023621902566962 -0.1840177099079734 -0.3268224359127468
Ni 3.4683765211961024 4.423139199488901 4.592143987458681 -0.5152837834143706 -0.7048296222294248 1.6244162924322088
Ni 4.624564578841978 9.023571764370747 8.519861009370956 -1.1190906486718146 0.9356370387974273 1.2411835960505335
Ni 8.758973426233233 4.646904518670545 7.011360560046475 -0.4225849729270529 -2.2556959091886246 1.1599940717543957
Ni 1.7953392718675536 5.0873982167266405 8.31884658733182 0.5036361718731133 0.002863437590724101 -0.8834315604384655
Ni 5.794188501181053 4.949164561332152 8.163767435100619 0.5061995617249153 -0.9883919619019559 0.5701932909680567
Ni 7.341799326474203 1.9423362635912664 12.376046125672557 0.8504095969864902 0.8704590594381976 1.2082251388466418
Ni 2.575229292233081 2.988063123588373 13.677284288223824 -1.5504829354778522 -1.6431133546210797 2.166852467891655
Ni 0.16484642537758323 1.2602972438440194 0.07044540202724241 0.42446727755143027 0.14169272388751725 0.014490223196375046
Ni 2.6898845063049373 3.6749154105057396 2.3614723786856797 2.6662720305802594 -0.3921423401664795 -1.6227998398747085
Ni 1.0608046774286508 3.6544801358536527 3.716980363144721 -0.32859341177024054 -1.031544328919714 -0.35635541237485724
Ni 2.691282511779299 6.261056651508507 10.746934396000213 -1.766578756867293 1.4776106727981584 0.37927885394025
Ni 8.530901499583587 5.601732875072877 1.0161360568760083 -3.9933286724455286 0.7424556601123148 0.2972652910809203
P 6.704093030662269 4.337138406347933 12.4263621253864 1.0972792092236778 0.22111667164279983 1.0861992972604326
P 0.7915638352058059 3.080162598328908 1.493491124778594 -0.5756188328590022 -0.7392471804773463 -1.1505444963057216
P 4.173815713111533 5.083410617219233 6.640353363618427 0.7819691448259048 0.16836611941364552 -0.6086811626306098
P 6.876629424407551 1.298962885185273 7.077097779878851 -0.16895747314074128 -0.7307211452842061 0.5255571403159207
P 8.094714408995493 6.361525393921063 7.836621018477948 -2.5281603391757814 3.132167750479806 -1.0790241196682322
P 0.04653575538081764 0.3042219416192526 5.187195165904538 1.6250081603799367 -0.6192558528226626 0.015220416494180237
P 3.6421138860871465 1.763870074813789 3.816293170829482 0.2521051496045142 0.2285214487473032 -1.153214329828401
P 4.586677692228053 5.439817569897917 2.450526265661262 -0.08370432029819133 -0.04593352930732089 0.3358765756952151
Ni 7.341414640404077 8.98596635536911 13.69380420928899 0.9452874174029977 2.7500591404002446 -0.18484354824337842
Ni 8.38812667204419 9.164498222256121 7.096103148260517 0.20485907213335683 -0.07461572773336182 -0.04244119988334626
Ni 5.586373580029045 2.9090148274709104 6.443307775912546 0.4378316146734782 0.7915490752048562 -0.49528445747430827
Ni 1.8959956660216348 1.6494775731800682 5.03824002825801 -0.9256377614928702 -0.7336938547592847 -0.7423409889113216
Ni 0.23383564989059064 5.626390313909279 12.574973860345937 1.6552636168303687 0.4575483763761153 -1.7152831919171105
Ni 6.135367515034973 5.4340848091943235 0.6208514163881469 -0.29653098401805705 0.8709889637997388 -0.7840622799095076
Ni 5.002204326074231 0.25333735712859 6.321776063772502 0.07747273756618271 1.2385381880078863 -0.5660000788223155
Ni 4.739257323262139 8.765287907335555 1.144534884497165 -1.697997151143153 1.0186379052706909 0.7556207367393633
Ni 7.5309335167573845 0.6271555766446838 4.4662728287958675 -1.5952252726905494 1.5817082120407213 1.7953105775843468
Ni 4.172098699676578 1.4852541515843483 13.389851547918825 2.4462365078167805 -0.5445110557106042 0.5986168364160722
Ni 0.3357699524044579 7.1992309158504835 6.68601372362503 0.05982957056312277 -0.26511596004188537 -0.251854724156605
Ni 8.6778984913073 2.2569437908452277 2.8439859929627915 -0.06719012469325203 -0.8990283864354581 -0.6963745494835362
Ni 7.626223071103847 9.203811262105637 2.5132835758382197 1.2403181627264444 1.7825458217195107 -2.37575022887076
Ni 1.2934553065715104 0.6301683253548699 10.14114484664558 1.261867092541814 -0.42930018016369936 0.5140740793769857
Ni 1.7294078324826985 2.542587271794784 8.502956402235665 1.2201979949378017 -0.9111981890287727 0.7160576297347604
Ni 0.3382272519597295 8.34110114561799 12.621718847418554 1.591788993315491 0.3221337721878259 0.8172277109178828
Ni 4.696125570472588 3.5664527039042127 0.8995058082246002 0.31426362541112973 -0.35781759874268054 -0.26624133189558025
Ni 0.19406286327433878 5.070622151034295 5.047935055483906 -0.9627860884083936 3.064591188981412 -0.7019744121688168
Ni 4.596416817613208 2.71872657897735 8.74825757353344 -0.17387547926764893 -0.25881187220072843 -0.14764431348526183
Ni 5.370442721056075 6.973701670298503 7.118830588935333 -0.35618803355905754 0.07247656990317196 0.4480131831921703
Ni 1.969817861137622 7.682302794058633 2.0415768253555404 0.3061106572866921 1.7465424070417082 -1.3707060031241038
Ni 8.843510535790305 1.2445438801429847 8.995344251151828 -1.5765734619173168 0.316047713894746 0.6112054717143602
Ni 2.320248105848731 6.122888674223552 5.955685342972413 0.36525708573986126 -0.7810126944499065 -0.31825037797301964
Ni 4.31338169587085 6.774762676520633 4.373991331866053 0.7945397824020638 -1.065333766665333 0.5696271340519415
P 2.9395739135782786 0.049783068767910055 6.7042225103639215 -0.36853241405702336 0.025631584525175208 -0.11958509335520051
P 6.862705665186388 3.0296748972715712 4.294481412464439 1.7889882349107447 -0.3185288284453869 0.7986306646419858
P 0.585184449876465 7.235607205945131 10.610641059613092 1.565346739963562 0.21877773909697806 0.9477621041957355
P 4.486865730910836 6.760838917299469 9.335660066994732 -0.16341674582817017 -0.8980883911196921 0.2811493593556642
P 0.9244437864145828 3.825046186312922 9.844375493940998 -0.4884360670939072 1.1704821157699132 0.6491264151298497
P 9.023384112629222 1.1353493317495098 11.336644067623556 0.1083938526250714 -0.39531405302624173 0.82394420370611
P 7.058116806223584 3.1022398257193395 8.837819996728555 0.6342965492058689 3.0273752420527473 -1.3377100078140574
P 6.177439035484908 1.6450302269059225 0.7215040575073977 0.11734746227393338 -0.10428985775902684 -1.1470663079491343
