# total energy = -381170.0262783944 ev
CRYSTAL
PRIMVEC
9.21992228024152 0.00000000000000 0.00000000000000
0.00000000000000 9.21992228024152 0.00000000000000
0.00000000000000 0.00000000000000 13.49428822115626
PRIMCOORD
 96 1
Ni 0.4331851383591741 8.91687261185704 13.220448337935949 0.21235769450324718 -0.4456799070733034 -1.375506766946857
Ni 0.42497756358484146 0.16328482279648587 10.678218896022612 0.8842473714715416 -0.5807736375870644 -1.574683701093772
Ni 9.171130407354426 6.7822485560518 2.3774509917146474 0.9599519613937079 1.5105758148702695 1.0363299232338152
Ni 7.396867012136461 8.23683880750919 2.5220553300691253 -0.42255926189543996 0.5638807184864676 -0.6488284242734568
Ni 4.786743906862945 4.949871990981421 9.238419243815933 0.03192410240210631 0.3021709559126538 -1.499310012148463
Ni 4.708245488947119 5.752143524331858 6.862533794896929 1.2552238761936834 -0.9410558958201536 -0.8030578471754041
Ni 8.339262923626986 4.083494338325285 12.822380961380814 -0.5603415949849575 1.3318473783856932 -0.15163980779790012
Ni 1.5626293002168046 4.554604704809307 9.187734565308926 0.5923775403745798 1.8695992609955931 0.7998663368212999
Ni 5.897219000712586 8.101435029553844 12.754706732169847 -1.4636585814934406 -0.7019561573363717 0.615925760008165
Ni 8.974912022331567 6.217933995685808 8.533085972852977 -0.7842705392655719 0.6151341173448052 -0.041480635742289856
Ni 8.962077890579296 1.9705831993854162 12.36567948936694 -0.7046313901756898 -2.079199447358361 -0.46476880538395443
Ni 7.45443620657696 1.5824982326350108 7.745249149754951 0.6099407460693238 -0.11052683980767417 1.2383888069142155
Ni 5.1933516973851255 0.7210357205227927 11.628905361587593 1.4151891731381432 2.395604801702842 -2.409233191119554
Ni 6.415673667877578 6.972317252943362 8.26638497030612 -0.013975231233169478 0.2821760008479656 0.6319640444179504
Ni 3.4443785488600334 8.039845949018524 4.921529028036268 1.1438678556164945 -0.8400555074456759 1.2165503708828855
Ni 5.317949726480084 4.516996642009372 2.383348053976682 -1.3320828914352671 -0.6943608614876171 -0.055395188940852984
Ni 3.2134194968525818 3.6066215204438707 6.050838579029255 1.1469413523354957 -1.034898075883295 0.8698353098112697
Ni 1.4726059795061957 4.6076469174320165 1.9528394590425684 2.2080317703434424 0.5731757706351482 1.819998824359646
Ni 3.5686815404434453 5.898242412080763 1.5482941651245419 -0.3967746967321683 -0.2175037574805609 -2.0066740264951246
Ni 3.6530807085902004 0.16087473512404085 12.988508286202606 1.5812585260978123 -1.5622087085552128 1.1174664828048304
Ni 1.3868883624797173 8.821427976871766 4.979595176285279 -2.3176124441877635 -1.1444756644038225 -1.018542003122775
Ni 7.711211040844726 9.01500024421294 11.69038564704053 -0.5443914994136043 0.07424883131224633 -1.8985599098940014
Ni 3.17814407437831 9.03625216496652 2.774021052898684 0.4913905217365408 1.3748575633986322 0.5166387547803684
Ni 6.270174075074001 6.452101580631328 1.3562975824934687 0.33510293075398423 -0.541195618184126 -0.20156497476311738
P 8.998671761933291 7.081471912293311 5.485077412864462 1.5185961140715845 -1.0699514679430024 0.7923507451705452
Ni 3.7396373385401387 2.7369892352384873 12.938782479608122 0.3568071552002952 0.06552276429315812 -1.8639559466668867
P 3.38102846317767 3.217476262636345 1.4442934423044196 -0.3459642989485203 0.6877621252241768 1.5833619455940602
Ni 4.596020595492639 6.634379443233616 3.2792469756397113 1.1115028090222274 1.3942351965942954 1.2862059263974945
P 4.8681926998942355 1.7264673183474402 5.627833156810658 -0.5854515026787078 -0.2304250935279193 -0.24770162122017986
P 4.936835020939963 8.657866556408203 8.754567866794222 0.67839508218698 1.0149350024978068 1.3438737134226082
P 8.272962462829158 7.098676287185362 10.665035329217604 0.9120790489718292 -0.059728269098568106 -0.8567339965426214
Ni 7.03053184194037 1.3873770183582161 2.6620045296867345 -2.467575892724505 0.48819489761737855 -0.6878875950584474
Ni 7.556666704327805 2.094471294468216 10.436617287778345 0.22298303542757728 0.07773421875768548 -0.055335796457827276
Ni 2.2352041874758704 1.1283801828316162 0.7749934714235198 -0.5467240042015229 0.97101284719356 1.429602520349996
Ni 1.861871096302787 2.2980656172797347 2.923200316666579 0.26515761191309817 -0.8591246082619849 -0.9671155690216827
Ni 0.5638194505419278 5.523968888839626 11.527914021385243 0.17964503476157448 1.8073063164936423 -0.5457189599757762
Ni 2.2423311873641643 6.866620064431847 3.244337584078202 -0.8153814017377635 -0.2389426440806272 0.3729868502839512
Ni 5.780983441085522 4.1112370843328865 10.98138192503549 0.9702518006578194 -1.9108652096239154 1.1857842933446223
Ni 7.266368232810574 5.522309302837177 6.483667828390127 0.6596334853087608 0.7092624611897979 -1.6695959742926405
Ni 5.187331088165131 8.50997900374555 1.4367506239232901 -0.42621665614236914 0.2641445972675515 1.0291660584955242
Ni 3.948265738892419 1.1405597001051428 7.573655333039538 1.277450805912684 -0.4757764693483677 -0.9419835498407455
Ni 8.815388927807298 1.3484597266007927 3.9144369222169484 1.936629205961897 -2.2211485102310586 0.7666865076352215
Ni 7.387222973477787 8.200641392811336 4.869602426004094 -0.04381031231673101 -0.9755451878462746 -0.6310068227110035
Ni 1.1143013615775093 2.987171825107637 4.966032670676378 -0.6647216984649456 1.0684741120665275 0.32050394989388675
Ni 0.7293760621773214 5.316492978766823 4.391500592488644 -0.8050409390437039 0.1508831321375337 -0.0062606361977311535
Ni 0.6713910492439854 4.314453390332737 6.9157548740110135 0.3043599931441726 1.0105620702410918 0.5762011877250334
Ni 0.7641010552941144 6.467775448432232 0.2863781605825572 -0.2325935619341478 -0.6834778960265261 -1.7999606747618486
Ni 9.21558887237558 1.1050537795749753 6.2166699443472755 1.0961867474904476 0.30463561540306244 0.7996189966971842
Ni 5.13716549128 0.16382050027838738 4.144783771387941 0.9965238469804708 -0.39729328823979965 -0.9245514704072271
Ni 9.02699536304175 1.2266922136322334 1.359427746092532 0.0425332453765203 0.5564633429764738 1.1821819207053448
Ni 8.098291036071426 3.415898209073566 5.759631945171796 -0.8428847493643549 -0.9756107509768875 -1.3775212262737244
Ni 6.976171180437937 9.15863741272488 9.435934871897373 -0.22433466435946525 -0.13392490701664034 -0.17167872872664627
Ni 0.6583743630314457 2.3593965399924524 9.185237810367463 -0.2184751202548947 -1.0265355628512127 0.2620645748100713
Ni 8.605174700830457 8.459472269737692 7.55176815964391 -0.2528631108164613 -0.28784451198765265 -0.2985937800843567
Ni 2.112413263139134 1.2811174145903166 11.762390473725663 -0.4710546383926662 -0.22285036650445492 0.4481548509763572
Ni 1.4926593103691181 7.075801660118278 6.850942508662048 -2.0665897290141504 1.9427885406950736 2.047040346127313
P 3.053675124194653 5.8431625966439364 8.266951995523623 -1.1064824729895009 0.39846314017818474 -0.12144914314713279
Ni 3.4977157989942893 5.329760446864177 11.262548985570358 -0.4707710457139763 0.2160716530197246 -1.2543425020299948
P 1.5187701301409786 2.3131862897464903 7.196071857715738 0.13937564571856642 -0.45459160774063645 -0.7681756905862384
Ni 2.5707816970932442 5.6929977231890305 5.740767062285071 1.5414740471110226 -0.2034418800708561 -1.4911652715541415
P 7.5703582888480065 0.20303375153958073 0.14081956027667122 -1.4989186902473153 0.6260985867761087 2.7934696461753954
P 0.9978906234279649 8.926074094248396 2.5417029843536714 -0.4426642601754312 0.30183748383263503 0.6314601081983383
P 3.9743857785865147 6.896612471464991 13.02510492353327 -0.46031231227449754 0.5316000040758908 0.29131627258633697
Ni 4.231833667177496 2.3338389155547414 3.501646251843422 0.7088824521425598 -0.021028538535525075 -0.12072846293102435
Ni 3.1422416971920017 0.5674557878717379 9.85012881443519 0.5793387049127506 0.5417592039970798 0.1509363539729723
Ni 2.338955972395625 7.815783398843469 11.961607177459612 -2.882808796161861 -1.0586681817196992 0.001985405861144968
Ni 2.2066869680004593 8.067837632926492 0.9044642294201123 1.1752908500124664 -1.673877375276814 0.6163438213821902
Ni 8.884897921543194 3.3623120210389423 2.9946657779009165 -0.15604385040286672 1.4451916330375045 -0.9399055842657942
Ni 5.098248199522576 5.133117945418471 13.007576007378516 1.1966276638170295 -0.7164245261558758 1.0923956558791315
Ni 5.462472007526663 2.3630107495088963 9.310842654970575 -0.3647212678410493 -0.5419702915666215 -0.17828466407893812
Ni 7.635119022632452 5.587106916310565 3.583435260005215 -1.6613550744400873 -0.4042671484544715 0.7065221794404994
Ni 5.9005934922508985 3.046336066094935 6.887983546244481 -0.4809410442684427 1.7353799626669857 0.39143168725270006
Ni 1.0875174874824336 3.0162053602282546 0.3185178875044245 0.0019427255486676222 0.6710921207676636 0.5003593008940543
Ni 5.721275224686311 8.946348703244977 6.558453383621586 -0.964010704844114 -1.8897842205839004 1.510160838820038
Ni 1.6570874035228464 7.358917812213799 9.564454133919227 0.4529918673536843 -0.2964232547955991 -0.11982857682457426
Ni 7.029923327072805 1.0175106179458036 5.487857219418563 0.40464201529538696 3.9377365370025217 -1.1513816474950365
Ni 2.4739356339281233 4.849089021021602 13.264304742035105 -0.007604294709819161 0.18578251511788005 -0.3011227171537975
Ni 1.4326837162250672 3.3953654422543798 11.519210414794623 0.33223589361883427 0.9759712196400997 -1.356933889040676
Ni 6.19809272303431 6.379826610224685 10.94188377817721 -0.4974215584219691 0.423285084317871 -0.8764726126221293
Ni 6.405540973340404 2.41007845252279 12.733641975837655 0.7264808819506133 -0.16013036176741455 -0.15150482488193262
Ni 3.083215755038241 2.984507267581483 8.493426477355568 0.749373984498703 0.6132500129482148 1.0577832080115848
Ni 3.7229584992155287 7.77612851330718 7.3534153626234575 -1.1800885285114255 0.10888776154235441 -0.27411919198176016
Ni 8.586356839547134 4.305510065763984 9.76252387932704 -1.5163404852681885 -1.160422417541066 1.3002935148388122
Ni 4.193423471143043 7.973407189387157 10.839584131009598 1.8516372772005336 -1.235228921128995 -1.3349332163998686
Ni 2.667738399325195 1.4275297796952402 5.307734974635012 1.2845560494988972 -1.3187884883192063 -0.0023343045601314635
Ni 1.892130881080769 0.13992430582757248 8.036105426567449 -1.9588563927912135 0.08522435648714355 -1.1765494050099157
Ni 5.168716065170997 4.5873446486687275 4.696781437639093 1.434236933798214 -0.5372443468458619 1.1591978011053456
Ni 7.6204040267440725 6.63342057132109 12.74856718595301 1.9459677097540038 -0.9287961046161939 0.5004919698171767
P 3.6584743630981587 2.840842439302836 10.65510362898517 0.19028528808424003 0.00103898278747563 0.0833929597053596
Ni 3.046548124306359 4.407251907636329 3.784877652966892 -0.6015756619340801 0.5671912709169393 -1.0351053067980949
P 8.825586161800123 4.9684870139755555 1.360291652806029 -3.401926094389709 -0.9209496119885817 -1.4306954963038587
Ni 5.0472067100250415 1.6559625730100753 1.0602965890733795 -0.1134470987782627 0.07252542086323639 0.9096665828755947
P 6.865873250730745 3.326363544241455 3.6825641759159256 -0.899200393236948 0.252008733235966 0.46158860788375994
P 5.913243225558452 6.666833569503725 4.920962002818764 -0.5951090803731299 -0.2148292959721913 1.1514191856011913
P 6.959307942668611 4.7796998862747735 8.419140641909292 -0.8139562392554628 -0.5036197168128811 0.7878726547945335
Ni 6.92950915400242 3.551993481196599 1.241657069413203 1.5126558373277499 -0.1941619974308269 -0.10695660595791256
