# total energy = -340860.6888804603 ev
CRYSTAL
PRIMVEC
9.35819725785070 0.00000000000000 0.00000000000000

0.00000000000000 9.35819725785070 0.00000000000000

0.00000000000000 0.00000000000000 13.69666762794357

PRIMCOORD
 96 1
Ni 4.030079592103429 1.5857090994795218 2.2834123065450505 0.4655715037909079 1.660711527318817 -0.8427955320846582
Ni 4.547101276463311 6.6185008157465886 1.9228063392952244 -1.1443016007198035 -2.2572208304735835 0.5670714575096234
Ni 1.7089659161010105 9.46235403465841 2.0526644282912327 -0.06222172494438316 -0.6541860890409443 -0.1233684716570327
Ni 8.000641049386974 8.297660873451164 5.69504700778476 -0.5711962783112744 -0.23813197525387375 -2.770247442422661
Ni 5.976696928605525 9.11444433368376 11.074179991159209 0.029210560125685178 -0.3743927294925423 0.11051501273313225
Ni 8.999151342963486 5.904301914302599 1.3528228731429455 1.840255003505521 1.434251331975917 0.27928016735740935
Ni 6.247233054314327 7.660863621864918 1.1363237860961644 1.1624443330671013 2.3589203017976152 -1.6773033702392275
Ni 6.865117389159852 5.66916784897487 1.9996727002674803 -0.921552021459271 0.21437806736738563 1.2069228750954504
Ni 8.232602685830438 1.3168293746925948 5.2217309122691065 2.5884395956818134 0.7029696862025507 -2.708586475077755
Ni 0.9122417517782273 5.8511567118431485 8.495193702032621 1.301740531697984 -0.06380063939572883 -1.6260890521489417
Ni 5.525060968771824 7.831641364369326 5.682419056349863 0.26269346664332177 -1.4620521562382691 2.2529810813606233
Ni 7.628315811659958 3.2736097134611053 6.447240190261567 0.3986963392349133 0.5833054028699826 0.6549391651568849
Ni 5.333723266802122 2.4279000653781533 6.019438623127986 2.266500970223929 2.9099871563488655 -1.3522506246323938
Ni 6.369366887259968 5.424404198626754 5.837711789784072 0.28288793931332573 0.935490485917234 1.3981206476916308
Ni 3.5803807791105644 5.9320021783068215 7.174505942593764 0.8887051501325791 0.3729786227538351 0.6966519715146389
Ni 0.29707222996906163 8.037400048376362 9.140607981691533 0.9068018597332899 -0.0189081497584126 0.7178347762398412
Ni 2.2554191309653784 7.017936751048008 2.0213266329969968 -1.6177882455927302 0.03531281636868112 0.9109115110262893
Ni 2.249411168299598 8.746629747054728 8.08369130713423 0.14107668757007316 0.25154413489472166 0.05897467876199521
Ni 9.205639966359822 5.984230277430998 10.411124573772474 -0.880537269609806 0.12205258105908658 1.7152019450572138
Ni 4.706705331393042 3.947362486180011 2.288069881340625 -2.028017268057591 0.9499256875059575 1.0124533737265338
Ni 8.904062700211156 5.453433326647395 6.235380897435493 0.5341865338561446 0.11503578342162124 -0.31366558681581463
Ni 5.852747605383931 2.1036853199638736 8.369444797470482 0.9744635247463218 0.257381310401789 -0.09414402757427658
Ni 3.4181845035290865 8.380069158863725 0.6639509968682223 1.5506755111046324 1.184262200273141 -2.57722804323671
Ni 3.9956507842414246 4.216775628212965 11.993062319740611 1.367592911416419 0.5537983945498011 1.2623278342283164
P 6.954862501254611 6.834890411884975 4.261485351627347 0.32705563496947543 -0.7209848918330487 -0.541113857103597
P 3.6893008374704084 8.324603123474189 4.79455915181373 -1.4451628366820983 0.6626709865835039 0.018154559421839703
P 1.6127636478701315 7.174546182842148 11.515487308634308 -0.03492329423974631 -1.7029300696683962 -1.5456420624457834
P 7.994979340021247 8.647816541777505 10.097320822853025 -1.7183204360815374 0.6159198464708942 0.21072607243709518
P 2.2089369649826183 1.5365785636612228 12.342560106796853 0.9126315790411896 -0.614070194856665 -1.9917593141668215
P 4.882620724214449 4.922271406169141 0.34592482732758856 -1.5509351925239225 -1.591361675970085 1.3657694850544349
P 2.5768170589927424 5.5015438189601324 3.5319455573515603 0.7340808057850583 -1.5269498853529186 0.3925534595619691
P 4.249819422874758 8.117646590212917 8.060242472162816 1.181542487349133 -0.6778410094557229 0.17502836192516955
Ni 7.723310872439301 4.934034660173636 8.41697227409151 -0.21919965712574507 -0.3129333366354804 -0.5278209966494329
Ni 0.3719256427023623 3.767273337363373 4.556361212690398 -1.2269178301601387 0.47117445179998213 1.1031222982680164
Ni 4.297639811071235 0.6979418410966463 9.469355837877314 -0.2766900380327299 0.1301106754768727 -1.0256565026803692
Ni 0.23427123953678722 1.7739305217487498 13.21887293168609 1.5726669277740593 -0.17268814382776712 0.49128124985218624
Ni 3.22261689638036 2.8633931348715556 10.281718485705994 -1.5811379413595479 -0.3306389814453596 -0.3977532585953537
Ni 1.3015287221091818 7.7243215577475635 -0.16295990448105355 -2.2614451529675765 1.169312006721212 1.5564018720654484
Ni 6.618809636257446 3.4862279560881055 1.2724836851531331 0.4536140743187156 -0.16708185338458323 0.4019433854173013
Ni 9.34834311696806 9.343439421583527 7.219211922729226 0.7923355756618934 0.27018334726246374 -1.044413214462582
Ni 5.844577899142146 6.537786364045098 8.665059956120134 -1.5292965312082243 0.5153652873845833 -0.5391999279103359
Ni 6.3172698028979735 3.382043145561416 12.08361130098333 0.7608339055091865 -0.03457310998917917 0.21427753723377937
Ni 7.203631460046581 8.68203011110164 3.1148001694820358 0.37394895708690434 -0.5997164972381543 -0.13974639879442385
Ni 4.2581388602733234 0.7532852841015678 6.907681277933636 -0.8026618972885661 -2.473794105720075 0.70447995219949
Ni 2.4539064956713066 3.182133334866082 3.3878162174749984 2.7301235778185817 2.0095888861490745 0.8064337056261726
Ni 1.3549265958956986 1.12968414511272 9.834810287147608 1.2166298179705692 -0.3600732275460766 -0.5156635353512925
Ni 0.053033839911596596 3.7011857480397876 1.052253484843351 -0.9164008162756346 -3.879446028791745 0.3615886357493385
Ni 2.3631694146628823 3.1964981677196227 13.757343604254645 0.7934326653808143 -2.8447942645913002 -2.509071955085763
Ni 0.4765325079272247 2.8537822662457666 11.020051242163662 0.09310067391142675 0.6089894378996479 1.6917090041415963
Ni 5.355724388651422 4.181701104737349 9.519936894276915 -1.8616807774794648 -0.5167246296259552 0.8679416923329826
Ni 2.8129337350368377 6.1714597307865615 13.085262205573292 2.2086874016495703 -0.6471001287284404 0.9930947666942639
Ni 8.270363011930787 1.1411385786063577 11.131405367640903 -1.0871781162339342 0.29014025000036486 -0.030077793221986907
Ni 6.405180708322184 1.0289525093892589 1.0046455277255542 -1.9439979876221425 -0.7604837212586193 0.09139706095675872
Ni 5.997911961881732 6.067462084205846 12.87508645244126 0.3888053053734465 1.4650009544539477 -0.9810059538505297
Ni 6.557457294767014 4.298248093895653 3.9631722246964745 0.32815529579155744 -1.7250086467349903 -0.8834714125374655
Ni 0.8308441516739293 9.09384694142927 11.523650464137983 -1.6154755382991532 0.6873841730594678 1.4486387110458405
P 3.3000934118164933 2.60198125152901 6.0890177558637255 -0.9116509602954752 0.5844320602752581 -2.0481993994324212
P 5.247216090972721 2.274088734576332 10.64467991121591 0.11760817213448778 -1.3509401333510862 -0.08812610351497081
P 0.5581453465693933 2.2247897512066563 6.579783146062579 -0.9291776563253288 0.16451254999551024 -0.2480644038762373
P 9.363718635129864 7.917034914720178 2.262799005355152 -0.26370185330317814 0.36769500575739256 -0.9845918714295753
P 6.7336440753100835 0.7770186082708608 6.32412093914037 -2.176066530290756 -0.9100579047767424 3.1331278004002296
P 0.9969942656141179 4.985439237935525 13.364523914443422 -0.7937584241513491 0.8189665479858605 -0.9506196282491887
P 0.7065607408087706 7.281407437796274 6.8952451695433625 -0.43441796100623886 0.6157455256765589 -0.34439721157171654
P 5.51959578154937 4.549384676604199 7.544179067206323 0.32508899816140785 -0.706373569677777 -1.6829914217629403
Ni 1.965773566372584 4.602230416750092 6.073773252464105 -0.006327999100556844 -1.5766894186698912 0.7973669674382139
Ni 5.527419234491103 0.38234412375503124 4.5475953892806835 -0.3257744542642067 1.4372489811516602 -0.9537059804839964
Ni 2.0999888320308777 4.609389437683616 1.5140711633380624 1.158344966186747 3.211906915482662 3.04681535305523
Ni 3.1413503110382446 6.532096580087473 9.817840132166104 0.16470615406355504 0.24548250208167405 0.007717937469547997
Ni 8.01667164135969 4.628190056056751 13.20603909991062 -0.025714116936652487 -0.4607473429293872 -1.493997598796614
Ni 1.1310598001156322 1.6848966326486934 4.233462229816319 -1.3217614549046008 -2.2923973783747162 0.34433113422047157
Ni 8.24585389320543 6.84709350116251 13.226063770490429 -0.2683110699404153 2.152255543914087 -1.4545951857395916
Ni 0.6918178367843615 8.48942905249661 4.165827730479254 -0.6869571128243782 0.7017849218658301 0.5923142912368121
Ni 4.0458013635652845 8.837001858368502 2.7420594277949544 0.45364441333601874 -1.5264477489055195 1.374105515723956
Ni 2.9643680837247834 8.742755453373057 10.72305294195326 0.5571899367298533 -0.07817567717047827 0.6806548247554342
Ni 6.39075972628485 8.96597653353951 8.199702071587314 -0.05032625905837784 0.7091740152410496 0.5174995601187669
Ni 0.6753764199502339 3.6177574191216664 8.946430066841668 0.6490747359563079 0.5391572475978585 -1.0662210543662927
Ni 6.655082008987298 5.523966059687874 10.668347728004111 2.0822294924339366 0.6039724443010308 1.6450445102055216
Ni 7.989972704466431 9.51513426742321 13.42452867552284 0.3531353627756628 -2.195931901756115 -1.1018352040254766
Ni 2.40079872600105 2.1820789387352812 7.922851034341336 -0.4533423087145676 -0.0718402218707537 0.2500649792460339
Ni 8.668909918488827 1.0663946567814522 2.4117777630719126 -0.18200556457395106 -0.05654601471584455 -0.21039054347454733
Ni 4.60612342682636 1.665674895397115 12.96840171680548 -0.7948969086311666 -0.012156947077508095 -0.39967747220126004
Ni 2.0464412270875814 0.33862636925431405 5.7625579789174814 1.221240577269703 -0.46160840537810177 0.933434888939786
Ni -0.015881796635663848 6.07315186816347 3.649860714954938 0.2547868102017354 0.5119086962945506 1.3703658461758657
Ni 8.860303769642323 1.6887522099357675 8.574552150945529 -1.8934837809226743 0.5499543382133625 0.35375808396132624
Ni 7.806196425914096 7.187273331168412 7.538317092418403 0.9384128017703516 -0.7501514860946759 1.5707056902826304
Ni 1.8298176760167273 4.852506045307156 11.389039346733954 -0.3482844624412647 -0.0407337302739363 -1.3977496375054572
Ni 2.0110485249038086 6.767754704463932 5.204980674924121 0.5752071992428803 0.6573932831243323 0.15416283133006997
Ni 4.282956799509538 4.42642732229627 4.907954300121823 -1.1424604337460067 0.19087509914943904 -0.15152590792785517
P 6.447554625690804 1.53439810369062 2.9372508354122724 -0.4781022892680669 1.0440779426103501 2.2706319616731667
P 1.1799283064095671 2.135540623568729 2.1176833114833045 0.7106115190185246 0.4657404252686043 -1.4743255742889834
P 8.478676483800376 4.165165170110504 2.887065630758407 -1.0091731603133653 0.9213224219469682 0.3380841248694952
P 8.033806500613652 3.8742281742904856 10.219480858751103 0.8872275371457882 -0.7224699610190073 0.7885167161364356
P 5.467798159500935 8.9961099288414 13.284575899100698 -0.18803454437685038 -0.4087858622604314 -0.5018626249124583
P 2.7637470500347465 4.602183625763598 8.932391835073851 -0.4781650241852023 -0.8217939901323266 -0.23297897029802458
P 5.092712253570793 6.952167340432579 10.861046111861047 -0.33854383811473304 0.8463071447823425 -0.1174528775035461
P 7.617610033950217 2.328899696154956 13.60225675116101 0.519381607632828 0.2936750026265007 -2.2460488730171644
