# total energy = -340876.09016208886 ev
CRYSTAL
PRIMVEC
9.19225648737815 0.00000000000000 0.00000000000000

0.00000000000000 9.19225648737815 0.00000000000000

0.00000000000000 0.00000000000000 13.45379653680272

PRIMCOORD
 96 1
Ni 4.277405057638726 2.050875115788936 5.062704111372133 2.241077130834186 -1.873468257032696 -0.6468242493592343
Ni 6.464647295967446 6.4269866218154075 0.8539229240811328 -0.09653412507300795 0.4981445526309228 -0.6528809970762756
Ni 5.773159814130215 5.207992318672609 10.639477803758046 -2.2313236509918473 -0.6493722125920688 -0.7064684433844285
Ni 7.376923582407515 5.322371564089701 3.9560079268150794 0.15719878994291636 0.4665225548502675 0.3077528208758054
Ni 2.6318349076080767 5.467076063113717 5.977306038661716 0.1411767034830472 -1.1542453421960768 1.1120124016687944
Ni 6.267041361809189 3.746120218984735 5.905126603568565 -2.2530301894310036 1.1755034802439046 -0.10489046745750323
Ni 2.1080969113946098 0.977614844378241 5.780356431604864 1.150015363275129 -0.028443857162989722 0.7729070346236366
Ni 6.013427009879788 2.8250929045259356 2.882503141386214 0.3097150868084988 0.6404926507142519 1.5021243416688066
Ni 5.294684488047245 8.788992037341728 5.18447393087227 0.4103130975382353 0.9690608656735117 -1.0143845293109757
Ni 8.910247090487822 1.6509843890044225 10.173814644536952 -0.226683624207616 -1.1749987726933442 -0.6002368885179985
Ni 7.684928514995353 1.7556382272326294 0.8963617330694494 -0.3106766793908197 -0.7626961555289058 1.3479663954347432
Ni 3.0415337718883744 7.2872163529592 13.367463712496297 0.16236182220109457 -1.0218350720517497 0.416084967025006
Ni 9.16108538100792 4.786646865632089 9.158940827607951 -0.8827093375604603 0.9153309802502236 0.6316418851918412
Ni 0.5258981764491832 8.226223720784215 6.042960810217372 0.5024133552096057 -2.03115864190005 -1.1661354087654432
Ni 7.723177493552012 6.427492195913128 10.34957518154551 1.3446990375373808 -1.428647355525578 0.5323420244482381
Ni 1.496058100950123 4.3120414794607616 1.75913771921449 -0.07104189433917443 1.1146151293989643 -0.3746992049893676
Ni 3.8511417474658303 3.546786140637904 1.0979065490617685 -0.537712544731532 0.6318077213457441 0.9313327549951186
Ni 1.9474806166768701 1.1930721403142044 9.187234592567673 0.7344608148322964 1.3752483710791477 0.961111528919448
Ni 1.3240801774181488 1.898816811707162 11.97627362934669 1.2297792108683336 -0.6853020937194584 -0.1134229304085466
Ni 4.1040391034020995 3.101173130906785 9.674248605548332 0.49526594553154707 0.11586444997050367 -0.3141371271355945
Ni 4.959599168334216 8.48018737845386 1.2962432675976412 0.9264126919856821 -0.8313656929811617 0.7704161498809827
Ni 6.659918397019867 8.431422458664608 10.280368522146958 -0.13268332130005536 0.7538811283404372 0.47043166009668663
Ni -0.23639909428919154 3.216149872984819 13.305037261360997 2.3948422125052047 2.057485966940669 -0.509388243865542
Ni 8.700746376648642 5.723383746145522 0.46923251235100305 1.4185341783509762 0.5548381486682251 -0.9613850942958087
P 1.6257884144252819 2.3299795944997883 0.6065105874923177 0.33488798652970064 0.7897788706783109 -0.725876415597395
P 7.749108848636928 2.0881680996880876 12.02555515394125 -1.6974957860267021 0.004816704662352995 -1.5909852664672728
P 0.8325500089063937 7.631300891611659 12.978298510388523 -0.9771927507520266 -1.0325581148962089 0.28724801605423433
P 0.05511676890789014 5.016765810401956 11.519638185059623 0.251730796984231 0.17063846038759 -0.00716180785576186
P 5.89366110225789 2.965412697284265 8.230494443071507 -0.6488785607851019 0.9352454597859635 -0.22071069445363278
P 8.045641845334666 4.811631418315819 6.444126502953775 0.1927887712323841 -0.8710560695922483 -0.7662625327239254
P 3.4629803397484387 5.991622977883537 1.941369604673874 -0.6609563178852423 -0.13556398528196006 -0.8511511031382051
P 8.96368167648875 8.451323693602163 10.193336239288401 -0.5364475619761793 0.7418609639511095 1.0486305949780392
Ni 6.5723345787819785 0.4570509342728283 3.106670100187458 -0.8763970221891875 -0.6245065596986406 -0.8604893498199955
Ni 0.9678526681640682 3.200918304258939 6.274675530684773 0.3291428565158073 0.6332040874726385 1.0908506799895148
Ni 3.346064031586422 6.949897314959877 8.138282323775394 -0.44228450823850923 2.1081390132108466 0.3930255141023812
Ni 4.575096278633058 5.178788520336991 7.874399302308467 1.550338182369872 -1.776053529126948 -0.3625219461968853
Ni 7.005436927658588 5.318621123510243 8.202389119366392 -0.4417957415275488 -0.36519975013936457 0.36028894310130855
Ni 7.162118936670428 4.450090784907509 12.23202977699916 0.6443403065951161 0.12118997594847515 1.521990227354798
Ni 4.479064776835072 7.014518876904919 3.6973856336413458 0.8963819499515465 -0.4900028973603948 0.6707815315057802
Ni 8.742993986705457 0.266352980740701 12.66389668662607 1.0429847095461715 -0.07302190088368068 -0.5848498645389669
Ni 4.1700211192828265 2.8344046601803203 12.336202860221718 -0.31406333647486556 1.321687407133556 0.20687918788717916
Ni 7.651615778083713 8.555591457064837 1.2934157295529336 0.10129452257612877 -1.1679539500314209 -0.37558135048400476
Ni 7.647617146583557 7.4085633286685155 12.525255399872172 -0.04948216589052768 -0.7036577134085107 -0.4460231493453351
Ni 2.1714407497108654 6.129874512969373 3.854727646657119 0.34543747991077284 0.26289375557958594 -1.5132016825288908
Ni 6.808511220468173 1.6235271193700216 5.027212809712132 -0.0016568188771326304 -0.2385677772397117 1.1165043760018771
Ni 9.132497463845889 1.2220461322417677 5.097683404354987 -0.4327153764928354 0.580027246339343 -1.0348602806668241
Ni 7.976479308766459 4.090112835073972 1.9233013056469646 -0.3667316134028587 -0.7854283070190989 0.7874057424604439
Ni 1.7952200829560077 0.09589086027625711 0.5448167591858959 0.47734201406327464 1.1680678499014658 -0.594893107707582
Ni 3.1063759479851485 7.941677426330623 5.634853125506448 -0.3976694406322958 -0.19925638123459877 0.20304670151496643
Ni -0.054003586667272147 0.5434599821527397 7.463318841902943 -0.2963486928039219 2.1648243817180335 1.828839819690044
Ni 6.878749251026076 1.0539933021593715 8.453598777041906 0.9271770809555323 -0.7902162153260456 0.9549190269554909
Ni 5.616606496706887 1.5652849833125846 10.93690061086777 1.075270823273387 -0.10937344292952132 -0.5884692064591092
Ni 1.8080065115001829 3.6171804395532847 10.309361817812798 -0.8906162511123629 -0.5768298224479679 1.1149349746322281
Ni 7.401053255253281 6.946542141402276 5.894713615606782 0.2315720626481689 -0.8318418612866318 -0.5305484228829249
Ni 1.9536394284127419 8.553146316883133 11.334796618030369 -0.3086120835523072 0.6083651740520878 -0.5862773410141129
Ni 8.372353019538172 7.477992440670065 8.321576834065624 -1.1746537306490996 -0.44564211185683245 -1.417161980593798
P 5.1983496417906245 7.564629456506767 12.618839923037191 0.9780743820260317 -0.3855690578243359 0.21364376030452237
P 5.5466718106076165 6.73869603370109 9.14816474552144 0.3170553292236539 1.3144322682330394 0.6132240448062858
P 8.298741430910024 1.9660030131660964 3.1271467703707834 -0.9042582673758298 1.3548703216434277 0.2866998568602482
P 3.026348164444106 9.139566308957658 7.818848658902168 0.3906667840622175 -0.07499959343534181 -1.6992634194500864
P 6.5757908671591245 7.3192145972167655 2.888530503856678 -0.09098774133348202 -0.26821336802028645 0.25463048712952924
P 1.1397938226707536 6.4891078900408115 7.262897319633196 0.10463747090643268 -0.10261735515261038 0.9504401652485308
P 4.739463013930254 5.695972437792732 5.757753592534215 1.0675428585015099 1.11746185481914 -0.23768563174507448
P 4.391425805059251 1.0795569669914 2.9111057661583604 -0.3487022667049737 -0.3155324648212243 0.1864790269642724
Ni 4.762121925764468 9.24750178269289 9.186709714731675 -1.375684944395934 -1.2782861573297855 1.6264994002134827
Ni 5.478014848137131 5.110701477758481 2.4331461256550644 0.11859598996905381 0.1482912030406414 -0.6540050833783898
Ni 2.0649668447308636 6.14426039411361 10.608950320512033 -3.559392536171715 -0.14734040909159785 -0.22221736090614633
Ni 2.0108704162747375 4.640398067545943 12.947798603911474 0.0506522749392289 -0.11128685790215027 -1.4138493712807974
Ni 7.223615131465922 3.3935512277468884 10.064179522607747 -0.43836846101355476 -0.431904707666082 -0.6380285054444753
Ni 7.954206471697776 2.64566006111666 6.979520280183788 0.5310513306612725 0.2561687781509266 1.1348859638328583
Ni 4.000883602954411 0.2554472878400471 12.79921497271949 -0.7129741057134301 1.034314178355367 -1.0389316225227205
Ni 0.2984413091102245 5.744388051841741 5.305074495368223 0.26493649704122757 1.0582460065806163 -0.2505560599498394
Ni 2.290673506466076 2.3468381925946966 2.5443016467799606 1.2476157248291224 -1.8535216387074402 2.509613172301213
Ni 4.8857853500669775 1.131061179164667 7.287006769515053 -0.669447386075389 0.7675244301554845 -2.308077765224451
Ni 1.3487338088742797 8.131148213643737 8.817860318321587 0.7068181134143634 -0.7417928297173353 -0.20167064710304622
Ni 8.327862498938742 8.269611170624982 3.9949031209911894 -0.639319456341757 -0.997797828596888 0.11215100567465845
Ni 4.047322881894147 6.971499117317039 10.778482184636669 1.9192722027406879 1.5601348567453195 0.423103050214052
Ni 4.307601619657141 4.288463341994328 4.19632016462063 -0.7222740429581175 0.11792518915427433 0.36809301252675963
Ni 4.683923401231543 5.400165629344449 13.009471290028355 -0.11073844159784799 -0.5367995459989594 -0.3280015438225125
Ni 5.400579280878947 1.6137373663868821 1.0568668014856901 -1.2952508102085822 -0.2707243073675983 -1.7008809004488514
Ni 2.193686010010581 4.906320850690765 8.419412775779659 -0.17281875586836043 0.19459677097540035 -0.6898087233405604
Ni 6.365416888969335 0.20815864441613946 12.7170260897171 0.3941801965321147 0.5064983239122567 0.24362153761353525
Ni 5.674894594045935 7.72517221317393 7.224311904495144 -2.128805283310947 -1.1874555103994582 1.4084050603367744
Ni 0.5122605449695726 3.740972555444305 4.014303377959186 -0.04515165683597385 -1.663188013883768 -0.5979910299066152
Ni 3.4384645921371404 3.2504737580919003 7.298550405004467 -0.07862484889275491 -1.4546820890264431 -1.0968279806188723
Ni 0.31239975033547984 0.38713830958873063 2.3153583915937026 0.6245212149866599 0.5607527143804472 -0.045376885472902494
Ni 2.942119519763819 8.425511837849434 2.5468708824220148 -0.2203340278405044 1.2051156466833826 0.8431835115516961
Ni 1.2348049840169766 7.108381006210867 1.6397220365584675 -0.5995506610842513 -0.7966948810718537 0.28633218910818425
P 1.2994633149873065 8.72601588927836 4.0259674320064205 1.2726112184321954 -0.10854837592506467 0.9551555684463291
P 9.41167548060732 5.582420495444638 2.933277488407498 -1.33561584428919 0.8255560282779202 -0.22236442800697187
P 3.3533902598752126 1.4259671464933745 10.992558803673038 -0.4530322336733166 -1.329537242195278 -0.5868702374031054
P 6.01728775753511 3.776132935876707 0.6533285873925289 0.17364947929977192 0.19416971074031075 0.2714349602813777
P 7.174942134239891 -0.2271112385012442 6.556721531418727 1.556318825433339 2.4111934001697186 -0.41165007118210395
P 2.5818474177279724 3.0903998064971705 4.852447794063267 -2.242445471936622 1.2653439953468208 0.08137464372375018
P 3.5384947254352825 4.761561198128815 11.055186565221796 1.327685790808836 -0.5892315385464304 1.1167437457061928
P 0.6460510780622458 2.926382376940219 8.482148086727385 0.33533021627344184 -1.2681441837997773 -0.6612473667630999
