# total energy = -381174.7744107246 ev
CRYSTAL
PRIMVEC
9.15119454479008 0.00000000000000 0.00000000000000
0.00000000000000 9.15119454479008 0.00000000000000
0.00000000000000 0.00000000000000 13.39369823322318
PRIMCOORD
 96 1
Ni 3.034453664998711 2.703198734178443 1.6854633034008657 0.29929980501244585 -0.6572421022584487 -0.40115791340152845
Ni 7.016586708026186 3.8481961634350834 4.960288643392027 -0.48259812025589144 0.29043952640833853 0.615097864790231
Ni 8.37629860885131 5.909328804011349 6.881333886695246 -0.8439502145143918 -0.4025149416500552 -0.241295717693836
Ni 0.4601193034190785 7.291378770092351 5.418487111130151 0.1338565156725501 1.5698281727736836 -1.6278821394936223
Ni 1.5972311485581483 5.513924001235447 6.117049017785867 0.2172037097416388 -2.6403463118534334 -0.7806198298868621
Ni 6.730822364009266 -0.07791967400009205 8.08264135976139 1.414836417784415 0.7992562140411267 -0.16728779874780222
Ni 4.936575153634732 8.388991315328123 6.789011148005999 0.4170061932876947 -0.3727567365510161 -0.10093842478829067
Ni 8.755542402515422 4.837284695614954 0.5992028146787821 -1.6858132074824517 -1.3035498169925808 0.8293543189780879
Ni 0.6356547668843288 4.245431205068493 8.057220257150039 1.6541978945700158 0.3760549476863137 1.7569808287662128
Ni 4.668179776375557 1.589168946390828 2.822346368682747 0.24162687578100964 1.4961244153316298 2.0530916945277156
Ni 0.6736779791490453 6.101439825689615 9.972318139285788 -3.382995833144109 0.3131747632223251 -0.40610420166321026
Ni 5.440778505295163 0.9525935693611731 0.8195443556146714 0.19023463735196267 1.3685035961561463 -0.8737161329229147
Ni 8.621587220534455 7.04221005203129 3.2986806732599128 -1.2776315544649222 0.2699668603762834 -0.9011750004648157
Ni 0.5444219354347277 2.932097556892608 3.8860207947837604 -3.078718115301098 -1.417179721205611 0.21117575838000407
Ni 3.924434763044555 5.880612356337058 6.802431374428672 1.0402493128928794 -0.41596901027243205 1.8870277408846858
Ni 1.3253308638868464 2.2296884881584114 6.883838568571745 -0.25053651956581374 -0.8194596855721953 -0.6141097898453488
Ni 1.7724673679701959 4.522694089592292 1.3580006274933536 0.6158316576324621 0.28721587726471826 -0.64529572852985
Ni 7.0719148286886355 7.80885135346971 5.505238602737146 2.402317180726011 -0.861980332543225 1.6911479894318036
Ni 8.040696860744463 7.197167224902156 8.729114668532445 -0.22630644337385541 1.391063226624217 0.30847478664349454
Ni 4.062572040814927 7.938313299055497 12.092432972403518 0.005626345047841923 -1.2974462751980043 -0.3089967205852356
Ni 1.3359187956775267 1.3267859037785648 11.653240620081178 -1.6640503618840632 1.2467955429206723 -0.11933261102476223
Ni 8.972288439215738 8.92178299794282 6.890870346262289 -0.7593920308563373 0.6083518043156491 0.007675000046754523
Ni 5.66465332234547 1.8724441655615385 7.220100117786724 -0.12504148848408142 -0.9755025075337973 -2.7109611459575182
Ni 4.4122940817074445 8.638928733709337 3.493826230963926 -0.9367277007584448 -2.1352039877484392 -1.1970323554546158
P 3.3116707935510714 5.614239393015428 4.668038847983529 -0.9739251357443486 0.4486713856014596 0.04215323632928224
Ni 0.3154206193445421 8.962661382825248 1.516287004846025 -1.0919613965551904 -1.1124507747577939 2.837043159890972
P 6.246870605307155 6.615755247037774 7.344085988710849 -0.36155006920191923 -0.34684258778841554 0.25622148576573295
Ni 8.176665305468688 4.565064119143589 2.9649896945203027 0.0037522679535806347 -0.8434149108362119 -1.5426616396612207
P 2.323634648714267 5.411192694163556 8.65159215636443 1.1375362569715117 0.3853173468248461 -0.8804719635895095
P 5.765984496691368 6.106710913599237 11.079414067161736 -0.4978180225294394 -0.830452694248589 -0.6420849349020361
P 5.11322065696706 0.8253343162403961 10.926404268435258 1.1054645732479478 -0.2874963846196146 3.3802537516225977
Ni 4.513963850241982 2.909933364328193 12.93249888120799 1.708637918686451 -0.27352552426181925 0.4123998048639349
Ni 1.0977864179272365 9.076374123042186 8.843283138224898 -0.6723306211604549 0.3511838954762468 -0.06211990925919625
Ni 7.523718441858629 4.928458044301687 9.030285963251862 -0.4781971629747183 -0.42083790832895906 0.4398087930045071
Ni 3.4884627159920005 7.725145379321608 8.812879210323986 -0.062017065132744804 -0.37241657960277796 -1.3188813051433286
Ni 1.8882208245132526 4.11643597039137 10.452254353934528 0.009537764287106154 0.02588175286276833 -0.6174365402257367
Ni 1.197808971490017 0.603847960899136 4.90877657074748 -0.8948914814489491 0.8581637870106124 0.41749855954308096
Ni 6.670214004242908 6.030234382938289 1.9384828440181212 -0.00505273193255904 0.4666626799725576 1.2451243258658362
Ni 7.697856517956173 7.1433399001028635 11.204952895756456 0.06946657943225457 -1.4087809556189543 -0.057908442281009956
Ni 5.749429986225214 5.9890631598386594 5.163391164529054 -0.5030527885658175 -0.024656879316731727 -0.22578425232179827
Ni 1.2838942561528783 5.5826677727234255 3.3387006761181697 0.40665724595320285 -0.43921563950519843 2.2142330140581477
Ni 6.047374569838846 0.423530083299219 4.846790956240848 -1.6176782023774268 3.122820504936951 0.3983034746718689
Ni 5.728162610700978 7.9728224527138 9.902175150191244 -0.028318901549351228 -0.4442709425409187 0.5777307369956824
Ni 8.405710547291454 7.134911650164041 0.07736602674569605 -0.7695964821931649 -0.6926508207750459 -0.0016277654114100998
Ni 2.9797661279363887 9.214337528121092 1.5529723125059038 0.06835020643962422 0.6932167205808448 0.09083784601917903
Ni 7.949843803857794 0.17566266506584693 3.6234904179434677 1.7400835387902418 -0.6392477225635572 -0.6191936321261595
Ni 2.5062101259449197 3.5313452124233993 3.935617522463925 2.501719114265117 0.41158862181654926 0.19119854392712876
Ni 1.248433378288672 7.139359130587784 7.682102736990177 0.2214732836512702 -0.32675558723055337 0.7142007790316797
Ni 6.527684153214518 2.6060862603990995 9.23475384257659 0.19901983974376047 -0.659086354556039 -0.11502807011213739
Ni 4.005843787426485 5.161548113999544 12.197386189448421 0.32297837957630826 1.186973171446401 -0.08799986234975167
Ni 2.8855911875233446 7.592050409603669 5.789198331240564 -1.048498440275549 1.6124179824197522 -1.1429738830473155
Ni 6.109053619336846 6.425684941685629 13.194815120101953 0.195799790144566 -0.03022743142597375 -1.7705382557356735
Ni 4.853738542943947 7.878748175437918 0.9982470474228381 -0.9125549601669832 -0.6497360236893907 1.093454179050633
Ni 5.412675187638136 3.8653180479470652 10.823313319427866 1.0184949519349233 -0.24782837660603124 0.1972843451098925
Ni 3.3277219883314118 6.641570766122917 2.492955536138851 0.9140986505050193 -1.1835947418924715 0.1689441034043026
Ni 6.310965570097065 8.71787608682792 12.566154611011589 -0.0952442026169908 0.5238627833326333 -1.1818937000409646
P 5.089326888682301 2.724850459862756 4.962673444623359 -0.2870510695520798 -1.7931282252210474 1.3310112556376432
Ni 8.108461454443674 0.12034003511997021 10.47412662340117 0.13220458189142392 1.0870660161361019 -1.372347652492585
P 1.4746783546594517 1.2660402760978935 2.7031969039395856 0.290036634542965 0.3210122569888729 1.7241946354741273
Ni 0.9263296417559417 5.495585007883222 12.34864078911055 2.009905131837913 1.4509578460973207 -0.5097955066062898
P -0.011719019404619994 2.79201107473899 12.593611854351916 -0.8407828725300036 1.1316507447250124 -0.31842726987051606
P 0.6152411977871197 8.020152429568942 11.290204506619723 0.45147157405441607 0.11552532146353008 -1.112819470951122
P 3.090998894501402 0.27423932993119643 7.394057915356803 -1.5925024744427476 0.40661482275104166 -0.3492090311380631
Ni 2.45326131579723 3.5577464079429437 12.583955514139706 -2.3150552249835483 -1.096137125199435 1.0564166666813612
Ni 4.72442301646676 4.39399169313237 3.7291272292016524 1.1562482315587184 -0.21396540530999925 -1.8368848014817074
Ni 6.877159111861271 1.9742420508161012 11.74194680678799 -0.2981901168880348 -0.09758544915565774 0.1491988024565753
Ni 8.692472371485715 2.7276964812861797 10.187648486229822 0.8044233600643629 -0.4852049617511192 -0.32135241393711106
Ni 4.089924960540375 3.118479930946876 8.538187811394986 -0.9221503171649021 -0.4758399755964515 0.4278680757028631
Ni 3.480007012470316 2.260509710518836 10.735570753479532 0.49282005509421584 1.0185314615998136 0.2939668228353066
Ni 3.6399332838393144 0.7572860355182703 5.128728270806721 -0.7782137915485308 1.6240010592716612 1.5942410544004093
Ni 1.0282190389533796 6.739323823502389 1.356714884695955 1.1124343196975617 -0.7862361476323749 0.9617141955004535
Ni 1.6736710744419454 2.1911528090135928 9.19975601514333 0.2382121936725059 -0.47947834367998715 -0.33617559499287264
Ni 1.1965095019011867 1.59269215619153 0.6254813841948736 0.3004809698047406 1.950910912691892 -1.5217806824471534
Ni 5.699034359283747 4.10893199107559 7.184580672279077 0.40640167829897106 2.14008188466603 -0.21182187660443522
Ni 2.6323135832271807 9.243163790126834 10.454450640563536 1.3370024402240714 -1.926104652281489 0.3966373998233556
Ni 8.154830555898624 4.632490118654162 11.432043442479404 -0.4778492927169964 -0.16232197010209465 0.04903865059520587
Ni 3.454786321013864 0.9271624004361076 12.741331347660768 -0.3251879856331174 -0.34531740939314076 0.20051904999710626
Ni 4.580575393460964 0.770432641231746 9.011935988466492 -0.7134577302180681 -0.001814941721551713 -2.249415989717184
Ni 8.56081413927092 0.15418755743128365 12.833184630083066 -0.03990120707031193 1.6332295198484645 -0.5103709194937855
Ni 6.516025531692196 4.160572180440162 13.04405560005078 0.20555249865595568 -0.48580891388370523 0.5704318893414241
Ni 3.2975962567368393 3.6072726714270944 6.26012061951608 0.6724350079488032 -0.7240378197267595 -0.4091740988377856
Ni 4.712178718510034 4.722977127769329 1.2335315735108465 -1.5781721738630046 1.9149447790099279 -0.17783060726065503
Ni 2.69871464897755 6.455142636097212 10.578489588414529 1.3603038339541735 1.0397911423095383 1.863830476832616
Ni 1.61680555313919 8.213791700693225 13.162375051472063 1.6049700107821392 0.19052645756076864 -1.8129234055701038
Ni 7.109434725267538 2.2850806671808734 3.2572806703030945 -0.5791474148375511 0.32600173978366437 -0.3554820086309684
Ni 8.043872325162237 3.502958207743459 7.063675093352137 -1.2160384642434734 -1.5747209820896106 -0.6816416141487357
Ni 8.032634658577143 1.5576064772931126 5.491282116329222 0.5071364717168879 0.5716919870007703 0.7888838696678672
Ni 7.0584168171145185 8.52655206785838 1.4796419624410118 0.6312477350772161 -0.18644405996127889 0.5315069301414523
P 6.265182145076516 7.7867054632938695 3.50292068784688 1.592811263932418 -1.3557969472227553 -1.0436351986459769
Ni 4.4155336044852325 5.260527431413545 9.28661457572349 0.4360254147026748 1.3876842828496552 -0.44691892168672703
P 8.617158042499286 5.305395737005338 4.827691498643329 1.2027103796759995 0.7868886936147094 0.42659332275549755
Ni 2.064509431268367 8.246854965654098 3.47733852421607 -1.5069521020747532 -0.41603303074114795 0.26499023309729847
P 8.32903269035618 1.6002235890901728 8.024365639418924 0.3694420703554863 -0.4664513352926999 0.6014008269191127
P 3.1598616315151187 6.394726451410891 0.33784653606558046 -0.9167003497939245 0.4499137426489929 -0.04480841456394219
P 5.78362799927774 3.0756157369040524 1.5737061734031765 0.8413829680078476 -1.517131613710916 0.10604823521103027
Ni 7.711372831918865 2.3189858420161986 0.875124134120028 0.7027858523265187 -0.528360928313303 -0.38988362603928983
