# total energy = -340893.8072658203 ev
CRYSTAL
PRIMVEC
9.08069833636903 0.00000000000000 0.00000000000000

0.00000000000000 9.08069833636903 0.00000000000000

0.00000000000000 0.00000000000000 13.29051990633362

PRIMCOORD
 96 1
Ni 6.392021623411866 2.151444458515266 11.543361051191136 0.6704200344013035 -0.26390548467355196 -0.18001424517553513
Ni 4.687075103169031 0.29482939008435627 6.157936656924817 -0.18807208248300514 -0.36452586400079157 -0.6441415603207488
Ni 2.8001241457329007 1.6030792460606078 4.884997096514406 -0.11742433825845584 -0.8463449399988134 -0.3231233897946048
Ni 3.4978305233864275 4.460929391256552 4.998072676680152 -0.2804358782284074 -0.768347183167096 0.6587551964688655
Ni 5.214472983114618 4.135849470731541 2.91897050970528 -1.424911285521914 1.2113240894869395 -0.3894372825304906
Ni 7.2642862656049685 6.226289797676456 2.5749455281955687 1.0622019059045706 -1.0618000424804617 0.5062671817380571
Ni 5.405639844951331 4.833138136260592 11.658378084665866 -1.1516662686149908 -0.8554764699864364 -0.11221168370926482
Ni 5.52082850362503 7.7628710896600035 12.525451291607588 -0.16766575091251124 0.5755334722340475 -0.2312578738418598
Ni 1.8765353964192812 6.489757179841115 0.5559330664663775 -0.21646194647960784 0.11964937093423264 -0.4741651589971899
Ni 2.5984145931023224 1.5613261950096289 0.24741906395622199 0.8045814829087821 0.022433646413167817 0.6625779126490654
Ni 0.711052280030566 0.08931502484169505 4.697480675417687 -0.12468873313035299 -0.00891889975618464 0.0020337426005771425
Ni 8.428313746046866 2.2715548556991063 1.281689721348368 0.7236958630063084 0.03341842755944567 0.5698096823763928
Ni 6.947578748966214 0.8291040828966038 4.795684795882218 -1.0296116306733751 -0.658802247656717 -0.07555315194596665
Ni 0.7466740435500918 7.496788466368185 2.5497593032292802 0.5147870462836103 -0.4053249002950246 0.12114035365746234
Ni 7.422798936145615 3.8122043005471262 3.808332290767192 1.6432593932806412 0.10204631314048876 0.9045521444671648
Ni 7.471135493506284 4.0495101907418265 12.752067383695021 0.7834231036636121 -0.08421159895191305 0.6584273808158015
Ni 8.090402798741726 9.06442574673676 6.734639096676058 -0.13607460636979146 -1.0446394715407752 0.4383121538543226
Ni 6.745560452591459 0.6081089430928924 0.22152000416881504 0.24538839970597096 0.1196444858382262 -0.052276440806213194
Ni 2.124374896709488 6.519351175790471 9.235250028111444 -1.4420736562338132 0.37293465688977706 0.12673430280547207
Ni 0.15250942085604324 4.758158809916978 1.503436742976138 -0.48051681224683057 0.0032663294560976003 -0.1288526347000555
Ni 6.363744328724447 1.8547417203596142 7.065081169581581 0.20760758141277147 0.3724831711746553 0.44214309756463854
Ni 3.4552783708799275 4.421609967365569 0.49660069146376956 -0.13964329755765628 -0.3176970765727109 0.1855356892143966
Ni 6.054137918201802 5.6974299252952 4.821827218385624 -0.30182797075093826 0.2655129383699879 0.33383383423357343
Ni 5.620298473440695 3.064118208402335 9.19814266234052 -0.773981498634738 -0.3115984198741408 -0.08944173700260082
P 0.15943436142400247 5.4315652387639775 12.527923057700688 0.45481735059819733 1.1440347202116619 0.45578999892411176
P 4.004887639009659 6.148786037189264 12.614683682094222 -1.0263342454736841 0.8696046818577025 0.5447123730881329
P 2.3589747387934463 8.609954955305833 1.2872916041655385 0.7701479838212607 -0.6428346685838671 0.3171964827872086
P 6.407004775702887 7.899363066682028 5.75067550818831 0.14619498263324499 -0.9936485823152048 0.5722463168423435
P 4.60424097274558 1.1664883496969674 12.523696900684785 -0.05918062412521421 -1.07996000121894 0.6864364644342178
P 4.1286303155367765 6.209345214540064 8.234221083199142 0.41647886002931495 0.3403443816585816 -0.0033810006570909514
P 4.668196331282344 0.8068318540334597 3.7810202743152503 0.39732645547058026 0.7018833951169073 0.28348006437136986
P 0.2351020047031668 5.627090835812624 3.576904336619751 -0.5965823224845468 -0.452875139270162 0.3511224461106921
Ni 1.272178597887995 1.0430816590091023 2.479280370991988 0.27178540164226095 0.21751301345194152 -0.2367384373404568
Ni 1.8253111769807053 6.436635094445676 4.93356067133403 1.2494190965864482 1.4922268800494365 -1.1647012474220781
Ni 6.094565187292484 5.576447781068972 9.361589784369007 -0.39346003053663847 0.5351273005028591 -1.0386961094731466
Ni 8.800667782224638 2.27712132379268 10.172151989288013 0.09582989991713174 1.5641419210221834 0.6161363333570744
Ni 2.390956958411008 5.105777023767027 7.297877584971602 -0.07613602103263017 -0.005331696625558559 -0.9714735888800625
Ni 0.39579585898945085 0.14064276424155445 8.96900122803967 0.19311530133386742 -1.2761459710583312 0.8578267153861678
Ni 1.481325242473934 1.2754294879002286 11.499143498605742 0.23190759161071675 -1.684923862898963 -0.7512208078994546
Ni 4.090382414052061 6.987579225234062 1.7202720148619604 -0.44172400774934895 -0.22562638658769532 -0.906318235228652
Ni 5.665220688218683 8.061389967487296 8.123604556148795 0.30643898716038837 -0.1239181735129156 0.3026011014715369
Ni 5.073331688533198 2.6603994400953592 4.903497203279556 0.5311426048234982 -0.06678723282787853 0.32934057434891023
Ni 0.9125284587133379 7.483857551906116 7.005632561639988 -0.06863714155242373 0.38745856153756497 0.06455268707040496
Ni 4.815794002396441 4.4219277918081055 7.10666713578277 1.4846976615519267 0.9364572207058776 0.27268811596218845
Ni 8.036681387254648 7.215495673326389 9.15577303187102 0.49048317943092307 0.4816159588482802 -0.013278462276461003
Ni 4.856030576821601 0.3884550224366863 10.54771514426557 -0.7157120734698835 -0.2812054094045802 -0.6805111000887183
Ni 8.416027561168228 7.225965718533387 4.852727926828726 -0.8411363992146804 -0.028674999337189325 -0.1955632486537277
Ni 7.368214858314507 6.167401468823564 7.033197021506289 -0.6735410965287885 0.1229033590951561 -0.4821016402354471
Ni 2.3676468057255224 5.078625735676026 2.9068623065144634 -0.830188384843609 -0.08960525916365858 -1.7847338305097649
Ni 2.2315452987329008 5.455719896396775 11.583791044491326 0.26186402876349096 -1.2432808448991943 -0.2209662621078646
Ni 1.1095705323878033 3.1559059074069666 3.779146018174118 -0.8234945177632012 0.39554982318613163 0.18575628986563492
Ni 3.494815731531507 2.3289448693228962 2.530740688587877 0.31197817181106274 0.4000903913689626 0.7146049564486338
Ni 1.10184285808498 3.330745673595646 8.316715595503997 0.08308802687043111 0.11381605208190722 -0.43693841343524753
Ni 3.5519242435061935 2.5311266182681007 7.070981807374737 0.1843871774322502 -0.6014216528547189 0.5851941352522632
Ni 3.922861690740086 6.780384930795135 6.064637021643547 1.0740652330010598 0.32366717811321677 -0.03276176781205325
Ni 0.7019570525549982 7.244971620197089 11.35599173740782 -0.06762695512035449 0.48316016340694856 -0.15732991620414197
P 0.2639577398760019 5.7062109606075735 7.98978230444408 0.04679921974172585 -0.738614946209986 0.9920652969884851
P 8.538172034784305 1.7624273408502076 7.871536174633176 -0.33438713563388217 0.5242502485790391 0.9487900312396176
P 1.8759088282325658 3.0840321799018557 10.468318058170695 0.014801840899522894 2.0887942901356475 -0.13422341209366562
P 4.066972373684635 6.017188556582307 3.668023696225219 1.436226967645049 1.2355335968536076 0.7845276495817005
P 7.0532780778556 3.9958160213498215 10.552021211427027 1.2678683044305712 0.11417883473796464 -1.2125453634885506
P 6.341387649366573 7.930864009286606 10.417641404843117 0.9336318354419404 -0.34226730971290736 -0.9264263188324369
P 2.551176800242994 8.486112391096775 5.813765476171539 -0.42524426492677087 0.4703010480560933 -0.2537084895358921
P 6.934175638189519 3.8233463174326308 1.6352122052709155 -0.78635004750242 1.4391333426585668 -0.719977790724773
Ni 5.028663733309239 2.632957569656895 0.6646944068421464 0.9932066096817797 0.9999025336447165 -0.02252234947223218
Ni 1.415163274236128 0.9334140649371856 7.020836374901114 0.3938932614193152 1.0030655047537305 -1.251686038243754
Ni 7.204190203870437 0.8661669532455751 9.369164902939414 -2.798723181264851 -0.6229453858591077 -1.2337600498929526
Ni 2.5206384116643856 1.5112552242625434 9.112259233408386 0.83319349021852 -0.6026395844222201 0.8506924183342317
Ni 6.331471526759424 1.9683594182173456 2.692473374766339 0.22336741535018953 -1.06987459195848 -0.3169301164996994
Ni 4.2705979536687915 6.891450952414214 10.421867561859022 -0.08095092592277026 0.6649135027607773 0.308311778703069
Ni 8.078906634620253 7.384787132818212 0.11807813689127658 -0.1276429306626705 -0.9956792395919883 0.3975352290472767
Ni 7.836751651502276 3.985019071001928 8.214391562194352 -0.6815994480568907 -0.3783067198349678 -0.38437606595749935
Ni 3.05846093332518 8.323858472832553 12.310622854058927 -0.1562269129479503 0.11175351312592367 -0.04677736536485492
Ni 9.209553467897425 4.978665408149019 10.1828372470461 -0.09795440245930227 -0.5489112416608288 0.06601127389380244
Ni 8.686314547799892 2.4913440787608496 5.838924459042753 -0.092141395321951 0.4700627067930421 -0.596414943668747
Ni 3.93984259666991 2.7894815672570963 11.218886813246616 -0.4897959235559113 -0.017978953075923874 0.19325465512520912
Ni 0.8778174892391389 3.278813159685131 12.663565989426221 0.13104347170378722 0.876159966477717 0.1738510537876167
Ni 3.1796882564070783 8.472918136382319 8.039103209506777 0.20143256295031114 -0.4672458061695372 0.023131443811140805
Ni 5.69164552044103 7.8954220435945714 3.523648764958447 -0.49294526781817033 0.1898183757501505 0.7587153165042869
Ni 2.9996724921542275 8.386106660077978 3.4467370660042094 0.06593619768149289 -0.07773113343389194 0.7436342538014483
Ni 3.517063442509084 4.60117169670051 9.647694439470811 0.16745594889455032 -1.0593348687694206 -0.2850461233069091
Ni 7.371838056959427 6.299516549236937 11.390613716038107 0.39293655393300064 -0.7086546524024699 0.26868259434722114
Ni 0.6675639075233359 8.929159663993092 0.044159436115900556 -0.22142211869836062 0.2600190051349522 0.22960491161946905
Ni 4.83853207108536 0.31134899653758397 1.596443979770275 -1.294894455310428 -0.3773775231524791 -0.20282532953277974
Ni 5.8476519182348135 5.683327600744923 0.5847579272647948 0.4068359376229123 -1.0117872008974447 0.24979038542840853
Ni 8.239353493911194 9.011848503242812 11.231352795952748 -0.35875476584496924 -0.6826967948861274 0.3134799531675698
Ni 0.33811435494836267 5.059374655156653 5.82631136902322 -1.306207309220086 -1.7980901972120127 0.37921689035406303
Ni 8.028036562417647 8.85155601582396 2.277463666120784 -0.6680273657994107 0.5782706686595525 0.21993165019576313
P 8.456827138891597 1.5823661731055658 3.511926491447853 0.5294245936911269 0.4679325478239167 0.3028175883577172
P 1.8263100538001067 3.2945590906382405 1.5544857049364007 -0.33945375152351215 -0.5362318464209475 -0.4069328682120928
P 4.675097662034573 1.1571897145781762 8.495646216303044 0.3922366996524987 -0.08557582628929133 -1.0694922689183968
P 8.472954459175751 1.56091756358351 12.542144339399458 0.20351901316569465 0.7048072536319215 -0.6432594148261116
P 6.293968242540081 7.710974898542922 1.340840482383812 0.19214265300795297 0.47522162528616213 0.2622543222233742
P 1.8080215273067028 3.2444972005895134 6.038853286725288 -0.5811143087559347 0.13522151434087679 -0.4071940922932794
P 6.648260769683403 3.8021792095596796 6.055466424371605 0.7513871582739898 1.0849322576225509 -0.3852438132744333
P 2.111226045486822 8.524787085404325 10.09825689832837 0.7347724325354441 0.3076610324929476 1.0604239880685415
