# total energy = -340860.8597303993 ev
CRYSTAL
PRIMVEC
9.28094039060868 0.00000000000000 0.00000000000000

0.00000000000000 9.28094039060868 0.00000000000000

0.00000000000000 0.00000000000000 13.58359439348933

PRIMCOORD
 96 1
Ni 1.8454686338788708 4.182910648095619 12.982112890420181 0.6445575648122447 1.3533564561020628 -1.0452429094527287
Ni 4.853124492682753 3.61897285433474 2.5388282162317553 0.19766821081187247 3.931194107898314 -0.4693710800426561
Ni 2.359307910273569 4.539048181791884 2.204468409656598 -0.034861844874191576 0.13691072911784163 1.4118467390284717
Ni 3.3472361944673086 2.6859598956792903 10.00990001567886 -0.7150631270319749 -1.3310451941993722 -1.2545890708231617
Ni 2.303696514190176 2.0384565127437013 12.209586884737632 -0.8665108734237271 0.018414755061761837 -0.7378328166283229
Ni 2.6869251135018324 4.056448551461388 5.7226734514119935 -0.27231453467285355 0.2372097205499205 0.5662211936941861
Ni 0.7416520286780388 4.174873353534834 8.598075906646393 -0.9809519606841427 4.449830609835001 1.1592813619580875
Ni 0.5696455722307191 4.408029143322382 4.989254545141428 -1.1988292994540386 -1.671950076347114 -3.260523905159417
Ni 2.0637470758824272 7.15777694375487 1.2274053226248791 1.7913564780326052 0.8261748928088418 -3.4401815383264815
Ni 7.206743186367684 6.662016939651636 11.613633558278277 -1.5727417468760527 -2.453002880006337 -0.6423119633111777
Ni 3.2367465966080315 0.6066384733737088 8.277897377310124 -0.5204681558287876 0.7284390341182486 -1.7563542509258074
Ni 0.07919705043364716 0.7096745478360279 12.077364108272134 0.10324007633827381 1.178889108886686 -0.4032873010397054
Ni 7.787655820488463 2.0063537392035724 9.975262617260498 0.191868830521276 -0.5221974798150684 1.1533511125165814
Ni 2.627489969890677 0.10372007978463985 2.257212923188228 -0.9111238841474115 1.5119359284425895 -1.2176826847151159
Ni 6.131685431808308 0.6288570451733819 0.13820063030683943 0.6529414180005658 1.8481881423096687 -0.9587713108220456
Ni 4.06548818760712 5.7054860775123215 4.847767533767644 0.5767575744491357 -0.04326858088064806 0.3471470064027118
Ni 8.928209172871687 5.430992978286283 12.564403740586323 -1.0957352617753258 0.11071735855192547 -2.6074719297229154
Ni 4.523038559254525 1.573778378714446 2.019283017555337 -3.4490420740409053 -3.763563581099112 -1.0069026191116337
Ni 1.9255445893874674 8.78649849082941 12.958165279386472 0.08993384614767092 0.054262875108622675 0.8974458724396867
Ni 9.237691418164879 9.035339070233269 5.77158772075744 -1.6659270100814856 -2.0521218744152785 1.3218704696786396
Ni 7.538369755935738 5.755018457501818 8.019727596413771 -2.2530574431245136 -3.444022766449443 -1.416661901028928
Ni 6.416072013715403 0.09108222296775806 11.063905812672154 0.353529770000604 -0.4631952902492474 -0.05937422819325903
Ni 8.992832362279007 7.525691991074271 1.1332835916101731 1.1027931970633718 1.708636376024554 1.2352016674354855
Ni 4.703172335386462 2.017138192182361 11.898780249220627 1.3184334189726328 -0.9031948591083219 -0.11484732155989898
P 3.5398249928862806 0.9497928992627217 13.474967032021127 -0.24026187711268296 2.363067748307085 0.03867479086237856
P 6.385110795869242 2.2000005648511 1.973560463682701 4.393410322063744 0.37586082939763654 -0.25974518264827523
P 1.5572211806816068 6.482347210549767 2.9531553913104736 -2.665389885085623 -1.4094183320926372 2.3060715334276995
P 1.4667041669964722 3.4892345856682274 10.474948459238108 -0.054663967201783285 0.04465491970521342 0.5283285324134708
P 1.4656461397679161 6.504881334329887 12.587468734168842 0.34396243802714305 0.4774260891366487 0.7447837940248593
P 9.461547705469858 3.1366980569252925 6.697174070743674 -0.9395554000152271 0.5978660742929768 0.2561926894103266
P 5.368467281454872 7.636088779527534 12.127121087024186 0.14859047944861506 1.3183873962260457 1.3335093394691486
P 4.587522534552825 6.374938884970144 8.092861408352544 0.1750306759180147 1.9880422703265503 -0.0923941347627054
Ni 1.035771532993788 7.964949628796381 10.892426513650992 -1.5734302883026452 0.530150673223874 -0.6239645711522415
Ni 3.414411642540005 7.0038525438811945 11.674718853128358 -2.7417308230402075 1.5074403545650812 3.050316167119637
Ni 8.601018892911085 5.901564509597407 2.949080130292413 0.5042933458411379 -0.5241391769224716 -0.08548738034054308
Ni 2.083125679858082 0.48414583503468345 10.349435802827399 0.9295216699283089 1.2771042212065424 -0.09336935419178113
Ni 7.605777227523469 7.788704566776418 7.304727644860678 2.5071179166831854 1.1759451957670135 1.3066557096114142
Ni -0.03590981537481017 6.8098808853126185 8.777175785995336 2.6259941568968195 0.6150770388546246 1.6839131622462613
Ni 1.548988986368194 6.596419251481172 5.118624360466066 0.4916964830127339 0.7739449889698478 -0.22618354464274595
Ni 0.4584394857570164 5.012673142560858 0.9267668856307295 0.20359306093673968 -0.23015307081345523 3.103448528168242
Ni 9.202284629770663 3.203260962918298 11.957081261890295 0.45357190822687043 -0.5728057888902393 -1.3086879095500945
Ni 5.002900312107617 6.152419053111762 10.65008166457403 1.3469644365327897 -3.334702031134728 -2.4762531087835287
Ni 5.385822640379429 4.53053755926043 7.44484200511952 0.9970164703461732 -0.7854475902928086 -0.6005950431883657
Ni 3.802373521558358 -0.01100441127104115 4.488562649202627 -0.39015899118786357 3.118497709191881 0.4094736323560755
Ni 1.7585247823252625 5.991125586400601 10.419581151892533 -0.12430615297995365 -3.445412190597802 -1.1257485203079645
Ni 5.513407730826424 8.728993782863338 8.3452036866453 0.009465259177957892 -0.18117381270127508 -1.2048145705031958
Ni 4.4612831804930275 6.375412212940813 1.6048333340606808 -0.050383080438242266 -0.6460948273923776 0.12978980180234423
Ni 6.697386604283446 3.7909858074404807 11.73637492582542 0.4450291608631819 0.3210269122768923 -0.48305269129480677
Ni 4.249993286762301 2.576454077523758 4.542734571398747 -1.9568640449515329 1.8513197459601147 1.883238191935266
Ni 7.776769277163059 2.069529101877079 5.6864592211854585 0.5364899851783406 -0.8703497875538431 -0.7207354948264039
Ni 7.478721150690751 0.11081907125062565 2.1402721435169405 -1.5722984886910472 -0.3593168089960263 -1.2655887643677752
Ni 0.4543827866201588 9.201486468878946 8.365239381215531 0.8105739530467911 -0.4276361621977151 -0.3224425616774963
Ni 7.61088174485422 1.0748164501037398 7.788195043137402 1.1433477214469663 -0.1742932835313579 1.9393054672424797
Ni 7.371544848626161 4.295980347442076 5.913468244012721 -0.21983060584152464 1.507905724237274 -0.2948129728856858
Ni 8.108646432127351 3.1093378440324617 0.3454375372769492 -1.7486702520179884 0.016874150047519326 1.4653524242560956
Ni 0.23642917753765028 5.591701745739559 6.766572304090399 -1.062490383679267 0.48395900515916007 1.0795630228908375
P 8.49135529876533 6.393575013697689 5.014696387611955 -1.0632776554672527 0.7215433354396799 0.6864187238224049
P 4.430665357449117 0.15041156385605833 10.022207471010333 -0.5776754582777148 1.600193158218786 0.9670371503752636
P 5.787538873369009 4.408790180451694 4.414708636273186 -0.034440441066056815 -0.3706417470905423 0.4759518185839674
P 3.7583540202860735 2.9723975654592882 7.171988848097744 0.681066458371556 -1.545537675657435 0.7248950255207322
P 0.11167755825625213 0.5034223486637233 1.0755626377280898 0.5208558781855094 -0.4469392334017012 0.01154733851796721
P 3.6338873258811373 3.9955748620570204 0.657712417597093 1.9156279211198814 0.45387092752452807 -0.9553072635328451
P 0.5585975405388516 3.166796147295526 2.992940927480414 -0.47814214136706684 -0.009127930443197183 -0.6967751273560645
P 6.832015928646879 0.00837419270461367 6.264360190081093 -2.5552219712792636 1.4700261755826811 -2.9738479595585683
Ni 5.91502187346939 1.393468264711083 4.198648339073356 3.3209687407090347 -2.3331120824852594 -1.2646369419774672
Ni 6.728589126585243 7.115947744464508 9.498573089904951 -0.15841903550326264 1.4861094542977888 -0.2285448457860709
Ni 8.625901094663352 7.914999606479823 12.480579213168836 2.324263630955694 0.9305282568159523 0.34842278779134184
Ni 6.249989581653936 6.722974157521415 5.9164706282972634 -0.8562220899032094 -1.408570382270045 -0.6548450627811818
Ni 3.304089101611552 7.461421477409802 3.494542355598149 1.030063116388497 -1.7651327684493858 -0.6756432304734559
Ni 3.2178227587218435 4.734996680708551 8.4645491580264 -0.4565572161074395 -1.1456753411388785 1.0257678314472527
Ni 2.265403353268935 6.462272536029009 7.339202626818517 0.5779076288931788 1.2395103221131685 0.5693137165765809
Ni 6.228253618765534 6.227659638567046 3.328673385170514 -0.5954587504030647 0.48902073595278356 -0.24082134916057882
Ni 1.191199445244885 1.4938137944930656 5.710719599917433 1.278880853490991 2.4966329579914617 -0.7259535486922336
Ni 7.78437964845618 3.384081528654736 3.454579553462722 -1.088099856717255 -0.004768882143553077 0.008180993148895588
Ni 1.1151606988978833 8.644639313737512 3.816256880603943 1.2054393485713886 -1.4278032623577281 -0.21416492291531505
Ni 5.73371869882168 4.949460656124945 0.11708741853278909 0.9620327551821366 0.3338433473152702 0.7312104262157987
Ni 7.310049336201502 8.375111517733204 4.337499563316352 0.4275551724481347 -0.8310833858540526 0.051970222419704046
Ni 4.051037763090791 4.40536551336979 12.089236287489403 -0.789759330294285 0.3560515079811932 0.7620397528918295
Ni 4.100356681446456 7.979585672124737 6.374713358113531 0.08995570052454185 -1.2407778759716825 0.942016717071526
Ni 3.250890750084515 7.691867232541751 9.432991179333511 0.05869185741425376 -0.4716531912086135 -0.8356427230899609
Ni 4.283432515749027 8.631079859518914 0.6683790026302444 1.3016230322835132 -3.9134465541069052 1.174206615809352
Ni 1.2375855863705187 2.167303811112483 8.27087448955707 1.5395398062027872 -2.99435404993172 0.227889214479943
Ni 8.857924609697532 0.8461609884137948 3.648376730347992 0.015334830584857462 2.7810165080137073 0.5713099210710032
Ni 4.866099247643464 1.0561896023167958 6.390211600823753 0.5327809117578696 0.48155065282798365 0.8351447004076197
Ni 6.796739073421083 7.5773311445802785 0.2036980843188084 -2.7794051976625296 0.9001357605670239 0.9012575328762931
Ni 5.5552740538791925 1.9831049829971472 8.677730507451686 -0.7041459658988388 0.974564054879928 0.4408344060555441
Ni 1.1535002645221315 2.4598297779269775 0.8605993477073418 -0.20114048563118905 -0.7080062201851934 0.7131648815679975
Ni 7.716860805581233 3.490385422302797 8.174661762624876 0.0690343769908424 -0.6799958510151967 -0.23644713135228315
P 2.604222651803049 2.4873477668100317 3.249331552063485 0.6598767116678184 -1.113244731413999 -0.13001477332895675
P 7.504865560364802 1.7694298875318688 12.195473358365135 -1.3519179238833234 0.2000369681543652 0.4232123220984066
P 8.112154627674666 5.115886482988662 10.080576234546392 -0.011656096181689602 -0.16732096597858281 0.3904829501861856
P 5.003355078197085 3.840546030251782 10.357422980308936 1.9455979851194107 0.22051349084116215 -1.6883285177051375
P 2.1919539893497144 8.976906268207062 6.20053052109519 -0.11349363574548195 -1.1206867895143409 0.4528676830709943
P 5.377497636660002 8.487438741831554 3.1846601017650378 0.2750193351985264 -0.5074156935202035 -0.8914909404078324
P 8.27603747681361 8.611116556285372 9.791190938031399 0.3163282212496423 0.8975068075846092 0.5493442154331893
P 7.751172442984488 5.872858560317378 0.817061527252268 -1.4454996511962266 -2.6575655039451975 0.6522767878333735
