# total energy = -340865.28720772767 ev
CRYSTAL
PRIMVEC
9.35934491053516 0.00000000000000 0.00000000000000

0.00000000000000 9.35934491053516 0.00000000000000

0.00000000000000 0.00000000000000 13.69834733365047

PRIMCOORD
 96 1
Ni 7.212882241848756 4.239923713268368 5.905028886291917 1.0265494468082836 -0.12819006141539213 -0.21374686154128997
Ni 9.035081214305205 3.871914264562007 13.092332973960367 0.6280369414494023 -0.1569599344592329 -0.3703915787529492
Ni 9.170754280644152 5.920637466088651 5.052786577559492 0.36352441931947066 -0.4706257783853637 0.39220996017962134
Ni 7.554713602354921 2.936503879477862 9.931205748398888 -2.7704659861913705 -1.9220808758340773 1.3982461175259018
Ni 9.117331138904175 8.346888570272174 5.277494157748865 -1.8259087620861778 -2.3143702831013817 -1.6833937994076817
Ni 0.5296865194269403 4.684380292621565 7.107729999829021 0.5814986886785469 -0.26421710237669976 -0.9390337231838022
Ni 4.28930361793202 1.3664737416220103 2.006753090366066 -0.7502844121281143 0.9174166591346586 -2.724535285097527
Ni 4.991572716971519 6.585600215622974 1.6742118157903667 -0.002561332969273008 -0.14802792207692572 0.41558025947444555
Ni 4.380650825952723 8.88727843673728 11.601993915757495 0.918142995777722 0.40931602373228865 0.05040596325637771
Ni 7.200930358176374 5.356034973891011 9.791482893442055 1.215223424541346 0.45944199385440226 -0.41855631138363397
Ni 4.70034733533502 0.7396213093355881 3.9510278726232992 2.28489387090882 -1.5391909075038008 2.4419273389184655
Ni 0.5185507706458917 2.4781767507100465 8.127832162644575 1.7468478540972692 0.2564060909727133 0.5917962139498131
Ni 1.2077579676860368 3.844575617571384 1.419655412258818 0.40607746219033286 0.6791671844663141 -0.20115976890489873
Ni 6.47571214499069 8.728581381491473 1.7530455794336446 -0.9362145085674521 -0.948629080181721 2.496907294698771
Ni 6.639875057765603 4.334546692068503 13.621431726516027 1.855336323318676 -0.15140583741022312 -0.4739944377472804
Ni 7.011272589392404 7.8595381123986 10.486057674887926 0.6301416464972308 -0.04202056740615989 0.40244680741628114
Ni 4.876190710774876 1.953463787260791 10.71805244115977 0.4975046050540786 0.8941864849621246 -0.36162103164917075
Ni 9.551398845214035 2.097185890372055 3.579269070276252 -0.0717214369047023 -0.08025749940017146 -1.2943015589214355
Ni 3.804227480913879 0.9287044143313952 8.830242587794842 -0.7611416665575923 0.06416136516925725 -0.053849184609971776
Ni 3.710690186143498 7.552738780542179 6.920021782626066 1.4111252874814149 -0.3099387727835307 -0.3083935397835979
Ni 7.457507444311577 6.655243102393677 3.469571930283684 -0.15512956611871348 0.7257391186885823 -0.6323016302630271
Ni 1.401711675863604 0.2616386199566782 4.315362842449647 0.9752109444353076 0.5625910531407666 -0.4041123680441621
Ni 2.5064794102443306 7.296320803273406 1.2212588229698347 0.42250578294968527 -0.04937675066091496 -0.730347049774239
Ni 1.1951509298577698 7.285173823278256 7.12235959212996 0.4121102986479741 -0.612486652419629 -0.48151568582499016
P 5.964111624004243 4.189841857723411 11.264548344357733 1.8105489918006559 -1.3177484770904662 -0.9820706476696184
P 6.085960937653992 2.2173598812517517 1.026590996762352 2.8793290651433767 -1.5372528099408236 0.5985980673629948
P 8.871667049137018 8.916648061611149 7.210987910403736 -0.4123864351274962 0.08301629309223121 2.8071175759761333
P 6.164410968148822 7.417889336570631 6.855803572266101 0.22784319173335602 3.3805581702368936 -0.46440139474220665
P 6.419574793176326 8.227818982112401 13.054141230410236 -0.020535915169822696 -0.3384723614468493 -0.5449247462092551
P 2.7253851324160774 2.85314955215897 9.03040247769767 -1.3599819318383803 -1.046072861553192 -0.060813788853263
P 6.269507054098051 0.5410581237041078 9.503489293663092 -0.7541145845074819 0.2899170782459652 0.13672098170453872
P 3.2665143871428244 5.278623830700514 0.6298792444866165 -0.8883163993345926 0.32460125989171196 0.46511307609725056
Ni 0.874633605911599 5.754789871198602 9.057525859751358 0.23727219835673974 0.7476608584623381 1.3629397289151237
Ni 8.387919939120819 2.4836426082391547 1.2604286180812536 -0.7824116316799623 0.3729122882922739 0.9344160219061327
Ni 5.525654384849948 0.741784253984521 7.2877401557003125 0.12630801390133084 -0.8470854177092636 -0.7199186553520632
Ni 4.267505703231177 4.610965589781975 12.301787468022253 -1.2017847825379366 -1.8964189522915984 0.09958216787071236
Ni 9.29518677353711 4.140377718954003 10.686642479057568 1.1077330575671502 2.2464715623768794 -0.34366033340569196
Ni 2.8207755775131074 8.095562076729145 8.905911956865191 -1.762949130534506 -0.12464708125914015 0.6982321715175652
Ni 7.19522115767508 6.6285970469392765 0.7783287527998531 1.0752127163419418 -0.1293383160872224 0.6245800932490534
Ni 6.536519810002013 2.016236914739773 5.102264755346526 0.7025436544087256 -1.1479646513936876 -0.8411464265170093
Ni 2.498289983295753 2.0193629359978584 0.286351970651214 0.11373660499422347 0.3446242399808581 0.14839353294646057
Ni 1.3692815451472369 4.255478944798123 3.8742073041076086 1.5233719381936732 -0.5332568229530236 0.9917683345733564
Ni 4.757523574453717 3.706675027102424 0.7545775427799616 -3.36108360645205 0.6025179712426914 1.3858716551209487
Ni 3.2877320224484525 8.369725372277351 4.654424772745431 0.3626546151200077 -2.548673885748101 -1.1197251969320199
Ni 5.875572219508765 5.59525047489523 7.280890986967777 -1.103305617923416 -3.2319612630303753 1.7598578932036917
Ni 4.294498054453689 6.70089798771386 12.951102328510487 0.5068755047460174 2.0103743581648477 0.1932446278228801
Ni 2.5869604186224078 5.8377136686436275 5.519488448308549 -0.5829906998430412 0.2583812124212131 -0.5099317750738379
Ni 7.849860549581653 0.32368920599516837 0.400096091458142 -0.8340607233148215 0.20729673504057203 -1.0250502365549377
Ni 5.744775371958628 3.174802164663841 3.08242917242192 -0.5374016983593326 -1.199358175374315 -0.5870507288450277
Ni 8.435643239704586 0.7363324354730394 9.825235499618802 -0.8979786050147052 0.0977965367251993 0.521888947435714
Ni 6.632471815804089 0.6887560766070921 11.891494370094996 1.8117473829841315 -0.4059468501497395 -1.1663542096444688
Ni 3.85761318527352 4.962418357034583 2.933693268149111 -0.4819622864441055 -0.8760828333828783 0.3492244577570308
Ni 8.98162063518489 1.1329487224289174 5.656842453024599 -0.1121422639239101 1.6667165958623167 0.15929063947493857
Ni 8.465855205636023 4.179892873899025 3.4781338591666078 -1.9902806727387659 0.5333959196340491 -0.5731405465218388
Ni 1.3517046950793186 1.048124977931823 10.112065732803813 1.662258817201279 0.36233708387958885 0.6069235565095547
Ni 0.45459649381729794 6.118746723483553 -0.06716453219243615 -0.35752937807830043 1.003070646960053 0.005308813807423115
P 6.2911271412422956 4.937700326667505 3.9309052806925084 -0.45987779584024024 1.3412013087967674 0.9673564813878953
P 2.2774094393112634 2.2988797769341627 2.5747829747335 -0.9556692748579543 0.6312680467921902 -0.5049106677101627
P 2.62611055910915 7.908712111470401 10.953499869833136 -0.6147322539206961 -0.9407021120251605 0.2538624986152531
P 4.148127256683628 8.396193600175152 2.463442333744166 -0.7057889008189007 0.15851339498928185 1.6124110404412164
P 9.097601639466916 6.403813656054722 11.299041274730634 0.008185621134585902 -0.6718313129265333 -0.5912408556669753
P 8.091518839652819 3.9254871558233297 8.245419230543028 0.5832184995831311 1.5379806892457835 -1.521860129534837
P 3.016676029468165 1.4387278856711738 11.973164015298753 -0.29018344453347444 0.16221835464469483 -0.8394458988861349
P 8.495374580031239 4.842880801620604 1.315229455417609 -0.13556449950259233 0.2888433855658122 0.06063535429386976
Ni 8.365017621700055 6.533590334990693 7.489858956529239 -1.805370790033826 0.5659082904394577 0.0802749829016682
Ni 1.8582230916851061 3.30768614616773 11.807167606821867 -0.16232505542588818 -1.0393257726373455 0.9865749632978752
Ni 4.635384121106361 8.794723873200727 0.4532122466793613 -1.6632209240042322 0.3497055111585074 -1.5650379504738918
Ni 7.868654114510503 1.6264576293678217 7.564282596768893 -2.0746491089835173 0.05150588118877582 0.7736824793370805
Ni 8.89751756025927 8.495365220686155 11.839180310747484 0.5034471957907588 -0.10571527735164375 0.7079481132537485
Ni 1.9065921870796758 0.25611099075001553 1.8624544515976227 1.2911743261463635 -0.08128696910595033 0.7615144765159788
Ni 2.817846102501788 4.709781555179781 10.288870312983805 0.26848744761727955 -0.5897010219836811 -2.517974656892031
Ni 6.634156497919225 6.184776903051798 12.257705888610705 0.3985089058144556 0.23610131797709014 -1.3766516791845773
Ni 0.22929085147705142 8.170895445310974 9.38864170607075 0.34546730470744375 -0.7561079607884268 -0.5758985688829501
Ni 6.444723353417272 8.682140311184227 5.135592447256457 0.09901935338870689 0.0673824432097162 0.6219393131920966
Ni 0.8646836861527044 6.151991117222235 2.453127399526992 -0.9414742143044947 0.2985613841845245 0.6571883662023779
Ni 9.05244279943619 8.979074893322018 2.5451943411846627 -0.5157913191784085 -0.35947878849518733 1.9931772775602705
Ni 4.91566842833956 1.5638810481356058 13.071511238951796 -0.6288499242690008 0.6768583338274795 0.812145154188653
Ni 5.003992567898104 5.856731857854494 10.265555248444834 -1.2449222371573592 0.7076964022542586 0.18126482975318461
Ni 4.645595166593102 3.751637320886385 8.775613962408036 0.47842444849417604 0.11162135842343357 -0.6861266465032828
Ni 2.663763204382438 2.623845597598801 6.574700322338044 -0.4265676117238847 0.2027073158976767 2.129013542667011
Ni 5.109846760799145 7.9774752198032 9.241330294119738 0.06005299942783851 0.5830197533087635 -1.9267787955303783
Ni 4.387492507209192 4.430779478223102 5.443723613918344 1.3658365908469445 -1.4693705442765534 0.1902130400854079
Ni 2.1241033668338933 8.962518211868266 12.846310421276492 0.32314267306831446 -0.6949563289797709 0.03992486121939576
Ni 3.177366625216881 2.3412027354044107 4.443291986666019 0.18110773535003005 0.7574706454639084 -0.7938386425699813
Ni 5.0095333001878855 6.688169278399499 4.65052005397635 0.5765899385230199 -0.4313943436885667 0.08266970838608989
Ni 1.5910793049499672 0.27917990451327696 7.263603340662956 0.7261844337561172 0.7091742723513658 0.09387046219791575
Ni 2.269014106770836 6.018751480605152 11.97609536217909 -1.4355607948159597 0.8223853438594223 0.6597365865455282
Ni 0.2559078929616908 1.15479343385518 13.040512152098787 2.9426406807178287 0.45353462723103183 1.7362235416142033
P 1.341587243043419 7.2876353310353705 4.361923712373971 0.4351250143755925 -0.2956138715204264 -0.8846494920059668
P 2.7454141308960267 5.481936883962169 7.701101246946133 -0.18882515859894575 0.6719418703624686 0.25834855941106477
P -0.014466739696475649 3.279271174492437 5.578281982257777 0.09205269226288663 -0.08457952381429304 -1.2739134821833866
P 7.300963038435112 0.3248806506243728 3.480640291780127 -0.1124795926586708 1.26542241399324 1.2426000167820859
P 3.4978118822059043 0.5822139718423703 5.95530167247659 0.18464994417533362 1.673901286536214 1.4570063662842456
P 5.622411294329254 2.8865904921444185 6.789955899926997 -1.1341030629202467 1.1859773831920348 1.1048580500122005
P 0.3960743808755091 8.78406357914995 0.6639697230209005 1.2087830682326408 -2.335241470123436 -2.554410531121562
P 8.920953360349829 2.2293492023044688 11.623061801541779 -1.3836643630569847 1.162388025907869 -3.6608531520120633
