# total energy = -381163.4518129468 ev
CRYSTAL
PRIMVEC
9.30704217559806 0.00000000000000 0.00000000000000
0.00000000000000 9.30704217559806 0.00000000000000
0.00000000000000 0.00000000000000 13.62179699423877
PRIMCOORD
 96 1
Ni 4.283612738676001 9.014400937162685 1.6312378525329476 4.266157427750641 -3.122398586908184 1.0444762064900333
Ni 0.3824114754903586 0.8136281499255262 7.196899386328425 0.6189102965577857 0.03812894566123756 0.03256482130989875
Ni 2.967196759280775 1.1302099847559697 5.666953797605988 0.17525230501051756 1.5977503531052482 2.3203763800861457
Ni 7.639062073174011 8.44640145463961 1.938709023688059 -1.2269283716830999 -0.09965878674491868 1.1133863991981858
Ni 1.3228750667286413 7.226843864118814 11.09203897288546 -2.2800488841116926 -0.7861214764313816 0.5739884963444308
Ni 3.0318434748685332 8.43686173631576 13.089158063138047 -0.09837940581186283 2.283442483174274 2.3873320201710886
Ni 1.02164333670944 6.7577782408957505 3.8248099909609437 0.4616564850072178 0.17011549800458445 -0.5972639219326037
Ni 0.5139134677958737 8.480567606802389 1.4776111593499177 -0.5935659042557261 1.329651656285955 0.2804001398944655
Ni 4.708469911130012 0.43412233303097786 9.874686220677756 1.2283018549918587 0.10242889329088811 -0.519397548472428
Ni 2.5922625615478605 9.036151494941059 4.068858322586429 -1.637525319010341 -2.7707539497454348 -1.3266203256587992
Ni 0.9481828520946728 3.265012804787925 7.986418573965075 -2.0117414137157033 -0.3119460330215466 1.250778181717504
Ni 5.96208196930638 3.2307163540334063 5.81989921529506 0.09276334517666605 0.5762461820303559 -0.7620562079520617
Ni 8.77229684666681 6.255700538751036 1.754160613276586 0.411186244171808 0.45506314806041626 0.4173314378375974
Ni 3.9298985973122322 1.4044326781158456 3.549077695345333 0.9082730449621778 -0.22146377056957342 -0.8408587200732616
Ni 7.579245712522913 3.6663045462214634 9.913303931156923 1.006505640783531 2.2902206824383717 0.29453760773711213
Ni 7.429057971457603 0.7321878072708881 6.703531214337327 -0.5203182605144845 0.679038886418566 -1.6371370824329867
Ni 2.436416138784111 7.824030231191732 1.920264327322983 1.3872713636819527 -1.597137659221914 0.2118308754654997
Ni 8.013959042737858 9.175310390919774 10.554305061110993 0.811857447744905 -0.3502729536262032 -0.20214758673946476
Ni 0.2972185333935978 5.381648278314366 9.183843087270315 -0.10513755047130281 -0.12801368373852792 0.19276717396582932
Ni 8.653055021139837 5.409225044551989 6.31194578728422 -0.4595682350196214 -0.38140489914431736 0.1878442827429152
Ni 4.541119984124041 4.0363618538063815 7.98260454804399 0.6094877176923051 -0.5077162554797578 -1.8878119273488778
Ni 2.952258956441969 1.0216805648785086 1.0914042720230073 -3.6368141087849883 3.537770587026565 -1.1191549262508467
Ni 0.9897201817330493 7.3870459826636 6.09492324499414 -0.5350627658135108 1.2739510202895414 0.5685786381827691
Ni 9.221501241691737 3.103154032719584 5.837839469969256 0.13977519514983025 -1.246185163030183 -1.2415623195461907
P 1.7631447011770844 8.686672057808853 8.123672318391701 0.5431843664793806 -0.8933431631252228 -0.7413056056682716
Ni 3.3041116893523035 7.651254298544002 5.954836436901388 1.0452084566703677 -0.3056049212948672 -0.29925069694206524
P 3.2550728836465885 4.218147003368732 11.351056751293461 -1.5966375796570438 -0.1796910575081615 -0.5877647241929168
Ni 1.7048081602464673 2.1423787524374314 12.633835218526682 -3.0195984263208064 -1.144260720179539 -0.08629033585781268
P 4.563093910916828 0.2196499203221021 12.135713940049744 0.30948625862714446 -0.014012769339324254 -0.9275144096902929
P 2.4985871811288014 3.429068038831318 6.746440402005885 2.688079356263338 -0.6869134040706363 -1.1723860176608456
P 8.47763588848823 7.050075210338469 11.354789805946822 -0.9516380422113739 0.016271226356197786 -0.021298761477776224
Ni 0.9430174436363938 2.812523023842689 1.4207265170129788 0.510597690792611 0.13709559143513808 1.3704082693780268
Ni 6.82195960437015 6.261238228900001 13.497865655850065 0.8217482244960557 0.5114672378817579 -0.8267405355043245
Ni 6.262280617633924 2.028441941002745 9.193882593763911 0.5455495242774476 -1.854611272227193 -0.667106139536722
Ni 5.539756312349039 3.0258311255639416 2.984399896207411 -0.7075341656447814 -1.4021850475689914 -2.3935836575077554
Ni 8.878173759498127 4.917729449465046 11.92054349917083 0.06317226178311056 0.1657806180746564 -0.3129657325353126
Ni 6.3421536543707715 6.514054725045388 2.266422081070037 -0.3977175202614118 -0.030843981964050103 0.4044712940454776
Ni 7.125946218900433 3.387046742995049 12.962066678162943 0.33905317365098386 0.9248394339612911 0.002290595806389604
Ni 9.316907731972488 4.528164581288141 3.890943971902995 -2.427982446702599 0.1385680622156065 -2.2619411187673886
Ni 1.424349748567588 2.099035856599224 3.9829180249956155 0.10328584197454471 1.16279374598672 -0.5491035601772931
Ni 5.166134407575794 3.6899351265378066 10.101720348334633 0.040633457250646154 -0.16647353037662296 1.6211026546779437
Ni 1.5401851966247768 4.750053775979724 5.339062975716707 1.1185381186024543 0.19120162925092232 -0.5251987285352374
Ni 3.5826807714509474 3.525591374184131 4.543918611733778 0.1840259374380895 -1.751588711216364 1.3821175873951552
Ni 6.0830176765259765 1.705673715177314 11.697200544477115 -0.05509848363604059 -0.40659733924954494 -0.3826662823552442
Ni 3.370666348604831 6.706654657722189 12.043847848647422 0.7973854793809751 -3.5349215476135445 -0.8289218594263594
Ni 2.950099722635985 1.2654413088979395 8.15846204238638 -0.5383859166494728 -0.10822184582358135 -0.17544153820318817
Ni 5.114787455387821 1.6855984250070297 7.180988997572699 -0.2805466927746587 -2.0179447143129376 0.09188325656455788
Ni 0.8618432823905967 8.934965331412394 12.764100304914892 0.3343925349505209 2.034141121567142 -1.2038293237717912
Ni 1.1582893312760194 6.673223761898517 13.41215803431593 -0.4779323393491059 1.2319924164695686 0.18657750021534966
Ni 6.7813064437471535 6.0295580257433565 8.984147465569023 0.36085638556900435 0.0639613333433092 -0.28728529705007294
Ni 7.627437577382316 2.492221164218058 3.837192079993186 0.004526427115443817 0.784966536891332 0.948072950567935
Ni 2.748155519522946 4.507018981257133 9.249377694690361 -0.8376857216619186 0.09479245979155287 0.11653062279959286
Ni 8.315302457264263 8.00927760047747 13.460883192697242 -0.3300028905232575 -1.5211985846914384 -1.708545616082961
Ni 6.094502566683664 0.7391103853092086 2.548379857258157 1.5846446689612257 -0.023333789629934005 1.2933787899968499
Ni 4.4410041304561005 5.848861800126265 10.160593905604063 0.4698027682634361 1.1782820714303062 0.4746025036449245
Ni 7.609428450595343 8.31994667135558 4.686020394477373 0.13292526210753236 1.7934375289313502 -0.7790630269227036
P 7.448546917965055 6.352363479737855 4.089644670785926 1.1083192690879236 -1.3216524401305625 0.1719746627005103
Ni 5.261633968279218 8.244354874061631 3.9169478479974664 -1.080701250260339 0.05448681819397067 0.04392215530424694
P 5.684825180167406 4.8496670493652365 0.8211817454295608 -0.3160626262930815 -2.314249955473434 1.9049416450506287
Ni 6.624110499854665 8.973961838511833 8.53344277533063 -0.37430505487474247 -1.3090692041489131 0.2172762148507871
P 8.581576936527977 1.683457805285581 9.021921027314558 -0.4388744541156958 0.3090437717730871 -1.1259230982126158
P 3.503133481193452 6.726301823948184 3.6736896842604625 -0.9871514046266353 1.6355422271420414 0.880095296976381
P 9.212864306467802 3.065320905903541 13.260560276347142 -0.8535409435266202 0.39938616621308637 -0.6843286740625957
Ni 4.179169110353827 5.044640277820166 2.584708966043826 0.04745099439311183 0.6065795429065747 -0.29710202603017866
Ni 8.463703246214278 1.9476009718701126 11.091221814574403 1.185569863340971 0.9146774058266248 2.7621656938557915
Ni 1.903206380255715 4.644465381458689 13.046848248991497 -0.333527101626432 -1.3185930844789484 -1.361888919053106
Ni 4.449054722017202 6.615976144913159 7.982768351987891 0.21117781526253307 0.21683629909989105 -0.3206355903757445
Ni 2.217793715928304 5.664610284363114 7.220478777912298 -0.40071259833399375 0.5669125633342559 1.2073105974521723
Ni 8.841522627050015 0.7539774546267848 3.251318422796012 0.36879878034453256 -0.8168338179135738 -1.4856667103334156
Ni 4.952444717121587 4.536950429188349 12.477838952382433 -0.8542454257928127 -0.5116377020213511 1.3389757619003584
Ni 3.1534772102581683 2.229232070874655 10.333686277688878 1.2914288653593307 -1.231723479078898 -0.27551452966739
Ni 2.426699586657186 6.920493260852671 9.207544401107889 0.25767673015502074 -0.056450883898876966 -1.1432016827874052
Ni 1.7631912363884203 5.499335827782723 1.6573506210219444 0.4147369376375438 -0.732596507930048 1.3572431927509787
Ni 7.583275661824597 4.253495149899441 1.833384949167411 -0.5046432729813889 -0.8216896033439784 -0.0527477240156769
Ni 8.052704259696082 7.580986129426874 6.720940036898067 -0.31079752123940024 0.43589017467639124 1.898845302344904
Ni 8.08167708227378 0.9429243732137221 0.2896602843684296 1.1508198614542953 1.2288477001929998 -0.10845710176283903
Ni 1.0296008578478697 0.45082568178786664 9.825306777225064 -0.1507265519550114 1.5231163705394415 0.7324221871357127
Ni 1.2366546271655847 3.1645991257674355 10.317653035975226 -2.859939090652539 0.6044159595963526 1.2122959664819057
Ni 7.6124904675012415 3.102483925676348 7.450088164164498 0.059448533074620204 0.6682567082013976 1.0770417991308807
Ni 4.515069572818234 6.657643773143276 0.7201621779574786 -1.25434147358873 0.7561724954777751 -0.6101402636746396
Ni 9.224647021978038 7.785731752262331 8.998286724181307 -0.4603120551641814 -0.6308368727920426 -0.41327218016655926
Ni 3.761506281572338 2.240763496243678 12.5852329131033 3.712419454125129 -0.6032638482697804 0.030806443857895334
Ni 6.1092635357193945 8.774940046670686 13.459302856920274 -0.7616193775249593 -0.19071183409869738 0.2718599636339382
Ni 5.825100921218182 6.932517959461854 5.977407875807727 0.07116556440123227 1.8297129663236165 -1.3312493397903784
Ni 5.9685596707243285 1.78775252093148 0.6276492471175892 -1.701554015256476 0.8637659636887381 -0.7072971099333109
Ni 3.4344195881349404 3.5605858531086874 0.7473350185607062 1.2889770613847285 0.48481672517376506 -0.37551733001528875
Ni 5.90069271851213 4.748592570343778 4.10225850517062 1.6181032057299876 3.114165914585746 1.610418692601536
Ni 6.313394893765218 7.882618062263564 10.930265825605977 -1.6988741544314678 -0.9431228056515113 0.413451643167217
P 6.009845710221493 1.105043742465544 4.784574526452881 0.1300775082460921 0.16435339870982663 0.017729556069279145
Ni 6.4533541953789095 5.481512841841093 11.326688122525333 2.803281747169811 0.8219068615611069 -1.5364164300824572
P 6.201096121769553 5.2507168076998285 7.02639530269811 0.7282534004700039 -2.3705979952458596 0.5364781581037986
Ni 2.9504440831998706 8.681674176111382 10.638119630247987 0.13643404659173922 0.8748818710962417 0.667935834526869
P 4.799967443658553 8.663851190169753 7.258538065855433 0.25736639800345357 0.670105074264046 0.23249071780769637
P 0.5789920301448281 0.3483802754404541 5.009143218613183 0.5878451997218651 -0.7566314373920647 0.9001807548723465
P 2.941527936707922 3.3125624837308933 2.6685644861667948 -2.3569336103848895 -1.9887920040083813 -0.350730352878596
Ni 4.039321493247341 5.187196244226398 5.780995778618293 0.8808661137041345 1.9760010228913003 0.7988124416354888
