# total energy = -340872.03545514075 ev
CRYSTAL
PRIMVEC
9.24043065654770 0.00000000000000 0.00000000000000
0.00000000000000 9.24043065654770 0.00000000000000
0.00000000000000 0.00000000000000 13.52430430290269
PRIMCOORD
 96 1
Ni 4.2315535020691515 6.916480709015314 7.252421180004846 -2.435095917818929 0.04843804089672948 -2.4640280274722466
Ni 6.804412767929067 7.211592337847064 9.456599281532817 -0.3646503053937978 1.4150896714458017 0.5652128070343299
Ni 8.980580352486827 8.81876193359646 1.1455786748838213 -0.5051017006750461 0.2708487487606045 -0.925873017432128
Ni 7.926792418003264 1.8016991386045806 0.9122236152029386 -0.20244737736807067 0.4515340518612352 0.09373985015732243
Ni 8.502295669882594 7.581754743187923 7.412427550474448 0.03320862554148474 2.213279906116259 1.0086705096453337
Ni 0.3139935245124582 8.13879561493118 4.904953570822173 1.1803978322217283 0.010389827874756301 0.861421888936594
Ni 3.0033986440782114 8.414779552630959 5.067867904769665 -0.7794942009228512 0.1298409667552538 0.5152421315431578
Ni 0.355587474315519 7.5799898209627035 11.538584702277296 1.1266023836678274 0.43357129673522754 0.5880398322311743
Ni 6.016989482996308 1.6706421128438425 8.30519359117662 -1.2571550317781255 0.6691339686000283 0.9774120658516845
Ni 7.217376847339147 8.849412441560105 5.36698526022253 0.7118289363653933 0.5433723141204707 1.1390647778008964
Ni 2.3810926117237954 3.1255848565603555 4.38476908016538 0.9965942952070901 0.9415886283951719 1.123510117895749
Ni 5.980434339944099 3.8111601165382485 1.9234806202308885 -0.0099797369205312 -0.5761009147017434 0.613484240446208
Ni 1.3620024937622361 8.161693401706552 9.404909237367056 0.6405679840368774 -0.5407706148315654 -0.771308322677949
Ni 6.454385260644517 7.986143703095361 12.183680408370252 -0.07996670763263002 -0.06931539856637094 -0.4990315832215664
Ni 1.5029652610174051 4.465530442722586 9.007903381427948 -1.3497209162320045 1.5171408696822968 1.8894427780840815
Ni 8.025073636785693 0.6566711933784724 7.922266455145081 1.72771498992256 -0.6365159254546908 -0.009861980395744305
Ni 1.3634162796285123 2.6595714656581793 7.819008340496138 0.7680335085814192 -3.1116488045908475 -1.0926301404874408
Ni 5.7113622442572245 2.3964040050598694 10.596400839268952 -1.2885073208371616 0.964712873117461 0.4250300920334357
Ni 8.466489001700767 1.6124920837165542 5.8418232622508075 0.39485382556037163 1.1430556441278443 -0.5382205947162021
Ni 7.358589106217777 4.063054251928344 5.302865912993187 0.5015633485044846 -0.11098501039101531 -0.23879352009727262
Ni 3.6544054535610813 4.182246564928962 12.245148676089563 0.22732460022572462 4.1391606153124005 -0.2013790840045564
Ni 3.1477156876043493 2.4808522993859916 9.635052323406645 0.44226933872985774 -1.7237272089194056 -0.03780215844943813
Ni 1.264626837168662 1.1506091652472243 4.911770236400943 0.8751297254409895 -1.537395763276591 0.01037697235894987
Ni 4.493390340675672 6.588380743303791 12.521842278851631 7.430488136116236e-05 -1.010580325073537 -0.21173085955252566
P 7.818965834515845 1.9328208473788089 9.734036738950016 -0.2799008316605437 0.7475808971540222 0.837674408808009
P 2.5511904563408487 6.310354670463835 8.482578439284817 0.1381353455535621 0.16278322600922934 -0.11899939605505958
P 0.46598289748153054 3.623366847516498 6.183527913785326 -0.567734545014919 0.4139969741477257 -1.5969885352385595
P 2.426860463983045 7.318014375898704 12.400542223654298 -0.6652513457161704 0.17509675326925972 0.5423986373532916
P 1.3849834444120954 4.539075029060435 2.8774580446845124 1.3651573053917327 1.3087634999830362 -0.4328076790963256
P 7.905271455372173 4.08498179350137 13.217437861662138 0.3508162277241829 -0.020468552266997005 -1.3815758559590723
P 7.253072630354992 2.5934284641496577 3.3821038274149684 -0.9249121961807555 0.7527321023376584 0.06056439184661828
P 0.8475221208521884 9.557100051720996 7.183853489533508 0.31687303800951877 -0.7271524540963413 -0.35790990134617073
Ni 6.15641833878872 2.189704815238114 6.091278848032339 0.9346440787565388 2.3004248766648834 -0.7218783501815955
Ni 1.1743385907674653 1.646469146659672 1.9865447102972982 -0.2909673738873505 -0.6168305312106216 -0.5481715352813269
Ni 3.566972500183932 2.7370709562494024 2.369525440825728 -0.5388116913329817 -1.0825146493199937 -0.7768613912856944
Ni 3.1340028887445217 9.567079716659414 2.854155527053304 0.9994250797876658 -0.1325763634085459 0.05789712942710029
Ni 8.279425726688402 0.7293628879813067 3.391111399064941 0.5620374946301417 0.3219591942831746 -0.38093772969991174
Ni 5.094009082650024 0.36694581148431965 6.3119551130261815 -1.636625690014207 -2.340655442050156 0.9429546555047631
Ni 0.184273589044858 2.909210936006632 3.67770427502009 -1.7298631466138141 0.6614677103040221 1.3331326728560202
Ni 8.588906224945374 5.299026514121046 3.4336183034012575 -0.23948874639208434 0.25054706108877495 0.18464814440312072
Ni 7.113024665719179 5.671674595266013 1.1139403648998831 0.8276175387926392 0.29577430835769064 -0.06328873275631682
Ni 0.04665308550100937 6.283030717479663 1.3047635710821037 1.4426035605953544 0.5042876894141831 0.7629087857603442
Ni 1.0760666124155331 1.316188439350494 9.667754206940968 -0.6343032340740882 -0.20715840969049484 0.8292018525606235
Ni 1.879568246415745 0.35425777636677963 12.17062922433412 0.22536773360966994 -0.7926973298766864 -0.7616263195034948
Ni 1.2135642182337512 5.599811767278896 4.9654885550611345 0.5248251472459026 -0.2624816077428318 -0.17572050289618768
Ni 3.682172947209182 4.786626162116219 2.9887091317146885 0.9188078830552305 2.1680966247114015 0.7289298577117381
Ni 2.8036020558388626 5.96610243224087 10.670081259935131 -0.8819518905691456 -0.4890963263857254 0.6512005240500591
Ni 4.063192858385823 8.85347823097946 13.026136001180092 -0.025890751723832827 1.3332586569109233 0.7786480508724719
Ni 1.5853529393423536 7.242215124519213 6.781018770035923 0.5257525441561784 0.1539198620813285 0.5447445118776489
Ni 8.686910230812849 3.9796778475400525 10.605664370843735 1.1891956330190163 -0.33567937208274445 -0.2776511163944186
Ni 7.619566584787934 2.2839110041706903 11.885848396799732 0.2339084240908294 -1.027533665098424 1.5598242674834362
Ni 5.297668170837761 7.714558210312886 4.817776577369834 -0.438245048061813 -0.6116273897431272 -0.2669033909596113
Ni 3.9165841880960475 4.3657245529078965 8.788160399914458 2.3003094341329415 1.893550629604868 -0.32533968071963326
Ni 8.2750088009101 2.993160247085833 7.982760781489848 -0.8137816613508115 2.032005049060746 -0.6216791175521745
Ni 4.260679339000537 7.456630073807245 1.5654518241776563 1.0999793817636603 -0.029337315511536573 -0.36427106767750816
Ni 2.4732659059466933 4.375741179568309 6.799452504837453 0.5923554288873928 1.52076612513971 -0.910127324562097
P 1.1219453498407652 8.808782268658042 2.920573893390682 -0.9177064224609356 -0.44133962782673675 0.8992286753717222
P 3.5328198690613424 0.23400928216017902 10.034303603956898 -0.7902010458173939 0.5943845435022796 -0.06490209999002372
P 5.14460043962951 5.46628754657505 10.721134638439542 0.218425755074198 -0.17580534930051014 -0.5867144285515316
P 7.549450198165041 6.736846740123771 5.244130040572292 1.1621165174140373 -1.3391760508366226 0.20040309324453226
P 5.971942384315945 4.145026110880859 7.603783005453384 -0.41300555676873385 -1.1362710171058432 -0.990021784195895
P 3.61256478426371 6.290053444658551 5.012674813401908 -0.6473258715860013 -0.7429624245454044 0.26287395808524405
P 3.5009865859938856 1.288236137092422 5.019842615339623 1.16750837785357 1.0610935033317404 0.0392193505119389
P 9.196972753901546 6.367700782137749 9.575383167505398 -0.9944445958539391 -0.4265539848771299 -0.07935427085961173
Ni 4.304478979563599 7.342168861221878 9.46913577359018 0.5794957993159052 0.8112321554560803 1.2763742850190534
Ni 4.7763970055543385 4.613746947919106 5.758784133575713 0.18033203352627006 0.2889891671150571 0.4243459214822176
Ni 8.71675682132312 5.5134414634090785 6.909958813169448 0.3301972659222507 -2.1240993931948453 -0.8066414507616044
Ni 3.9265084104514756 2.430824608666917 7.135016890305693 -0.39474481078633306 -0.015212188964064125 -0.3843488122639897
Ni 2.65571820614029 6.919483848927339 3.120976653870735 -1.4331645266696416 0.3626628426501238 0.9340722654134688
Ni 5.721720766846084 0.8017672051956367 3.8910907643936365 -0.598534304004595 0.4119838003724388 -0.0832939722336501
Ni 8.283935056771686 9.15983546372793 10.232961771158827 0.3556833260084971 -0.4759093953818062 0.7920874642068293
Ni 2.4645152182645798 5.345099300586748 0.8949477063428753 0.2837754841246016 0.31208615814383667 0.06721686416612939
Ni 5.830203420898898 0.050987771447872685 10.348959667336102 -0.8215697899366625 -0.05520981240292427 -0.9756811992035067
Ni 1.8877090656849553 7.809568316698834 1.0845289986660924 1.1419133029932849 0.49013530917320103 -1.4763078948263348
Ni 3.47697070712819 2.148612620811124 12.04563761715262 0.6756375740465009 -4.064408362001174 -0.21558031520560292
Ni 7.79829499149062 6.1450710901365175 11.40700651623644 -1.040967936226459 -1.3080615888200051 -0.47873349509416263
Ni 5.760077793845507 3.521361735243157 13.120116723608506 0.18265296834996284 -0.48799563712237887 -0.20861982472736973
Ni 3.1161596174518484 9.115472156904458 7.735131104774826 -0.7069957766428082 0.763426348826711 0.49713565175043406
Ni 6.557988967394104 8.879563966276828 0.8299514422592219 1.0235178590708116 -1.652200661634329 -0.3929270408513039
Ni 2.019024823499653 3.109589671367389 13.682132643132173 -0.9816325316909352 0.13461190578133592 -0.2824991885153393
Ni 5.112905763019531 3.097484707414307 4.021005672944756 0.8063200628664435 -0.11213275084221334 0.8173812057766116
Ni 5.401382762753331 1.4457577558009678 1.274896651624735 -1.3021593644029574 0.9953218562525699 -0.15139838121105537
Ni 0.6605909839959514 5.215326694665305 12.56218507436519 0.3178515998727042 -0.5030548454483466 0.20641099000150903
Ni 7.250069490442969 5.084944220330961 9.0151386385083 0.17011961176964252 -0.7985296202877474 -0.09416279662735395
Ni 9.08812048262879 3.870622286796329 1.4427730967499406 0.4752267674924848 -0.32385178332019715 -0.06018926789538665
Ni 6.31947497536589 6.523882538424008 7.092523846615126 1.9363944642432716 -0.7652937410527529 -0.33532353140522253
Ni 6.2487856820520875 5.708312902192708 3.801397601716545 -0.8982979360273368 -0.16657688872370666 -0.4680901564477035
Ni 8.09214068134407 7.677088264641321 3.267944776906903 -1.4511326811122878 -1.2574427382218731 -1.5335355089902365
P 5.063256929950896 5.5661581194032275 0.852681977242571 -2.2635292891901146 -1.2743845082825342 0.2695711675997616
P 5.967007994429727 8.266720134752914 2.756997020576446 -0.1828604563750786 -0.5210155436918252 0.34531406695903105
P 3.153777410011389 1.4129449871006659 0.835385739435411 0.2159929772629893 -1.2749542647430752 -1.552489938605552
P 8.19111493241389 7.156676459394263 13.274388482910714 -0.13526470887398642 1.0044783259408572 0.07899148820355428
P 5.783317476549326 0.9065592313073358 12.450460877293489 0.20897772228742076 0.9950004683574091 0.2661544286087287
P -0.03662352223789822 0.9389571046782534 12.693722602511853 -0.8514470371120691 -0.3027026600464077 0.643570261198311
P 1.727831137199283 3.404830666226118 11.056524379771362 -0.05691316824727618 0.7053556699362239 0.6783984246210897
P 6.282337685192273 8.707451707811094 7.952872609042332 -0.7843677269650685 -1.080935477758332 -0.02991349972998074
