# total energy = -340895.7259732864 ev
CRYSTAL
PRIMVEC
9.05658697105858 0.00000000000000 0.00000000000000
0.00000000000000 9.05658697105858 0.00000000000000
0.00000000000000 0.00000000000000 13.25523048598945
PRIMCOORD
 96 1
Ni 6.372277958560095 2.0624746542584247 11.448767534899565 0.9983884109930353 0.04329172080909963 -0.1756467122354588
Ni 4.643882682897057 0.34211347685910376 5.9260952413128 -0.2430381543062395 0.1057651567529727 0.5995784289983932
Ni 2.7580477000798718 1.5410960014076913 4.814723421728379 0.11280200899509606 0.6794839443757846 0.4592725581560736
Ni 3.3784329612261152 4.112668576642654 4.663548155752242 -0.8443765034185329 0.14708175611357252 0.5850604378878763
Ni 5.172225851095325 4.641690988860512 2.7310943917238286 -0.49707754481898914 -0.1291727370436356 0.3824783347141542
Ni 7.277139671697764 6.068882296476342 2.6958624572570162 -0.4971428508392858 0.263989559746926 -0.1694686084492049
Ni 5.3220489686431325 4.661035858538449 11.54195256911784 -1.1547361657895663 -1.1462188723471745 -0.1574651562304256
Ni 5.794205071540874 7.901672849656974 12.498475771068174 -1.3412650721551673 -0.2797882173420794 0.08487468645720866
Ni 1.8400811056575699 6.533693507375579 0.5438869883425769 0.0076929977688835255 0.3646523622763268 -1.2464777545699373
Ni 2.9314903963355716 1.6693010459586646 0.32244257005176313 -0.8715216963747571 -0.39396576652846343 -0.025869668677910285
Ni 0.6219674468825431 0.07194643221371767 4.72069159663235 0.7076994875780521 -0.10974625288790776 -0.14596075513525184
Ni 8.784191962843579 2.067319928264837 1.169214428975361 0.29705188951853356 0.8550604654949402 1.1388323500751159
Ni 6.814139778184101 0.7710787166978189 4.912189504587459 1.015606831753851 -0.5991266861729553 -1.6025413467359886
Ni 0.8982232349195384 7.428656371001083 2.6963786827119045 -0.6718598521716235 1.190304292702163 -0.22427167233201373
Ni 7.513543760276039 3.705113108301431 3.94101817893998 0.890540403569105 0.19842334381034216 -0.5957945364759287
Ni 7.502992836505067 3.831742306726954 12.728374513256158 0.43866953719374124 0.34418329578869755 0.13358166474460864
Ni 7.742322202661044 8.683346867401712 7.281721399024575 0.5671203084696878 -0.13625432648076533 -0.6183860486231996
Ni 6.788890013829191 0.7372125155397299 0.35679329861049347 0.2132987182602778 0.7244270847453781 -0.7086273987089603
Ni 1.636470918345124 6.486771330502268 9.194477086484865 0.9218353570276446 0.33913004963550625 -1.401787812130573
Ni 0.03250952443629372 4.9005010734983445 1.4410560365437108 -0.038561662323281974 -1.1416567068977885 -0.25042544790924615
Ni 6.546707822790934 1.8298290492552174 6.937801133073361 -0.21674039695197514 0.9458684867174484 0.5885787354537799
Ni 3.4117521445337613 4.564619434104311 0.6977185512646603 0.15959351542733805 -0.11530909168766591 -0.21642569392503375
Ni 5.939943668384211 5.696801479131598 5.034826559495175 -0.05423279320163563 -0.0021597266554801513 -1.093030204139337
Ni 5.2387555386674824 2.933057185874094 9.413109434534574 0.6797263994038938 -0.344152185440446 -0.47881911282943346
P 9.218880965620711 5.596074119319793 12.45303706313365 -0.028188289508757906 -0.13139725549878015 0.20605797753746447
P 4.000031805020694 6.1005169546154026 12.577345058329557 0.29683540263235325 1.0231129103229089 0.16180286437383104
P 2.4319743443287245 8.548032402112359 1.4045643308352311 -0.028664457814228054 -0.3108908522841549 -0.2251877563883799
P 6.292915087311142 7.835858632452119 5.872756472601091 0.166465559956823 -0.17291080136153447 -0.3866792601693792
P 4.770412258866375 1.168788769389751 12.531243408231914 0.09267309945570493 -0.4567515915064327 0.42290738926347815
P 3.6989274594296933 6.204640534525161 8.17969648346229 1.1561649278162927 0.9123194471174094 -0.37541500010946954
P 4.79947484631792 1.0351769424428372 3.7235133759627908 -0.18951575690806718 -0.2399170921787546 -0.3661806259953952
P 0.1119856030218452 5.587787342280788 3.6337490146271754 0.4577885174113793 -0.3347478614074106 0.18193794456080925
Ni 1.7985928809409826 1.2173320753231514 2.6226136878430704 -1.3996321992401506 0.020622047125725775 -0.6845978685635822
Ni 1.8870395088785925 6.414164673101508 4.851334674384306 0.4131179139768821 0.8805439544780255 -0.21981260811939565
Ni 5.794313750584009 5.643458182126426 9.197512854423087 0.8860147477846096 -0.4641725665608522 -0.03181097386300973
Ni 8.825399433365403 2.223881146486981 10.157522842340654 -0.9700983057990905 1.2806374311707815 -0.2162464880346921
Ni 2.318930026295011 5.262764550613274 6.890744918713517 -0.39935068498946064 -0.41456004574004734 0.25338170232409263
Ni 0.4629537049203306 -0.06405452236476895 9.217978929562694 1.4995462965289852 0.5906559296977828 0.5653616739073682
Ni 1.5144968056005277 1.4343278981149936 11.422681847571212 1.409128311656044 -1.3855345834965043 0.08908075411875625
Ni 4.087282963483825 6.760470444049524 1.8959747375416323 0.2966857644283664 0.5058097824856643 -0.6446760926679801
Ni 5.450996653322192 7.9496365340269906 8.13636524330588 0.1613212967517222 -0.015496552973702343 0.2675770199878682
Ni 5.262520022766221 2.8831735050753684 4.737684470685118 0.8506340542924704 -0.31719468301499565 0.5987484768979301
Ni 0.7437703901342029 7.481066839552685 6.6518058914541305 -0.5877384989406716 -0.566540781817134 1.3338687796910964
Ni 5.004579370473465 4.486044485918083 7.0789561912725 0.2955128271661879 0.4500489826752766 -0.013528116393421863
Ni 8.18219157316092 7.187153423982417 9.270575963805012 -0.9045570295631711 -1.1229272488090853 0.017784320566614532
Ni 4.7157104738220195 0.3097053861964022 10.394778250090148 -0.48063148344782386 -0.19804204921152346 0.07120824471370962
Ni 8.222783195771648 7.38042098902323 4.63988691674448 -1.0410669236981684 -0.6403424982896327 0.36967089853684076
Ni 7.10942073838048 6.202992235704289 7.098149815948743 0.606460243719891 -0.8674840359702738 0.22368288970807929
Ni 2.1728563357353434 5.477885659911047 2.6645266664865748 0.6602379516619791 -1.8894638611300039 -0.04289731358415838
Ni 2.2934176209191923 5.305910130737662 11.430330135231802 -0.2986032931660535 -0.6220886942857673 0.28460697888696146
Ni 1.099641728195439 3.4312600327764002 3.759315875406059 -0.5289389123039601 -0.1917641866226117 -0.47530672880080077
Ni 3.7392383278456567 2.6950229116488025 2.5530101946675936 0.08355751030768191 -0.06850344418803686 0.3684388259019526
Ni 1.0461444692124917 3.381186163652189 7.967878311417113 -0.014808782878058367 -0.31675322460220284 0.8874589364303038
Ni 3.7197576093638016 2.5596359936640254 7.20315731874266 -0.41688380877721753 0.1428450923244056 -1.1484870995560608
Ni 4.144656441671902 6.995968873935012 6.158181149243865 -0.2841966308224202 -0.2808554822643292 -0.558915146951076
Ni 0.8627123575753475 7.29325133984245 11.213978235770531 -0.3245369823126798 0.4664526208442806 0.7891522928379054
P 0.012253562113412471 5.586999419218063 7.9382524042586535 0.588501088138309 0.5703830383813596 -0.3688679430195712
P 8.59461042868241 1.5369480845947252 8.011607135739656 -0.36360129530399316 0.32146991335158187 -0.21185787204869316
P 1.807921165476692 3.352540179199326 10.204685018767554 0.11933801034140092 -0.5813264247667408 0.5259011539189008
P 3.9283398628996498 6.023789550162461 4.014346646318891 0.3099403154454275 1.5056770920170712 -0.5143957243824624
P 7.121321093603705 3.9181693157796484 10.31711620586625 -0.9880047537658662 0.2323055983800838 0.4059185680149655
P 6.24931667784036 7.70963698043835 10.313152137767922 -0.3145464467588712 -0.38618123748703814 -1.1079593146453435
P 2.4831168907104244 8.583081393523228 5.857022464131296 0.6144805429212062 -0.9300196926106499 -1.0034077185844976
P 6.9071056429987205 3.9502839730258867 1.692004098069457 0.7813777910988091 0.4035559813200599 -0.915661367006449
Ni 5.188428085109291 3.0528667743429287 0.5369532653905972 0.619688569484707 -0.5455927188105572 -0.6950874552409965
Ni 1.3950675937826635 0.8717843407009981 7.0456587437734814 -0.38044664899610603 1.6433768926951116 0.15401833533240572
Ni 7.010115262716351 0.7030030697370743 9.384490619842493 -0.7499545395925213 -0.11804371701000962 -0.27285498055735585
Ni 2.7734891807918958 1.5383518555685458 9.063834008732908 -0.1974239560115503 0.1748221594516344 1.6795188898333073
Ni 6.466384953327625 1.9577895659591382 2.483566097422047 0.13476000132342597 -0.33001703159064455 0.4927691472516223
Ni 3.994226532799927 6.749348955302096 10.25795767439469 -0.15603562287275063 1.7506775122560045 1.3967021700775495
Ni 8.111133592124826 7.082821542573316 0.4739538354029254 0.04229567544441748 -0.17026565042920355 -0.5259212085235587
Ni 7.6672883799636145 3.648808307370843 8.149740010880963 -0.3415070345081151 0.7538890987602371 -0.07446763219127175
Ni 3.335051909841603 8.326508285856578 12.517325245441159 -0.44924088495168435 -0.06927914601179683 -0.13234393568276565
Ni 0.1310442845528616 4.832123842192902 10.039895891321436 -0.6389926691299577 -0.46473718081507054 0.8911129882431233
Ni 8.7728259462491 2.200958924972534 5.722203394146898 0.03958136183704796 0.955393395488748 0.39307050840770363
Ni 3.5905925665984735 2.8511131873506974 11.468080706523255 0.308839626182081 0.47560446254687766 -0.17977487547121943
Ni 0.9350110910205595 3.470357318544029 12.609011414522866 0.3184972038765031 0.04136879275477392 0.022422333559258156
Ni 2.9780593663186963 8.423277917180904 8.060677535032259 0.5538125356171882 -0.9217037165457869 0.44899894414420743
Ni 5.631068771209095 7.923689412478634 3.6340669008283437 0.1664997556288681 -0.1488658445971888 0.2661145765097288
Ni 3.20782497667884 8.464666519441284 3.5503740753691746 -0.2643762536623834 -0.4679523453182586 0.7462994593384373
Ni 3.4842501228913862 4.479197706200611 9.35189686914777 -0.38001753187848747 -0.9238444170378733 -0.11008769538772654
Ni 7.152457639461733 6.0492657291905685 11.37398186268396 1.7970378446880988 -0.28179727735230825 0.4311953403038832
Ni 0.6302207145499139 -0.2593643477578189 0.07405752262660492 0.758927432515093 0.35713651351525594 0.35882752806443363
Ni 4.57224508029758 0.19129775738400215 1.4039412376545937 0.15218436744746047 0.26700417820353367 0.6765287184022026
Ni 5.9583013700870096 5.728354627988309 0.4940830055088165 -0.2074494585683524 -0.29067272546506717 0.01718319664750589
Ni 7.852187658683074 8.576678386565222 11.474522656805052 1.0093598224028746 0.860878357728298 0.219971245184447
Ni 0.08182082894117784 4.873132067802312 5.726643838717633 -0.6860654542480442 -0.22536182007239897 0.6881436769333117
Ni 8.040329195522713 8.8782627312634 2.2156378410652313 0.7008482689841736 0.44138796456616886 1.214636184579308
P 8.684279695855283 1.5633027525548362 3.5436794463120904 -0.7255696829902536 0.5283601569823545 -0.38902153514931065
P 1.8693338814346006 3.24052831207539 1.4209875455702368 -1.1295596665239385 0.25602993858021716 1.0544947670683
P 4.990596000256828 1.0598018022997246 8.24181108490711 -1.0344846424949603 0.06679828857147205 0.11516305302810488
P 8.652626924542366 1.4251988584916977 12.395880943031841 -1.3594227169008006 0.5847045972103543 -0.605420489601467
P 6.302170919151428 7.878361194904628 1.4982384207476094 -0.38935320745711655 -1.2609903463638155 -0.2611446340989631
P 1.810420783468785 3.2964708495288626 5.976027827680936 0.5068827038348689 -1.0131866523481325 -0.9087908651388606
P 6.890975861680178 3.925034208670976 5.9937370777596986 -0.24205702133989276 -0.039696804368989695 0.7453044424150196
P 2.479141049049088 8.686571012348034 10.470359090638024 -0.5389484740211622 -0.09010919538327063 -1.2314761389547824
