# total energy = -340861.6202205498 ev
CRYSTAL
PRIMVEC
9.33302092132367 0.00000000000000 0.00000000000000

0.00000000000000 9.33302092132367 0.00000000000000

0.00000000000000 0.00000000000000 13.65981951457043

PRIMCOORD
 96 1
Ni 3.229047812207837 7.642689268472659 13.584744449257572 -1.535494946709452 0.731134835782857 -1.2827326231369134
Ni 7.745212500144639 1.0200711563088145 2.4328683545085306 -0.012194999404295125 -1.4218894679764547 -0.8103566948296624
Ni 8.360585215692382 5.009424161500369 12.639498919283191 -0.21419860436672788 -0.8266070952502539 0.7398650165670032
Ni 3.5708696929530572 5.951779254984187 11.617457562318394 0.8105199598804039 2.0216543019540407 0.2534212973127765
Ni 0.23152984269693172 5.658311754147254 10.893924470635325 -0.42106725073094586 1.07659288451892 -2.178908370614925
Ni 1.0332680474862546 4.417579990972658 3.1441350571714386 0.01855436596341966 0.3579299559508287 1.9437187658188269
Ni 1.501431028563162 5.479145757023267 12.687676905101481 0.8472653949305536 -1.2135640345610519 1.2475622458833677
Ni 5.9924992240133035 4.3620111861137625 12.25752918367376 0.4402188839587322 2.226020750721695 2.116123316967904
Ni 7.1487764834646645 8.101304569440286 7.244799266264588 0.9648008048455772 0.8404843674529783 3.0734884914710423
Ni 7.893896851875754 3.1899331227278855 6.798805942403304 -0.049324557266740864 0.8134777569571474 -0.9156150871495456
Ni 8.72195977466726 2.4740251089033505 13.059374718200383 -0.923665211147532 1.1817880277010357 0.03174463940144856
Ni 0.40037071909276944 0.677086381192513 0.38465391234396534 2.0051313645983537 1.9739328275083619 -0.43093334489174817
Ni 7.566345159680962 7.796889435398871 11.569607165524383 1.2106077801462052 -1.2442416661505669 0.7072207481694208
Ni 5.2955652411390775 4.176769392556598 1.627827193716594 1.140977421442577 2.9953056152117123 -2.5600728716136616
Ni 6.802866739681454 1.6578524544004287 8.446126083017495 -2.4278752317007735 0.4290628673419127 -1.8961212185455216
Ni 8.983695005346275 6.238470982840342 7.700955316294977 -0.9153389506700235 -0.1935133081032345 0.9972542973885922
Ni 1.5040442743408728 8.472702792576813 5.119850595045796 0.27734772622138687 0.4147618773382083 0.6505520918327828
Ni 6.556195004306814 8.661369804706906 1.0058336333306075 -1.6334349509910513 1.2226875941288748 -3.204306991648217
Ni 4.456592017225628 8.484089077751126 11.36309821784697 -1.0070928807455688 1.5110362994464557 1.0098773854692413
Ni 5.520435040311099 0.02021905590297461 5.928703361464937 -0.03420672778869593 0.39527342959629347 0.09476649164962389
Ni 5.679189721307036 6.949329832501515 10.354292950746279 0.709374818397946 -1.7439898158231832 -1.1353258795837544
Ni 4.681452483377015 7.6513596446422785 4.334247316329711 -0.3442313754178136 -0.036389594372627655 -0.853957976459381
Ni 3.8106816581612057 3.5268085025367246 11.896281553779515 -0.8134659298826055 1.2709906521096368 0.34461806933327105
Ni 7.464381909247064 3.2011420805101385 2.7907962289630213 0.9166962360288664 2.2954536487025368 -0.23395984615405513
P 8.506553658418804 8.525443692183401 0.19560984618023194 -3.590866952630912 -2.273611613126781 -0.2849563918065802
P 0.8253302143496715 6.261028893714368 5.909360676199559 2.562328757527374 1.2219987955919664 0.1770021978220887
P 0.068424107481106 2.810975152877267 4.920321813501061 -1.3406310381155944 2.030686073139006 1.5852887303031278
P 4.914274016129787 4.115974096142281 3.702261824052234 0.6145949570118834 -1.7979580425095227 1.1328288241935134
P 2.088478026484646 2.7180089343352014 8.975826335649176 0.36106567336633305 -0.8596082327666228 -0.7672686053909367
P 2.430981217736198 9.267642825135834 12.338108617229475 -0.043080119018925805 -0.5946282840819695 -0.520845079552232
P 5.393048641668328 0.6301450206083176 9.754012662866879 -1.4746780725323958 -0.7366925323762925 0.013166619288945068
P 0.7518354767577429 3.4881884631504114 11.682287523553086 0.26341826062448825 0.9426191265422154 -0.09733990880375494
Ni 4.5846970584572695 3.006912588081776 9.011013690046052 1.3415990584558186 1.3656144475338095 0.7271686520462574
Ni 1.5688994347312766 1.7449108708807402 6.575549822499018 -0.21731323873630962 -0.5411868764333777 -0.07544413717192813
Ni 1.209466144048412 1.2947512866081339 4.157843893313591 1.370526540123446 0.15097286363786258 -1.0297530413472458
Ni 4.260971904722697 5.611142667859572 8.13470931689594 2.7294352935023056 0.22736265255251167 0.5599834403145905
Ni 0.16357705275787715 7.950380292756848 9.653025646391368 -0.06275934261540804 -1.43146245637687 -0.30088026212568825
Ni 2.162162224395459 1.949546681316773 12.728534069533929 -1.2231912732381707 1.506948502530327 0.1004709982335689
Ni 3.2835153206318397 0.7521509328551951 0.9305357561520584 -0.6976688428149275 -1.3931491626189683 0.2958604403135937
Ni 8.559555882603162 5.2742486220094635 5.234141832436046 -1.475805758378936 -0.654275563430957 -1.1476432634985267
Ni 8.263111148183766 0.9041905055044787 6.197118235012194 0.27477173796409454 0.6841402122008734 -0.3606944060698433
Ni 6.690758495817656 3.875667480840495 4.996406464319114 -1.5468365969745166 -0.15995526964213097 -0.6358698072302598
Ni 4.015289469535334 8.237846661325682 8.809722834205491 -0.14464049366193152 0.25116823961254164 -0.08663820611553466
Ni 7.067532538839759 6.304539435913255 0.46890215631117427 0.32989104753574156 -0.2883168236383809 0.04820895560505891
Ni 4.124476477940476 2.33766967743065 5.134043319524957 1.3107962141423488 -0.07454733638927162 0.8198795467184331
Ni 2.469517259936799 4.568000284541824 10.052369733214322 0.23540429191006557 -0.6279500381625508 0.8968154379445393
Ni 0.31163795871059585 3.9631645492906364 9.092589890205552 0.06833220871749521 2.388684163323609 0.9475667003554779
Ni 2.5895492383194414 3.9977060586595936 5.111545139982993 -1.8053769606814132 0.3136511886381114 -1.4592023454943
Ni 3.596096847728602 5.405508224215628 2.706529318954543 -1.6694031415555444 -3.0251139568223966 0.559498787368688
Ni 7.375456888639816 0.7178035503154392 12.275081795581407 0.33400378415253446 -0.09817526022085672 0.20630223233778666
Ni 8.94251771830606 2.0929485433686588 8.373906236044263 1.4275052715013352 -2.746323584617212 -0.34509115231494764
Ni 3.6753528589583198 1.6035996054510235 10.76986622715088 -0.5912233721654786 -1.8683039392229372 -0.27871118222781677
Ni 7.628857731892061 7.554762881073322 2.5560250281996644 1.8199551156059046 0.28090998965134845 1.14318342795496
Ni 2.99272639671706 6.700735494876131 6.024526417623279 -0.001255726783972031 -0.09389103102320603 -0.21903613496468727
Ni 4.504853066927567 5.103771667096366 5.55111827894968 1.5797120075462987 0.6611908024935517 0.2528605397133
Ni 4.317688671119659 2.5052533959469954 0.24086752984193086 1.2085866359511186 1.2759199710904543 -1.5222123706679334
P 6.228129995977115 7.031899066056544 5.799221699689679 -1.088995629058647 -0.6572927529907261 -1.9706119906652448
P 2.297061704649149 6.957412228371149 9.819551933669805 -0.17622366778485132 -0.008401850910450046 -0.08591238369310365
P 1.400653071749868 1.746040166377537 1.9635714114245095 1.6540307728645318 -0.2592361042223406 0.49292392766193177
P 9.173855300777918 -0.13739046346108702 7.760948906236775 -0.14591164706487128 -0.7015532654709983 0.6008958622582361
P 6.83495366462349 2.7770122907876598 0.6063719504476561 -0.19978500004455915 0.2900338063294876 -0.10908265116197986
P 5.135597267460631 6.49592235704804 13.158421399685944 0.8032694489655778 -0.8508837084094314 -3.461487756003426
P 5.380402398708334 0.6449070593461936 12.855146760766084 -1.2542394007932272 0.2003987223691581 0.7783379758312208
P 2.7911238179872986 4.491908167307264 0.5645618846084086 -0.1510350843343657 -0.7008652382650381 0.6075429352611085
Ni 3.6071378111394305 1.333613984530949 7.905743254967356 0.14927902087520742 -2.3423395146207984 -0.7064851555549768
Ni 6.589289895477395 5.2729513321412425 6.867160052229649 0.08984154354418077 0.33435731083721126 1.3211947837678537
Ni 7.974450152973692 8.244127784212823 5.096491911001314 0.29417173975726113 -1.0629770935076983 -1.208631373146125
Ni 6.98919116363224 3.904291855127064 8.960554713984646 0.488709632470268 1.7569777434424194 0.6237131172630677
Ni 0.65812448316903 6.741464796925882 3.698970067674382 -0.5655460220040325 0.4152210763628139 -0.42922767505455106
Ni 0.3162204718422246 0.3654997540954079 11.175698629919065 0.37595673154555254 -0.10322696371215126 1.793003783828041
Ni 1.755597179507451 7.92335186499881 7.589982901042421 -1.1418924770576786 1.289122328713341 0.5842572252602906
Ni 0.4891062793811334 3.4555135579083904 1.2958003181274722 -0.5784030804723587 0.6075573334388117 -2.134959218727485
Ni 3.66377058035068 0.7986975066665436 3.441208837181614 -0.2279681473469945 -2.2228860617474555 0.24811248350535334
Ni 5.954019179936511 2.715227694186066 10.88613793151981 0.9442916291486317 -2.3656357661445777 -0.5041568202632737
Ni 2.124410155928171 5.660374351707517 8.041590036815467 -2.154081284268916 0.1774382569182428 -0.5064651566814762
Ni 5.298869130443754 2.169255320077817 2.3582583209507573 2.1745891744142805 -3.658618092033957 1.2186255082443593
Ni 0.8513982742844011 7.747685750612829 13.037778108451729 0.4807782934383333 -0.22871248171218678 -1.3470436265101575
Ni 1.5912240200894354 8.829998821534337 2.0977653153182176 0.1079829903398979 -1.0423694445596758 1.3171378400896605
Ni 6.626145993963755 1.646643496618176 4.486376485977088 -0.22191834160848878 -1.1744745247587578 -0.08664977607976046
Ni 3.233546328153754 2.9214594511506298 2.694863976463254 -2.414737922987867 1.0131424293737583 -0.33049499966832757
Ni 4.727296280734572 6.982359392527654 1.3596437790810765 4.092425158929075 -0.07740460333240862 3.54325397873864
Ni 1.3443842903433718 6.3826568186255415 1.3232365988872463 0.44421334983010596 -0.9786917038950564 0.18032252044457334
Ni 8.551333491424007 2.3983436445767157 10.646531292765625 -1.0514282123278345 -0.02401873151210057 -0.12897270521768756
Ni 1.3647302753269779 0.6551435163783127 9.088314433452805 1.4361122964440556 0.21319021770687155 0.04811973832536229
Ni 0.8452291476448764 4.072967537057668 6.774505556576782 -0.31037766009316226 0.06320748589642018 -0.7570515556486187
Ni 6.425644711668886 5.780704986750471 3.3587450667597563 -0.5780384980440885 -0.6646031706092103 0.8557150683598037
Ni 7.452332979607689 9.372685972379179 9.774515442597147 0.982621892187398 -0.9293553195537736 0.7906769570125479
Ni 3.2595667896832463 3.6224906300834823 7.315597694195158 -0.5602714038686544 0.14825983558207367 -1.1183529991748418
P -0.15131253034184183 9.088990144146756 3.493348690259327 -0.3365617746876978 -1.5282948294165875 0.4331138974828348
P 5.507042155700332 9.105817580351086 2.734394918663512 -0.28189420794148873 0.9912949944813636 1.263359103706308
P 3.505043898416647 8.861712425650985 6.495025453765047 -0.8111362533081644 0.07528215767276712 -0.010781921106852398
P 4.858191895135984 4.810434828548318 10.245683656318421 0.6365089834761554 -0.25238411429751373 -0.129165537954784
P 7.650407676537541 6.198609651709617 9.698676250221787 0.9475319904628003 0.012217882222430572 -0.26085795609647977
P 3.103761343207869 7.253856962790548 2.509582050917361 -3.705147088833432 4.800360673777333 0.7166582394332367
P 5.636883138770024 2.7910398208015863 6.820224291457835 -0.26329304790053365 0.13480859517317428 -0.020286261052861836
P 8.291072878005272 5.348184811477412 2.3232342944149873 1.1594716235920226 0.19724449301089256 -0.15270861538204666
