# total energy = -381176.0232818131 ev
CRYSTAL
PRIMVEC
9.14272628624157 0.00000000000000 0.00000000000000

0.00000000000000 9.14272628624157 0.00000000000000

0.00000000000000 0.00000000000000 13.38130408084565

PRIMCOORD
 96 1
Ni 1.0623756642388615 5.010936339214373 1.0468037726448578 -2.149528889011543 -1.2533086614488418 3.107019533348952
Ni 4.441033632180189 9.091307700610008 5.971046037374837 -1.9449500671227664 -0.12007051763205127 -0.2363841393248316
Ni 2.4134603425426873 6.812611145112654 1.2575271591155688 0.7051486961317404 0.2129981563007235 0.2232514585976155
Ni 1.9074470075487198 1.166685029666285 5.728161282268484 -0.6516347833740003 -0.520655075028613 -1.2829395969413968
Ni 6.498147070796216 1.9201828254153512 1.5471193605501787 1.3035634438393355 -1.4334172661103959 -1.6528727480006888
Ni 1.9228982151543246 5.715712546010618 7.02209386361172 0.2327051478113476 -0.21562556662124155 -0.0385511208003207
Ni 2.784664176859351 4.219642512553135 8.676076153071124 1.830433389429409 0.05461048825602852 -0.13317465911417709
Ni 3.9627044727067964 4.999078223081551 11.287999485990369 2.222356671606547 0.23118614006365992 -1.0071278477485621
Ni 3.540859076894603 6.71418969548287 5.719290094848532 0.6125547866534031 0.3287389362091693 -0.6804108270654282
Ni 3.5646667364241855 2.1895549731573247 6.856794284683569 0.4528864521240716 0.06990058164587962 1.168500309453194
Ni 6.4181573575764315 8.569504877133863 5.034729370381726 0.5098356158156058 1.1801114113295612 -1.0514667788752536
Ni 8.88225926161465 5.320573053994858 6.353403083619357 -0.40703442678696355 -1.8228702323701704 0.5434689875993349
Ni 1.7802533979574922 1.597097160109515 2.970783572331575 -0.8620636362856509 -0.5169848252658774 -0.018996338596844704
Ni 3.6863929956318913 1.9059476004201286 9.369335267429037 -2.153187054589421 0.32482546008737606 -0.011708803796495965
Ni 2.263592771494714 8.270546866781393 7.133733867061731 -0.14766951029624245 0.1402037980468166 0.26990926766547063
Ni 5.509626350366869 2.8247093184644094 10.445352793720161 0.6045424578718878 0.5774569145090055 0.6479902446428775
Ni 2.558253700442074 6.273199430601956 3.49433997073006 0.14107077403280222 -0.6020184058984536 0.5441930102495531
Ni 6.78062988818697 5.808812928879183 2.3997901380386044 0.534763232295221 -0.06670084376165933 -0.990743749963584
Ni 5.5508051900447635 5.637240525372212 6.78691734112802 0.12938922392981586 -0.9617938996984534 -1.059977387449426
Ni 4.186509272101826 4.633762304562526 4.232372844783931 -0.31783694458468487 1.5747531208791268 2.5037114621047976
Ni 4.122555900976852 0.9087248330091138 11.64661927169854 0.9128832900406794 -0.530330393334848 -0.3665115269722527
Ni 0.8540595576276512 -0.09881732968263829 9.512341222318428 1.291070196468331 0.3405876080176392 -1.099958041607422
Ni 6.990546886189743 4.642338181919956 4.784525862797096 0.35016882394817117 1.1349067897684648 -1.2915551065245499
Ni 7.68176442974391 1.882414222682361 8.482248524976246 0.9521088112002054 0.07502864690106434 -0.05830362083689959
P 8.013563113303086 3.299244246484355 0.3551172072266865 -0.0917906968507516 -0.3862434581835412 -0.10240909579654621
Ni 2.6904483813707367 5.195564556011761 12.926835020633083 0.3230855945781339 -0.7117996257893549 2.276456281664428
P 1.5917852360746887 7.601418150194765 11.004436912612505 0.42133567390098403 0.2745153989789143 1.0447718833535813
Ni 8.811009994827383 6.456291669365176 10.601485875165839 -0.7301503603824006 -1.1503976863152123 -1.061614665942533
P 3.7687689604404713 4.455104288100323 6.567731447107163 0.25438443255699417 0.22998492066670714 0.7041889033216324
P 6.619498478221775 0.2855008313733625 10.96924381590466 -0.010715586645291222 0.895358908003671 0.4091841261401146
P 5.094957994773846 1.1210811104137661 3.9140715681999954 0.6805455528710797 -1.0724050716898175 0.017450591376279623
Ni 0.4748896658040267 3.1214456463031737 7.186536769076766 0.11299561306314088 -0.9414276773372755 -0.28283497458820317
Ni 0.707405654907116 6.310584038826405 12.722274746024468 -0.1216031522264938 1.701127726352335 -1.0165514550553072
Ni 4.147222976787457 1.8292675541549168 1.7124189394783296 -0.5675139443636806 1.2323580273391033 1.0722024687607083
Ni 0.5376425969534881 3.6222019136206773 12.301861101165551 0.03932579418281614 -0.6115199176309856 1.2228909683889326
Ni 5.647727232545957 3.3920337766555284 2.9282973227793585 -0.8504795309924772 0.9421969514031321 1.3551657413966596
Ni 3.8863901354973387 2.8952545953193485 12.870673995213588 0.5052004310364396 0.009809787001570203 0.6467561151254603
Ni 7.560010742357023 6.603032427986453 12.865348357089172 -0.8325283458306952 -0.4696865544005459 0.38827128724684745
Ni 1.9430762123055492 2.9060430124640906 0.9341452694745715 0.11935266562942026 0.06227906054487984 0.3762809476541907
Ni 5.353532582644684 3.116801141295098 5.659181240172171 0.10869544302589022 -0.13718763692831212 -1.163699545630441
Ni 4.828292094044452 0.07787774342280589 0.47535777339539176 0.5919746485092062 -0.8872560763908784 -0.28258840579503586
Ni 2.1132772068534424 3.677835403727249 5.471267127508835 -1.198154641984517 0.8292874702958944 -0.42023806996143115
Ni 1.6079678617918014 4.976312834360868 10.924456342119113 -0.024335748531887122 1.1022848899683855 -1.6026835287408077
Ni -0.12143917759893891 0.009868658869520626 7.025826838798329 -0.38852942600424056 0.8388046657577102 0.26866382529414373
Ni 6.587316081315426 7.780231593005665 7.1639487492481235 -0.10639070615211353 1.442590962189864 1.594690483233002
Ni 5.36119418736273 3.2203333749790444 8.154901434898235 -0.8349423545888265 0.585093862228973 0.16788789422564632
Ni 3.6201630856348492 8.64085471391146 9.480038141423679 -1.200148018265462 0.42161206749082225 1.1771636415551467
Ni 5.345688123398761 7.837949624730034 11.877245459256022 0.14579594742261343 0.4511188187006876 1.6658357359192602
Ni 3.156699999277855 8.875393074092868 2.2294593167759182 0.4480116405302736 -0.6014553343061319 1.4799102674656126
Ni 8.03972959624228 7.766362077066196 3.5543290556906606 -0.05749809421646872 -1.9091762519572666 0.9532542376585583
Ni 7.940476158510656 3.7778202595703814 2.5654234264801303 0.9057037415731045 -0.5010928366259693 -1.4262960816845822
Ni 0.018210482431268465 1.4268504519296525 13.05489444641381 -0.6406862547822966 1.0253315152407825 -0.2724189214612018
Ni 5.600642191617634 0.6823637273143636 8.975162161593106 0.005148891190791133 -0.5403175864545469 1.5458636915382862
Ni 8.757113622735643 0.9169057445863299 1.9561192257790143 -0.4657085435894044 0.48087908068225566 1.1523180432663769
Ni 5.8375759461142325 3.9346271599512863 0.5810961469581737 0.8702865384160753 -0.5056917688505613 -0.22975146449966238
Ni 3.1886629707507512 7.633381121667662 12.744140490467997 -0.9203358896639827 0.9352490593303894 -1.748379203140131
P 1.7907218196784493 3.840649075348912 3.1498383831192713 -0.3365563753710591 0.3810074065955825 -0.13948697448545008
Ni 0.040758274263778906 2.7178674178258904 4.41347562628385 1.3096361323959769 1.8295389026395974 0.20141250834565316
P 7.643758116124681 6.827330934606751 5.663503006938544 -0.3257001493828455 -0.08535162609362719 -1.3745788558159486
Ni 4.964116437351473 5.38525784323134 9.315608950048222 -0.25395120167431745 -0.2711950763564297 -0.8845481905414122
P 4.694406008732926 7.327200357464052 1.7735444653296857 0.2790009455540937 -0.11166095341211738 -0.9048395938005965
P 2.311326945997 8.311551994657806 4.538630407889249 0.7712869825217104 0.9288346711636133 0.7290471000158928
P 8.647327764198304 6.7954502476714 1.6016621233979635 -0.0027585365817436366 -0.5050999009028334 -0.8828798017000536
Ni 8.584005241194506 8.469849159440907 11.543502117792874 0.6216112404287165 1.5643033863007123 0.5954728914704519
Ni 0.5847943797844857 4.9515543312863235 8.858316289734438 -2.025071555165706 -0.9898502916150372 -0.3950050064262552
Ni 6.0791359201661175 1.2688732825703353 6.9506242571183625 -0.04261037847135887 -0.5659905657406188 -2.086660788732413
Ni 7.091455157398655 5.937185950175217 8.553583733391614 1.30330016287562 -1.2055892438856914 0.3098217875896922
Ni 2.4492175454690304 0.735966617888861 0.2963139338793678 -0.24099875527870757 0.22427372921454278 -0.6130317262898216
Ni 4.350182360004512 5.090935195160553 2.117470975450301 -1.2026437881041223 0.9691796506395631 -2.2344282580591
Ni 5.248354658209845 6.78495439777126 3.7493077530385244 -0.40435662284448426 0.5745993904555524 1.1047184391105427
Ni 6.529854045930086 8.925842638334126 2.546462326211927 -2.2965540808555676 0.37867850135208975 -0.9590543892801031
Ni 7.128336915671442 1.8928643589505305 3.823105097671755 -0.009316649415235566 -1.2406351797462312 1.1372513787412415
Ni 7.809515745645163 8.692895112545248 9.19630094197169 -0.6739753558527296 0.506256897325412 -0.03239307161872486
Ni 7.499851602685497 4.249767796020867 11.462411620315269 0.12074851753568236 -0.31241165980405544 -0.14061388900104171
Ni 7.198260487131599 3.734794589160928 6.904471774282212 1.2788937090067976 0.3413481403327476 0.7366249123631506
Ni 6.53744250883698 1.9767305881613075 12.430334692451918 -0.27196949262860903 -0.18960060331238962 0.5445719908555268
Ni 4.403210173088835 7.2063243718109735 7.98067672646441 -0.734699927426296 0.4334147165527052 -0.7766991546762172
Ni 8.381923559711261 1.9660244555541104 10.771922752054692 -0.20771351086301648 -0.3835998499131071 0.15088338924784983
Ni -0.02422182503522419 7.030829738681042 8.249761792597617 0.19741495715048582 0.9560202304394696 -1.9358787009491176
Ni 0.9932657954277568 8.016415643937966 2.7996500196915086 0.3992319000234092 0.9122173743219064 -0.10228645417575287
Ni 3.5723100556894436 2.504723037406088 4.116115764505025 -0.2906508710881962 -1.1040162708371954 -0.02315484084990851
Ni 0.44723931837110914 8.540385293569452 0.4418588238883289 0.5961550051391411 -2.2406346439801283 0.18686135000435558
Ni 1.1874207331275344 2.7142926118058948 9.541177381364626 -0.2766149618204204 -0.9518627566276703 0.39686905621818747
Ni 7.143522984211625 8.928521457167525 0.02480787379706991 0.12094906358226266 0.37197537830030125 0.4376976601987752
Ni 0.7328196914640981 7.0145922566055665 5.331299300600121 0.5024655486037798 1.84957473824455 -0.4207481768286302
Ni -0.07263896119913042 0.45315649089320825 4.622946459238603 0.0006677154909859468 -0.7797811360356506 -0.5975061198503967
Ni 0.1506977306045345 5.607480950960234 3.4432101876450987 0.08506854763556962 -0.892513725245392 0.04579571817787598
Ni 1.7709735306677354 1.0023170945576674 11.357529005942952 -0.020013209897133274 0.4997229528616361 0.4357832167848817
P 1.7873755818183006 1.2364166038721713 7.935340689095231 0.06440407730768262 -0.1863057346112017 0.2711433971828879
Ni 5.924504988666948 7.5943691081451075 9.812858067521047 -0.40601498438351363 -1.0223999434162845 -1.6116067993723662
P 2.8356805901370286 3.251683783783552 11.089796149043396 -0.42560704758282825 -2.3619711728087966 -1.1930705425933905
Ni 2.092770071552039 6.736744801496495 9.121192530373582 1.3849535141820535 0.006272977492905326 0.6787411526724891
P 7.885866653760195 1.8867204468138639 6.009476573498742 1.0988560667924945 -0.6779325407282646 0.08336107802615966
P 6.05619681964395 5.768740359094942 11.202345853769597 -0.2603712462680483 0.9056680032391629 0.3569812188843142
P 7.729416319708651 3.9083783924745457 9.139537410882838 0.35486700075478883 -0.2621782175698001 0.9861581874754307
Ni 5.068809797287438 5.908038938431627 13.336597389243167 -0.42326914347827105 1.4719362481212004 -0.017829057761620908
