# total energy = -340897.0864596209 ev
CRYSTAL
PRIMVEC
9.03312940037093 0.00000000000000 0.00000000000000
0.00000000000000 9.03312940037093 0.00000000000000
0.00000000000000 0.00000000000000 13.22089796016176
PRIMCOORD
 96 1
Ni 6.218559952706715 1.9915792398691683 11.500515350359777 -0.1012847523841159 -0.7601564198261876 -0.6587464547181171
Ni 4.46569019460547 0.28673863164153307 6.049658496182966 0.20922429108058807 -0.24066785430185006 -0.19573525545521775
Ni 2.908992911171368 1.8637604565869426 4.8530344034150215 -0.21085874136021748 -0.7219503410701115 -0.3233635308298689
Ni 3.5119904418584147 4.263582953817023 4.690496786666701 0.002853924509027343 -0.12059322290474071 0.2021064490888842
Ni 5.29453403056617 4.341954385884627 2.6514376112012052 -0.48909786904762215 0.9286816905255167 0.4700637352343066
Ni 7.196712387174265 6.0883835226091785 2.6261728511332154 -0.3119357486089015 0.33439690582589504 -0.18811836233990828
Ni 5.058904845978406 4.5397708901317975 11.304343779005588 -1.035917775397061 0.3120355074115594 0.9317598152302081
Ni 5.430988485708312 7.805987942905915 12.340664147965544 0.775031280055491 0.3659872790376665 0.9307208324427326
Ni 1.8773462834460568 6.441795683537363 0.466956792878779 0.622881879611024 0.39893956559397104 -0.46170456463633386
Ni 2.5288697861325455 1.628339033979072 0.3739173650307035 0.9222631885936826 -0.7642205625932322 0.16781693177839485
Ni 0.5513542256762465 9.17377538783958 4.8263288591821185 -0.09554219347338384 -0.21867309519831374 -0.7078966911905228
Ni 8.766805801746708 2.4374545149794624 1.3569269132629773 -0.5603035426581705 -0.3157342964193853 1.1090908571466251
Ni 6.96199554867212 0.6336279697140211 4.730820677025136 -0.029729151633316537 -0.09617262796853114 0.8196643453838335
Ni 0.8884543612439325 7.482936130430845 2.699258095781967 0.3316381121338353 -0.5837188362583172 0.09863445924546238
Ni 7.5303871600125785 3.781042205820329 3.8229685733628114 0.6947832937370163 0.043004528585984 -0.3575131801283843
Ni 7.6374658778237094 3.7813131997071467 12.477751825489884 0.6796040148934166 0.43314732182393145 0.5932509441184687
Ni 7.847431941329862 8.714657544793473 7.08078210570672 -0.29295817906513416 0.9305228574993135 -0.03962069971541563
Ni 6.853670258981628 0.6794241299602564 0.3050126527425891 0.181249660244533 -0.6215431061949425 0.433496220522918
Ni 1.7472059858667617 6.397894673872937 9.151703839071256 0.06200420961693838 0.6970990863543866 -0.3592625587193232
Ni 0.04673650903349173 5.055770350020884 1.5811138326363527 0.552604631352016 -1.2531726500916094 -0.7917190251238172
Ni 6.433232276713931 1.8425235689900157 7.007737510140991 -0.24784791699005707 0.43386388827498185 -0.2598143453233138
Ni 3.4195905595832277 4.250819141747922 0.3782776566695961 0.4467854814326564 -0.20972771307956783 -0.629461846821387
Ni 6.071383172776165 5.699272433657577 4.890000679515788 0.3042144687052438 -0.5890045101372888 -0.7269830183980125
Ni 5.189261938667156 2.8619935380676638 9.313581134048697 0.10128860903885782 -0.3994077634796412 -0.499866420418036
P 0.22671619565033835 5.506893873405876 12.399986516415794 0.00878031729579133 -0.33968489369771177 0.24257381307531128
P 3.980087215687739 6.131661246333923 12.661191200728432 -0.7090282336918048 -0.14514597254344033 -0.9519794847111928
P 2.5152839592734315 8.451757342062313 1.594823413370447 -0.31487966172857385 0.5477593874445728 -0.9338277535028304
P 6.329703578820109 7.746107327048821 5.914738769753167 -0.755022698144048 0.3436950432983694 -0.740710138176118
P 4.478228178435557 1.129249592627393 12.536293731546097 0.4729166313020694 0.1081943350197556 -0.52240059696481
P 3.7998672478245807 6.2280086062270845 8.205749091609443 0.3835908510520426 -0.24098718531448174 -0.36856326729495875
P 4.710379608142497 0.9584511788959212 3.9058628934013977 0.5178260902202502 0.13335849299020905 -1.2766023418694594
P 0.26319377944187783 5.593440287725807 3.6955978333067905 -0.39199475884502166 1.4197333408654 0.5057573319811742
Ni 1.6523852248693394 1.3331273268097135 2.772144611580386 -0.3670848829772194 -0.46334749955639554 -0.3890917262656138
Ni 2.1601013049513735 6.428200823548687 4.823314503847753 -1.3569153770979148 -0.7552132168882993 -0.6388011219444417
Ni 5.960302778569696 5.480661665161948 9.183130096812517 -0.30815134186580473 0.5633991508643588 0.31588830549874625
Ni 8.39251807840402 2.1837952037887782 10.416891191829924 0.9251680209453034 0.8049684339345557 -1.00315986423975
Ni 2.4867302367324333 4.953777284152361 6.82791951654328 -0.21203553527713806 1.0249911011822284 0.5027275440159148
Ni 0.5602220489658691 -0.019190883751455032 8.878177062725028 0.465819615245972 0.6691956750758992 1.1622005924874113
Ni 1.5151990862327906 1.181614644690083 11.364909106083372 -0.7944593068731157 -0.41046916350012536 -0.18063670925088243
Ni 4.162899691734784 6.836236318929707 1.6154216587074406 0.8669435900857714 0.895113110541452 -0.29452655199351857
Ni 5.491429155598162 7.685196934421821 8.118728437987581 -0.26052499823709324 0.7036561707466139 0.11200805233889097
Ni 5.455793459481668 2.768428382079162 4.745350465923331 -0.6774728274830268 0.5079062600033769 0.5110409489776166
Ni 0.7432955824572148 7.516141914695542 6.807678079823929 -0.17251845101912225 -1.6699988661580143 0.6045136615164814
Ni 5.003549828031164 4.609235656452668 6.96359260597843 0.41696248453395285 0.1736502506307203 0.12365592099046445
Ni 8.193879559366838 7.2413902459809005 9.197051956091284 -0.7669029945214019 -0.42365558028341227 0.3718103134773467
Ni 4.496529298925295 0.3400214496675781 10.332396201233202 -0.3405816944803683 -0.11702633148908878 -0.11860370327853768
Ni 8.123439215053425 7.235979401374112 4.667823631469641 0.2922732371829676 -0.1986603995218127 0.27962546651197007
Ni 7.1494329870541815 6.116115230360164 7.07196396462968 0.015742350435921273 -0.4033551781631634 0.13531818781974114
Ni 2.4564873189636076 5.317604643463895 2.419530075992401 -0.23008570791062952 -0.6702835088234391 1.614084828599214
Ni 2.2197380263103317 5.291941522382284 11.288994685256249 0.12299206215422044 -1.0815779964383372 0.9423928694640221
Ni 1.0406436247676507 3.64648470788591 3.8438043900072483 0.5356158101035033 -0.9151011236276047 -0.2706723710837403
Ni 3.818592925403666 2.6402392404849526 2.422201172403465 -0.11970593520378094 -0.8485509465111966 0.5836152208009174
Ni 1.1009578308436523 3.3313549500354696 8.065937925522588 -1.579436899508041 0.6128368366701962 0.37934930216686924
Ni 3.6334408688004305 2.754833522090488 7.151077919947165 -0.047874455083775615 -0.9081666012913004 -0.4055434440637338
Ni 4.208200836481099 6.805722407274063 5.952101600241644 0.049288304712166726 0.4854209344166673 0.7462891749257923
Ni 1.0213307937671279 7.391981548885352 11.617283002937587 -0.4510193170083458 0.09453894901985008 -1.1190402550498533
P -0.011969799980726318 5.647530667534568 8.059419619231672 0.8856277967588361 -0.649332874713701 -0.09723937867014866
P 8.372202570022274 1.6956539154645238 8.074980991525686 0.5765791398897425 -0.4930056887424606 -0.15764899010645753
P 1.631482563066154 3.2159567198990433 10.235301801525381 -0.6292055078362067 1.0787304996872131 1.4870677044460001
P 4.201995076472979 6.035819741696155 3.7021685317491575 -0.17166895853463338 0.6270907754860491 0.15406590074088952
P 6.844564864384562 3.854174422742796 10.458219566195496 0.323709601315378 0.39786073070749545 -1.105615239893199
P 6.3555834950111745 7.73380420458731 10.323022522688188 -1.0175022490043508 0.43397161749743973 -0.6839098413576222
P 2.3460392438263793 8.385616767419737 5.804437031314821 1.2290099368024767 0.3199187668143781 0.10586285867310155
P 7.061558702688847 3.9918031847278126 1.5646401142567206 0.37938709738334014 -0.25719002032658933 -0.44322527488522373
Ni 5.528492086185227 2.923373653431814 0.34197350896561973 -0.6631715803690063 -0.16135729219598016 0.7380385048812257
Ni 1.3874525679870497 1.018693119935438 6.920280556361355 -0.04833596810122643 1.4514023898339068 -0.2956064153212587
Ni 6.794846519283123 0.597170258807515 9.278373608273375 -0.3837867691129326 0.15668585486223982 -0.24557120514073832
Ni 2.5728791933516977 1.753998899296319 9.119894576636623 1.1421141061501814 -1.82442163601769 -0.2715141502587453
Ni 6.3250966827442126 1.7981709028475614 2.6307074821726273 0.8232973141507305 0.34911672853457293 -0.7588063335561964
Ni 4.048260244481447 6.850725458744878 10.42270852726694 0.19120111503029008 0.038581716927940005 -0.4069156418209121
Ni 8.363657229457964 7.139884969108648 0.4352911572041612 -1.184185838509251 -0.42260862707613667 0.04736280555467973
Ni 7.519149946839216 3.824076035046939 8.248637487450125 0.47166501828315543 -0.3133200305509378 -0.34453373714958085
Ni 3.0830522846742103 8.41659136868297 12.363866644554854 -0.02589923636426507 -0.03931268155669359 0.4777778160491126
Ni -0.1059775793176962 4.798037097398378 10.212483212942397 0.4056195487173079 -0.5716642190866283 -0.13671918193232582
Ni 8.554193031279306 2.389145338089474 5.716399247304439 0.021612693173769234 -0.19871567823978034 0.6532584350203523
Ni 3.458297519750319 2.6852242256966474 11.318265638284355 0.6213106784691623 0.526505620272119 0.5384342533889049
Ni 1.0191628426725883 3.244953065788509 12.727018325775255 0.34405834017505904 1.2916448380248788 -1.0391136566265393
Ni 3.0180137518380246 8.521330505937911 8.027333039719531 0.47598344315285124 -0.5787730622172677 0.0765581961717133
Ni 5.607297108471737 7.942604994380147 3.663312524944317 -0.09118648760784942 -0.563895630884803 -0.5044059601596023
Ni 3.135119243461401 8.40382755661387 3.7327086394805264 0.24411081854512795 0.3831216247251079 -0.16716695689922176
Ni 3.3490960164924513 4.384473326726283 9.294079510640358 0.10474057214320026 -0.09720312611557454 -0.34864364555289634
Ni 7.244018886683029 6.171054724347619 11.391972362246875 0.476712865119708 -0.7762877781704114 0.7863382204278779
Ni 0.7645026607265917 -0.13292521142282243 0.2555653015279669 0.11344607033699816 1.0943358103246377 0.5769853741892257
Ni 4.634898777534279 0.45975016211534725 1.345847779856924 -0.48448633841753974 -1.0604720676976573 0.910173347308684
Ni 5.9801124316960514 5.453255150075145 0.27858532890015236 -0.038117632807327904 0.9607258634452552 0.40529841793246324
Ni 8.183897951202395 -0.2777949300636015 11.244492972476044 -0.5760358657917628 0.5210014026244383 0.3132626949504411
Ni -0.05275708988561919 4.879290097795807 5.975290547136613 0.45229509839697585 -0.04378537261606653 -0.4648803912611542
Ni 8.022033302606339 8.767311657002102 2.577228645235118 -0.7102497648037317 0.7750636759553233 -0.34165075917483095
P 8.649546746920803 1.7228978342192374 3.5841859232454483 -0.8438334864308693 -0.5022002107575352 -0.4690774600616373
P 1.9190161101090184 3.314797223550924 1.6430142562631924 -1.0342555572032899 0.07477899278410347 0.1763185414915028
P 4.751064823683355 1.003526495403222 8.128816637080838 -0.3528923935269213 0.16406157850102066 0.7380112511877162
P 8.517554657781588 1.5566159852680561 12.512641385104674 0.4821489485336148 -0.16564846337216632 -0.06873458636223646
P 6.393043883298905 7.754137779228178 1.3199931564286282 -0.2508872180370131 -0.06298174303885928 0.13505542107665772
P 1.6018177655892052 3.151387909800008 5.967582577682568 1.0678758163608966 0.003441164471065041 -0.35089387503965375
P 6.8581055255958745 3.8671911624395934 5.977234476618049 -0.05659563700685736 0.8060763222867536 0.6865344234646628
P 2.3161034524626127 8.518909627215676 10.164887653287694 0.0006152649864957146 -0.15206995335678325 0.2199769016114018
