# total energy = -340870.27098438353 ev
CRYSTAL
PRIMVEC
9.24782909176947 0.00000000000000 0.00000000000000
0.00000000000000 9.24782909176947 0.00000000000000
0.00000000000000 0.00000000000000 13.53513266069699
PRIMCOORD
 96 1
Ni 4.196489057454519 7.30252961503643 5.143647996830273 -1.8180643263410945 -0.5523657758683326 1.167212443879706
Ni 5.502060553782481 5.553552465237361 11.51529855053067 -0.0456620208134891 1.7384256914718448 0.6983072477298747
Ni 4.07423275906488 3.3515426720561727 3.1139058360826963 1.161265996488284 -0.6294063109931031 0.06853661141881745
Ni 6.447826770122117 3.6410459565559945 4.502434981783145 -0.8415053525183248 -1.2022226414063037 -0.4175592375776873
Ni 2.608155943913122 8.242358725206161 1.3761435284210801 -1.9321968812221562 1.6193152237602175 -0.24073341743246282
Ni 8.326569455397994 4.914240803817231 8.6736377006078 -2.460097067848957 -3.1103689094371596 0.03040817997821214
Ni 1.7478951538148333 3.3741721094358583 5.062315190999925 -0.42797246249121135 -1.2153530081406747 -0.017675048682259883
Ni 8.89019688489522 1.174335556052065 4.783478352382297 0.6828734296733079 -0.07478464921105829 0.9574477069146156
Ni 5.228343313257781 5.646308189355975 0.4029926410684792 0.6104757926371874 -1.9249520267342848 0.16739655641152462
Ni 1.6862953653448345 7.884772924159854 3.5554082863610192 -0.8691506250394192 -0.4618734861140304 -0.4089437279945344
Ni 2.26063178073731 8.56606048107095 11.769298495004195 -1.1418310276921237 1.4468587363272825 -0.3493990356616821
Ni 8.672521487656542 2.582853883974087 10.03198285747966 -1.9926825973120394 0.11997512970476756 -0.304422728061308
Ni 2.571118389068152 6.129424020231402 10.883532192730517 0.4270478937944129 1.3887978276288082 0.5097150310773415
Ni 2.6689326756087883 6.012050575514208 1.6639553850105036 2.0856120357529244 -0.6024344103899495 0.16867927977869016
Ni 6.412934711587767 1.3901521396768006 8.108654539390157 0.18687137730668463 0.20749933796968134 -0.03794896843994754
Ni 5.346539814749308 1.9909188501371722 1.0582068691081883 -0.5710083306701843 1.5618788360196199 -0.2946638489023312
Ni 8.78226547351054 7.744733050747274 5.2730843095973485 -0.8810689737435601 0.1436652742328558 0.11279095325150253
Ni 5.167594325048891 5.57655181577405 3.0313550911829146 -1.220044500079073 -2.0892879419426147 -0.15872859632388145
Ni 4.8853320905974105 7.475288307185964 1.6553872715114113 -1.094139892263748 -0.029945124298864558 0.4704203472427769
Ni 6.2863226857744126 6.155752589181121 7.662806534299936 -0.709252690997785 -3.4205208266727607 -0.3723656717601845
Ni 0.19229565553667138 4.804052922174829 10.8163300694977 -0.006959976257600917 0.08759491360184914 0.26620199401721245
Ni 4.802748978296392 3.2993664212608365 12.479378242490656 -0.6653367063411252 -0.09658246181244012 -0.3445219100750389
Ni 0.6510887715562279 6.382749797976286 8.860043413902085 3.1051783663751555 -0.039819445989783035 1.7724971792342568
Ni 1.4448160564529848 1.3053495484337605 7.182797049160447 0.21931741365053198 0.12309079251561383 -0.23591799832169047
P 0.4950335080111842 8.27506829611419 9.940837180376903 0.8768701051708641 -0.8559942901631193 1.4930761154236092
P 3.0821719111262635 2.6938555745618955 6.958181156313492 -0.23950777255547784 1.9614552638666414 -0.16903563467684438
P 1.8271120563871213 1.1828620543209944 3.959121333302763 -1.3712883579901352 -0.4856806158359571 0.8589343466280498
P 4.293905687351376 0.10419528849894566 0.8885656200893002 0.6661872272668785 0.9188168819162948 -0.7745330002628339
P 0.5828851084508251 2.9562072333376643 0.9241299957865041 0.5042542650730865 -0.04802512172902697 1.1304001601473628
P 2.577268195303335 5.878151260507885 3.961841119789631 0.5711872794502099 0.0032786707512717727 -0.4853183474005319
P 8.350697041063544 7.642766489019275 3.1200371466600285 0.1833836758684003 0.17605500341747096 -1.010188746062073
P 5.508376820938315 1.633554996985068 3.908932440943428 0.9733178411776527 1.7017751301283466 -2.650037056778636
Ni 4.904771026997943 8.8235755253189 11.14524760087624 -2.493938184768118 -0.35961737095558066 0.1344470980686975
Ni 6.222401692244217 9.332908951196945 1.9829370489919302 1.0700039184474928 -0.8005273674440665 1.24500785489263
Ni 9.28315563157998 2.779518213894969 12.343120731108435 -1.282635949658049 1.1580909411944118 0.6999800074466074
Ni 7.664841056663454 3.003889039275409 6.581092608847071 1.065753370701255 -0.11102537671064751 0.21728958458722578
Ni 6.198070654342316 0.08770363517683953 13.00355350901057 -0.38614909869752206 0.4745122579239635 0.6777996146948262
Ni 5.980700435458166 7.5152389281423355 3.894071179860814 2.46514285780298 1.6286107901295306 -0.8504828734265869
Ni 6.951648489960811 6.4716584252620635 1.7070918830315682 2.0179004913385636 0.1781738495326867 0.020109883375997624
Ni 1.3119987374308975 1.7937551374543355 10.789206187260424 2.559792621369082 -1.5538677927896851 -0.368515701886475
Ni 8.840369582646856 0.2953775054330367 11.816928513099958 0.8838285387665681 -0.7716235399255227 0.06967432456768646
Ni 1.1725784685562985 4.799429007712286 7.057163443647366 -0.7213756995135641 -1.3056928314775125 0.6684883645962293
Ni 3.2450539219838057 3.728881835686463 0.8707256333099166 0.8059282267446636 0.3875295239848165 -0.5609530033167114
Ni 2.410150678798103 9.05011034266781 5.412428746274762 0.016996277447680407 -0.5610579043256918 1.4548805781904943
Ni 3.8352781074695788 4.592712287749835 5.254176198577118 0.49284422346393186 0.8123580415304072 0.09080596433997909
Ni 0.4819654009571449 5.382495373610043 4.409962241229638 -0.5282840523287805 -0.7555281770255569 -0.3377282841919732
Ni 5.526400839513308 2.3348825991768267 10.339893945454865 0.47910116284622645 -1.6541014782014676 0.32594286152127094
Ni 0.5350266689806117 6.639016385319349 1.276787628798632 -1.2621905373195035 1.0288426137178344 0.6922867525674077
Ni 1.8096614032054836 4.112703727393239 2.6562428047577855 -1.4644139716022264 -0.41195269002418733 0.37137502571214104
Ni 2.115302149179581 1.9722289878795731 13.259800675912889 0.5549749313564055 -0.9661056396999298 -0.9027541720264775
Ni 6.89788161259036 0.12419186898365946 10.34008352594783 1.5926117463271023 0.8054937103104063 -0.7820105395868017
Ni 2.3366859258172186 3.8745906282301203 11.491422505811883 1.3903374042017862 -2.1364574005395656 0.3986400320756812
Ni 1.5814249853343574 6.749962588933607 5.837675362868569 2.3781889202192397 0.03337806123981348 0.3559941723806966
Ni 9.013821861965772 0.5815894876184204 8.823674477088398 -1.1039784756207245 0.9164165000049186 -0.39339523873697413
Ni 3.713428713552644 1.7781725457155653 5.055547629792547 -0.47478942284475 0.9086389129420287 -0.35937491592747145
Ni 6.971346365571244 7.109980568987211 12.600734727125882 0.12861377921637204 -0.7474947651981191 0.014536245942962062
P 6.629398643237259 7.236305912103888 10.472862928871324 -0.9947829530299642 -0.7245931780095972 -1.0059957910266482
P 5.881092070106063 5.811566892247265 5.337660974198332 -1.2641543459140938 -0.5216246380307339 1.1341483143358855
P 4.754854472293371 0.19490816720800824 9.121081880970491 0.9548429223019168 0.26649484266728296 -0.48174297134444777
P 6.0348094824988445 3.889895785101138 8.445070210461155 0.505285277440762 -0.05401142121944892 0.9314219722748153
P 7.470821605815147 0.04872496104049391 6.703396071164228 1.753338346917619 0.12995640928719554 -0.32023424117226784
P 8.77319335333503 3.3055902101274195 4.072464574174403 -0.3847218793326923 0.7001563851234716 0.6329642035476906
P 3.468379742695711 1.4628215793701274 11.549758735454219 -0.057561600464552484 0.2799707656665308 -0.794533868864793
P 2.011939165283893 4.533757378352411 9.522046473155699 0.18739074014526438 0.4075355347930982 -1.7871079871688966
Ni 0.7576515042599957 8.156289181400384 7.41132384885982 1.2190127163804487 1.5286103037744772 -0.6202431564365962
Ni 8.066095105894018 8.390397970638938 0.6351492136209496 0.06228651674404756 0.12282545466936912 1.0854778457133758
Ni 4.085690819103062 9.227779631976565 3.357254131200306 -0.5152328755717772 -0.09986627477003447 -0.24450059778437894
Ni 7.986055146547397 7.544933706820788 8.320587034866357 -1.2763120643225503 1.6279906400470285 1.2654676654088786
Ni 7.587371993758008 1.842093539245761 2.80567014931222 -2.011857627578593 2.4230958080342595 2.050299219384243
Ni 1.320885901027905 5.0207850408631485 13.21573014717039 -0.5748413312630293 -0.9512359216769488 1.147435775473411
Ni 8.03942436727407 1.59619376812772 0.684746244929079 -0.11969230835702614 0.08733754617540443 -2.0751985537290842
Ni 5.742134192677718 8.192605405589196 7.248496400192936 -1.685182515876988 1.0119178129380377 0.9715921167357975
Ni 3.98833892400868 0.7263623998748593 7.182634287371365 -0.44743802741499067 -0.9613640112498862 0.6456667387160234
Ni 5.23783158573492 3.0481583963397965 6.604020751101037 -0.1510343130034173 -0.0799278839748946 0.08175182455751082
Ni 4.453735914663641 4.397462875654491 9.993164170783718 0.36246281082417575 1.11587856949242 0.5111219387271971
Ni 2.419592712130616 1.8258358559954593 2.142557350587595 0.27912770093994516 -0.524965786588825 -1.4428768688613989
Ni 4.553778927975222 6.9557730216613995 9.47686620494219 -0.04919651632930882 0.3077942156367022 -0.7584461220033002
Ni 7.070769774344845 3.9832433702709573 10.895686614286758 0.4499407392321864 0.5477113078154567 0.20471663301822166
Ni 3.9028704890830337 7.503817859419854 12.858740831089754 1.0943898034910247 -0.9680874460166491 0.7316179460668626
Ni 0.035768752716448214 0.4774182434746801 2.3860674827113937 2.096150730500719 -1.8020772068842192 0.2776187204945864
Ni 0.42404717318222285 6.927733604360538 12.171197117910836 -0.5969998696379396 1.148909274695144 -1.005703970817842
Ni 2.56013196830515 0.0685180892888558 9.439996960583656 -0.26297140289505677 -0.4651040772361861 -0.8663751191768111
Ni 7.083531778261464 3.769174626313063 13.366823025714234 -0.7736212870818419 -0.8664833626199013 -0.015291636051747859
Ni 3.49779708650641 2.5948020789452975 9.22277193261363 -2.013167604639268 -1.8768040062741485 -0.8958255632274443
Ni 5.725219913573735 0.22796823083229872 5.3145423266685095 -0.07000933930960201 -0.7485494317148786 0.9819629184471604
Ni 3.577948019800132 4.792604109965572 7.91273281013196 -0.2280627639433298 0.08846446069099603 -1.1046428486776008
Ni 8.588819388055587 4.5618985217714485 2.039459779382057 0.0004167758224444435 -1.0924990142262154 -0.6999075023374591
Ni 7.471385723379578 5.536499468699502 3.9482930504143794 1.0358537549283449 1.5745525748325462 -0.17654685545222495
P 0.7796641114503783 8.601581391972207 0.0031276157424641364 1.3601279704979414 0.29093189266372477 0.26126958971260167
P 8.310117567740265 5.313062674040496 12.79260868166357 0.8785104689877644 1.0391977316999135 -0.6909927163463326
P 2.963226335491805 7.581397896272402 7.667381435269176 0.1953249073906765 -0.02268561452297383 -0.582386490600139
P 9.353809044567639 2.7075053700553227 8.07508676995788 -0.4787952015700335 1.019030255613103 -1.0797314301479017
P 3.504242823267195 5.251462885570497 12.828761219280409 -0.4430879779764111 0.37986789367450063 -0.8041996740893312
P 6.295385558120997 3.896323026204073 1.774320824968267 -1.0617131391936103 1.0313540672857788 1.4943236146774652
P 8.400209917128455 5.975715855667545 6.846475705944483 1.1023543097537403 0.6299264451626313 -1.1014536523163418
P 7.187384897090182 1.7434931872464923 11.980812063830088 -0.22671550588681602 1.4445102906997638 -0.33699320579816155
