# total energy = -340870.8443577659 ev
CRYSTAL
PRIMVEC
9.21187167252873 0.00000000000000 0.00000000000000
0.00000000000000 9.21187167252873 0.00000000000000
0.00000000000000 0.00000000000000 13.48250534300717
PRIMCOORD
 96 1
Ni 5.3927126954210545 6.769408521596064 0.6952319449306914 1.1027764848928234 0.5379675981651316 -1.1589175508607654
Ni 7.9770664990858355 5.585682987206252 10.714102472943175 -0.38995535981748974 -1.9540414879010735 1.9245218811754015
Ni 7.9045874912681 6.355491483177874 0.548198494564496 1.2866414712730163 1.6193057106785207 -0.819667173597311
Ni 1.6912536146793586 0.5465164067623203 0.31829136017040555 -0.22854973088207736 -0.6953340240341638 -1.5331174476162113
Ni 3.9170813654379018 5.551599061313316 12.773015711480893 -0.6538808990956997 -0.33505356557328747 1.3210541444249315
Ni 0.3223187905488898 5.715045303777739 2.5986994517169615 -0.6353350177727122 -0.9724243828291059 0.2585871577844321
Ni 1.4250489415836638 8.498808497659923 11.634485462825113 -0.561282104521356 1.7636096469366402 0.519545386904202
Ni 4.471672899075289 7.541916096023533 2.95629510556504 0.8636070695133709 -1.1840354289743158 -0.5355438192149873
Ni 2.4612831955756915 6.018180371172024 1.761422285033865 0.10902737244401224 -1.0235582253904436 0.469546686388572
Ni 6.263612273216754 8.398813628587538 4.9213163401395805 0.8466190195958064 -0.5508136008898643 -0.1753240387887174
Ni 6.605879372284874 5.1821108808901615 8.77531757062152 -0.1835777941570774 0.6565831285182111 -1.4843752452155017
Ni 6.192588741153364 1.6452955859550724 0.6295697222915428 1.8266500111275767 -1.2836227390513506 -2.0693665204283396
Ni 8.16884845940071 2.9304069820685754 10.396899034839786 0.8109796731256421 -0.5380020509474929 1.123366136118717
Ni 3.1637989675884217 3.593210374480104 0.7156297927968341 -1.131012082699749 1.0828743466522577 0.47608320195550907
Ni 6.255026808640479 3.6995061639067504 4.933100166626674 -1.7029948614680606 -0.10983212773349472 -0.2024131816960256
Ni 1.5030827081347617 3.0970036847101303 4.251114893434912 -0.9003471052468817 2.4424526152943162 -1.2007149465125257
Ni 3.7901694067819602 2.7269351563596094 10.889698253207651 -0.5582446032466127 -0.8907471202632725 -0.37317274104251213
Ni 1.2182700538758964 6.148233578133233 7.796299173957497 1.6492750033471015 -0.2381782551107769 -0.3403065864421107
Ni 0.336503230843469 1.0914686376823104 4.020132733594415 -0.2653360464724914 -0.8045418879200983 -2.109679104004457
Ni 3.7453904976561327 3.1712974312848683 3.0210389045794517 0.42862886512828763 -0.1789150985740854 -1.0752422840282967
Ni 2.637883991060416 7.524413539483917 0.20623262370629417 0.3375938154966379 0.4294061096139443 -1.7474392078243648
Ni 8.331603811475413 7.872244609157263 11.109032001077441 -0.5359019738853545 1.269527694410865 0.1761586188748708
Ni 7.058956077992489 4.582491717586646 1.546956090256461 0.2532240937003058 -1.2017287324890207 1.0042425557809673
Ni 8.610069486020702 3.1652728670864954 5.490966520711342 -1.1443645927472548 -0.0033702020238135506 -0.6198361508061647
P 7.312429944173579 9.116906675920527 3.1773146259857508 1.5982236931972411 -0.3248835670188211 -0.6440991371185875
P 2.1635647088368253 7.112228332975962 3.8315261055107004 -0.48750661330110234 -0.2327776529204959 0.3117370023345341
P 1.393562763556081 7.548705245586531 9.745586531390108 -0.5444043549294107 -0.2663387767053929 -1.5365717247133988
P 8.95345122158424 0.9246140026285933 9.685090326491705 0.07182170992799243 -0.22528648674977328 0.5245569811861804
P 2.8511388246878413 5.098946101711396 6.7149884673784666 1.7981609025489484 0.18614606910488588 -0.024269156960009815
P 1.6968728565157616 1.5066477025457257 2.1623109730762766 1.166794896726313 1.5987427989255047 1.3998561423254987
P 5.5240002932119 3.062864487586016 1.8105795968561555 -1.721783454929473 1.708126526267671 1.5617939896152973
P 1.4941656161714207 1.4895320446243538 5.910056025180581 -1.3507691549908607 0.11084257127588007 -0.5414784395318676
Ni 8.404515777270708 4.31908745353729 12.792201277009871 0.4008025869446388 -0.23120285223420828 -0.17794219313785484
Ni 3.9233638620484372 1.5564378699650014 0.042059564551883304 -0.47029384896724163 -1.290083921295662 -1.0520663601324656
Ni 1.0604891126071905 5.470691190740975 5.199191533698454 0.04496139520203869 1.2243840079946913 -0.46714167649150523
Ni 5.227562256661985 3.5094376117583845 12.924370450938 0.3217509349271104 0.024371486865828997 0.3693446255456736
Ni 2.995820484167424 1.4296825131307305 4.2119349600273885 -2.690494393462734 -1.9027528649294265 -1.3656833530985317
Ni 8.936750097896702 7.654503593932577 4.212514386767569 -0.3619784149885895 0.1290117859857391 0.9471165001919365
Ni 6.931832246283699 8.732771619235272 0.9591318076862748 0.6383635201863909 0.09358789796049043 -0.7066751600785959
Ni 2.941544135150889 7.7958689795414955 8.127537820031286 -1.262063010602704 1.1429366020514768 -0.4990691213277211
Ni 2.579416240346236 3.796958556344959 8.730340606250639 -3.02825173112043 0.9887799413689938 2.4168045757089085
Ni 2.5475800111878613 8.706821776197327 2.362013300818922 0.447400746419152 0.555107857389844 0.4022200361174557
Ni 5.4784383749777215 6.223853834256237 10.788552821339584 1.582497797821552 1.805064571647317 0.6470060263527373
Ni 8.646612981701047 6.701434119119313 9.034667689863989 -0.4285733293000038 1.5128615255806528 -1.5790170383618032
Ni 6.964976561246615 7.127096294162772 2.577531491363075 0.016361214966842792 -1.4520392520869574 1.4909148461062323
Ni 6.227685972951226 5.877054494231542 6.146027334822055 0.009008888366829648 0.3984225167482364 0.8144118387356426
Ni 8.892837104725992 2.1970130155712173 7.8940610852903 -0.9993654301943241 1.5143036573438178 -0.1355315893821279
Ni 6.566922366176434 2.628322068066668 8.711788817505832 -0.9962518242660069 -0.23851506962490535 0.7749520900781234
Ni 6.049086201272241 3.9564252701645857 10.686422640369365 -0.9019884975050465 -0.3695703684032345 0.8196941701805044
Ni 4.470631957554775 3.6276996227350105 7.947343473332822 2.9810329073427817 -0.7591313209957831 -1.96606370917293
Ni 3.3466730478118194 5.156253156570845 4.012204996669156 -0.5160098629471178 1.481750920218777 1.6971587144022577
Ni 6.881314340987251 0.4116582874373934 9.37581554650076 0.07443523629143954 -0.03454585629566954 1.245054134749533
Ni 4.751087396422463 0.8047297810169011 2.462525877090004 0.4592918414297832 -0.034436327300998756 0.16272871862221006
Ni 8.633393945577707 0.5643616449352381 5.965590715893596 -0.6119742315595846 -0.35427436147611246 0.8982840520702658
Ni 1.2962946085551315 3.924045540566296 11.033003659030909 0.7476541735941188 0.5253995316921338 -0.4603395659680072
Ni 2.8222043351662975 1.5989045992532274 7.52308979349721 0.8731103810181157 0.38838287312404723 -0.5145091100318752
P 6.496884504402382 5.234784364202542 12.71396208571623 -0.7940597574418519 1.084864894719725 -0.5940847528736736
P 7.787992829098669 1.9265893051622889 12.550069067466453 -1.261237429377615 0.6004202081733981 0.2722291740478989
P 1.4456098395817811 4.669258338663827 13.229924555883498 0.17296428030728922 0.37762357772501415 0.3996522753902795
P 8.588780850145412 3.1414970258082064 3.143702347932198 -0.3542532784301899 1.392882539221143 2.1959840951502887
P 5.632829347400859 7.269060451442784 7.837191594344343 0.6713003801237277 -2.252727056368288 -1.2086583697293185
P 8.879074568162736 7.385295850609559 6.379423005090647 -1.058821676578428 -0.8738500873976177 0.7989420252348176
P 6.781881396098506 3.820909423188644 6.972315659559832 0.26732865142248796 -0.057252039643933654 -0.038885621321603996
P 8.937072513411904 8.170423689489276 13.351779196886676 0.7404394010132345 0.2589196014231864 -0.3627556594742462
Ni 2.351606649175341 0.6836065626396413 9.597360143617658 1.1589800286675846 -0.39639314502303347 1.5411714282689393
Ni 5.868846716401649 1.497647703735618 11.402182320559469 0.27277810457283347 -0.6364688742668394 0.28597969086477204
Ni 4.83887653527643 8.359930317454003 9.329691704082942 -0.5225633477949193 1.4771062223579141 2.409221621155328
Ni 0.8755718392045895 0.2522855347107688 7.984245310828636 -0.47918240970612314 -1.8932742360150296 -0.6304645770542884
Ni 0.36547733141402367 7.9276632302848045 2.0600324809690655 -0.32113978370567275 0.8440862258716237 -1.9920601332366918
Ni 4.710647278944086 5.264547922191753 2.1486396340444642 0.35398794058394517 -2.102300809262515 0.08430955798235804
Ni 4.78985095322178 8.906572005673658 6.741562875328722 0.8130062166373676 2.378106130697446 2.9956290599894024
Ni 4.094253296978129 5.90207393821133 8.81830016473407 0.08748872704128803 -0.5704200622668821 -0.8631144461476684
Ni 3.98208954517478 6.920418737045497 6.030063685875237 -0.5297570373298812 -3.2781063941278705 1.0694747854169
Ni 6.9065825055073375 1.9578451863932977 3.489677225425158 -1.00133283833334 -0.6269866458080169 -0.3723592440022813
Ni 0.9831830839332659 6.361755556044684 11.827851865100419 -1.1704906004103452 -2.1579772768892127 1.1855603502592744
Ni 7.366116733390886 8.54377164422301 7.487563288470534 -0.0456350242302956 -0.8818084230127458 -0.5525832911957773
Ni 1.3467848782359917 3.6315686089174513 6.6743125259804 -0.631357521182203 -1.1341483143358855 0.9020376055754271
Ni 3.53270680008421 3.233311752666286 5.541930280605958 0.9749317226319919 0.41778420910429986 1.0849816228032476
Ni 6.39406159066807 1.6292853526572553 6.544354201299378 0.03121293526769463 -0.17985252278669026 -0.9875974910251185
Ni 0.5266095516664728 3.474358803704249 1.5433017406884264 1.7171852940358296 0.9179205953542707 -1.487004969528865
Ni 0.5618449615422786 2.513643475244732 12.71162963976053 1.4679127287841043 -1.4816529611883322 0.4735882034477973
Ni 7.718443196533353 5.3795120830414405 4.110491984698148 1.7738981733468415 -0.8193151895745309 0.46562806806045615
Ni 1.4579445360062786 8.308224080687232 5.982242095473074 2.1932016473091456 0.023219118428940654 -1.0878715427565329
Ni 8.487358140934269 5.254700431170253 6.961394985466297 -0.5452474196559964 -0.8254344150983913 -0.24780626511884418
Ni 3.86110082012672 8.666086878819335 4.8417156341845935 -1.9803469585648217 0.3912465678250875 -2.738749628924696
Ni 3.8042727826041456 8.975780798980045 11.62503408229372 1.6504348279831575 0.27452362650903045 0.8117422623232795
Ni 8.919671287462782 1.207943545517523 1.5003062499552668 -2.2496970112927124 -0.4656710054832497 -0.20407874232390663
Ni 3.0730436059945823 6.782894702003432 10.905472662585776 -0.250353199910414 1.5856491989663402 -0.4036269437673113
P 4.887773151125 1.358981396582545 4.877660358193847 2.797636890179208 0.697367766634741 0.6741951851730196
P 4.489212303102357 8.654111445397493 0.48739277077149773 -0.33389631204039266 0.9697617483952782 0.7214978269137252
P 3.801067051195837 4.865158005701444 10.776944020417886 -0.4732860988263462 -2.22403534486055 -1.4680623669880912
P 5.718499755726348 5.879182436631885 4.035664870742544 -1.7170181723303461 0.4417749155919424 -0.22100071489022585
P 0.24214234260246822 4.16269750491989 9.079536875334075 0.3692968030268737 0.7075534489184911 -0.8086016598117688
P 6.195140429659404 8.368423663311647 11.32870198227023 -0.43234642318919086 0.7144861714825824 -0.8474623414327082
P 2.209347711995715 1.2772905169018538 11.654170311809063 0.24288388811656234 1.8898145596012035 1.597605599997268
P 4.487922641041543 1.5156108538683817 8.929004756034328 0.9109472493602311 -0.09734865055450331 0.5062317005144314
