# total energy = -381167.2065904437 ev
CRYSTAL
PRIMVEC
9.26344479011342 0.00000000000000 0.00000000000000

0.00000000000000 9.26344479011342 0.00000000000000

0.00000000000000 0.00000000000000 13.55798781367814

PRIMCOORD
 96 1
Ni 5.311196158931749 8.875037961426528 1.0562022447160162 0.05991030320238714 0.9552134182674581 -1.4697724077006622
Ni 1.2176613110652492 2.2059597253045626 13.35620444202931 1.25547250186938 0.5161777559835498 0.6542231129264668
Ni 1.7261595944039438 0.5947798622407999 11.177476465828107 -1.2447512587971337 -1.81134500533939 -0.5861500714076292
Ni 1.7005461691323882 4.559449074795307 12.447832883460173 -2.00042161782751 0.8742002716481848 0.22128765000302533
Ni 2.4163881406639307 1.445838486938288 1.716048544247017 0.837588533962422 0.08376422700184928 0.5577280686215105
Ni 4.346806696094203 4.443396636530553 2.0215912332630754 -0.8605770244377954 -0.1454007688667238 0.29595968489561936
Ni 8.013963700055042 8.660153829048854 0.9212597895204279 -0.8970848895558421 -0.985523124994593 -0.04488220522467109
Ni 0.8372208906393871 8.328522500035588 5.550070761026703 0.7158488561580639 1.1208140591208244 1.7771932991583457
Ni 3.54605598820133 6.2657107894584545 12.02723728188887 1.5202259363655237 -1.2512767186204774 -2.0398165746853647
Ni 4.701420632014785 8.95158180700297 5.466851677023251 -0.3710826912827029 1.2038591485684622 -0.33281182072696236
Ni 6.419067120514729 1.2735847281952237 4.2605297489145695 -0.5714094227633449 -0.8713226929900736 0.2940413848269839
Ni 6.95821814317479 1.1928630689488102 1.8288643348481612 -1.3290975835546979 0.8030406207842234 1.2048356535491185
Ni 8.803329634111117 1.7579980546782061 7.162725364525631 -1.611347889284025 0.9012241085351963 -0.3806862758107379
Ni 6.359354954402452 2.5928104496320223 8.424500126761105 -0.4505765730439724 0.44553746795816823 1.5790273227744482
Ni 8.889294403196121 8.54130383041086 7.615779150837981 0.8783729149686357 1.7017157376453207 -0.07926093981485705
Ni 1.7421390369332144 6.785464158404722 2.4362758306152874 -0.8714101104975572 0.04700028000893841 0.13514746656983176
Ni 8.488492930782238 7.610207188703861 4.2334545520307705 -0.1592405029632935 -0.5383789746709373 -0.8419712364111499
Ni 7.73321647412194 6.324024175384111 10.128807254540963 0.8655335971121222 -0.12632935405756954 -0.9415377205525784
Ni 0.020281386361498514 3.659644350110846 5.447139066181345 -0.33272003234410447 -0.5699616345732249 0.13816979833592333
Ni -0.011109649521944443 5.988789366287432 6.032396107019194 0.076929463468203 -0.112082100109936 0.7373036835977302
Ni 5.682919677664832 0.23563795443134294 9.717741885128568 0.9988656077397701 -1.0859213610086977 -0.2052164554727756
Ni 7.646140091643595 4.324944966025171 12.835550666234436 0.982847635044959 0.9675295166306498 -0.7089464726112759
Ni 8.329263575631147 4.289873563465276 7.654405863567577 0.6809805835259691 0.5565229925698157 0.6729782820467829
Ni -0.10419893411376627 8.64760186114905 9.979099794448329 1.0762496422468883 -1.7077976821733427 -0.34236449741240393
P 3.995286750785084 8.816178032249146 12.523784794904659 0.2938061288877262 -1.0723384801179403 0.6480195552189162
Ni 4.195895914503277 6.739091353012531 5.778400783741326 0.4925215500171904 -1.0423851282889598 -0.06104004593145616
P 9.15597045625852 5.7986942125812515 11.925863698483179 -1.0222665031622136 -0.29855418509567294 -0.01831576759005233
Ni 7.963774355345715 1.2138725620829467 9.359634704119413 -0.32635398091676054 0.6304632915027077 -0.14820609952600283
P 2.2512394441933017 5.158340053902478 6.965388975906331 -1.1618730339446637 -0.5774792831065086 -0.16990158222156546
P 7.705778150196316 9.08736538299952 5.85913911718864 -0.9861489315040499 -1.2863198262675395 0.3422009752513462
P 1.5245036614070215 1.9259350480771313 3.9344472234230605 -0.06222506737849284 -0.9057345948110401 -0.8644167098988597
Ni 1.9185798727911945 2.71608837495349 10.981617596677458 -0.3608211614556947 1.6981591306423143 -1.3783054127379166
Ni 7.424123106658652 6.913290435193942 7.445125189036833 -0.28064310914320695 -1.1675394882018215 -0.7031879728609438
Ni 0.11328544725983089 1.2045164826889971 2.161522979905774 -0.8461695907632136 1.3939986551034573 -0.34836365241863226
Ni 8.208079188867137 2.055169368497916 0.11137069318980178 -1.726065627244595 -1.1336546625289183 1.1199357702809292
Ni 3.5846660267300257 5.617881030709466 9.522656513630784 -0.7441261058362023 -1.6414020283569282 -1.3177261084929628
Ni 1.7720784909938532 4.453595689414452 2.322890338150056 2.3555727254816206 -0.22463856875312926 -0.9878636002023117
Ni 3.7667853543389875 4.072182607269417 11.359519833188523 1.2401489841384319 -1.2862876874780234 0.01602388623208208
Ni 9.189763503416074 3.8356405406114904 1.481101642808534 -1.8568334766894925 -0.4862999945875109 -0.8036479153509192
Ni 3.910767079111423 4.137211990779839 6.0521096442055935 0.9556548766802508 -0.14124689459935028 1.822501793287158
Ni 5.584912430151974 5.4287492752775135 7.963962403278089 -0.08061205452611278 -0.8392073005127676 -0.24118053227221045
Ni 4.11000525297783 1.816163225484751 9.854203545295054 -0.2685555818510536 2.023656934206367 0.5229878369268476
Ni 8.972239289229215 2.797680798024687 11.827649876148056 0.637038116506748 -0.08847705909648633 -3.1674440571835962
Ni 1.9370974992352594 6.34172661867306 4.8299110978065265 -0.10017686403191779 -1.0718294016920058 0.06799745108589579
Ni 1.2221077646386114 8.937445790017657 3.3749898031001515 1.0368456865279694 -0.01497796146607098 -0.2519963919407918
Ni 7.837772977210563 7.820283593155338 11.911925919219676 1.2964000933216768 0.6892155698412518 1.5662507398350702
Ni 3.0360848171164596 8.22184466805467 1.0679232816042978 -0.2764288139515433 2.7048254653734256 0.11703507323983715
Ni 0.5969002647885969 6.489561936542409 8.344168458546855 -0.448714323024253 0.15570472189589313 0.016389497101616936
Ni 3.1919422783077502 3.590520523934952 0.2266098009884287 0.12824765412620492 -0.7423528159858634 0.7420296283184898
Ni 3.8008933586246534 1.8908358551824032 4.727562073648177 0.3383931714694818 -0.576170334487098 0.09548177254909362
Ni 1.1760128625947563 1.1394593088437408 8.584768840434968 -2.0717807862967867 1.5570207365963702 -0.13553287493370852
Ni 3.3828155613892688 1.5970549622123822 12.347124415401495 1.0978445948088447 0.11781951681434548 0.5113247987666226
Ni 2.4982862574182967 3.530604562033896 8.426899359001732 0.6089860954655383 0.04041388504067234 -0.1898746829093827
Ni 4.912923606987716 6.607161370112896 1.5682928920041896 -0.022805427930289758 0.8267454206003311 0.2973820191644427
Ni 5.111392914923728 2.1858024691053206 0.18543008283212767 0.820277039267168 -0.0063807067153632034 0.5845212775549546
Ni 0.35684179442973646 6.86627845210058 0.24927837711212608 0.34029758758104617 -0.5814246409075019 -0.45906661279285454
P 8.720662651426357 6.718758091359344 2.1931808030036186 -1.4170347109873143 0.19935408315472763 0.26082684574822823
Ni 8.743015344077447 1.2882209712075412 4.889362961115863 1.5911369615537887 1.035253659450501 -1.9352917180973963
P 8.321000582740648 0.657303483893734 11.407026484241921 -0.6346063671368039 1.0374280413940005 1.9330607718843484
Ni 4.52451662390958 7.966673813613346 7.656832886143037 1.6586698142984404 -0.14224782506003888 1.7347924655946316
P 3.5127168498460577 7.108026574817319 3.7037578012810717 1.076323175797301 2.06993627688888 -1.2922097093894132
P 0.576554034312487 3.092675202282438 9.305674210973178 -1.753040356061226 0.2889457154716314 -0.3953029972826483
P 3.0893959427720836 0.18878344990203835 6.9658364002971505 -0.9806557695999627 0.662293034418795 -1.9425052051266998
Ni 4.546341300198833 5.295846630658705 4.138195768632946 0.8467704575720061 -0.9543009337555177 -0.5933311625371007
Ni 2.457943954684979 7.2184931557805365 7.023404078904775 -2.0406159306582086 1.4848223600552493 1.4827803899245557
Ni 2.437425424132901 3.783413238014373 4.408637412065287 -1.2806500295762717 0.8286567786904309 -0.6822489087154315
Ni 0.05582985633603516 5.193244714453372 3.6579722982983633 -0.9513886452047294 0.5450170488127453 -0.03150244148365542
Ni 1.7656959774270895 2.0596806661858893 6.133741900090052 0.3558746160836968 -0.8474713402937727 0.7852974378681895
Ni 1.080265895648356 5.144657945719445 10.148818148310083 0.16110943785123222 -0.390127880839612 0.5658648387960319
Ni 4.21706288620147 1.9707238043838111 7.24506349491486 -0.18723030330800014 0.33855797918212016 0.2168913207075426
Ni 4.0082833640422235 7.615366927537951 10.190875114702626 1.1811599071987335 2.09291833960635 0.6600530893446825
Ni 2.720729360870687 6.213816970879339 0.3730518967381251 -0.7792710291684515 -2.6476505588243304 2.426176760952428
Ni 6.436204493662062 2.6797108266564202 11.753311656812901 -0.5495802427033953 -0.14262552011443178 -0.9275578613337186
Ni 0.6206730435496793 0.0068058530007275774 13.507687704517805 0.5450540726982678 0.6761391962732678 -0.2849229674654835
Ni 7.19937340541508 6.14377606365394 0.5534871300561759 -0.2870968351883507 1.4607529778108712 0.4863087363382592
Ni 7.568595794013146 3.3815464694318713 3.47065525173104 0.1111217930791957 -1.1025414860638818 0.33994148979320804
Ni 6.335112518982684 7.304856252998155 5.251198678715181 0.49109175954919937 1.4168796734666889 -0.0948060866383077
Ni 4.718094832914893 2.2843933136496837 2.482358690180715 0.7493464736948773 -0.6814158712911748 0.5817516852296174
Ni 6.563336012080446 5.377781801192849 2.9039037948588278 0.9013526636932605 1.5409130324012301 -0.4231303039075616
Ni 5.970058680609644 5.170623381898891 11.256207410755946 -0.4700056283028616 -1.1692875812411798 -0.17662758809148935
Ni 5.909197847324249 0.4995942600580367 12.326759658035495 1.0714108260973483 -0.9015465248716215 -0.5207347792266129
Ni 6.683242043442113 3.341778500285113 6.41018996122441 0.16627118455782977 -0.6090169487034738 -0.7323615091011064
Ni 6.158273354992089 0.6283978302889018 7.225431476043971 1.1600002424019829 -0.8845813577721927 -0.2156782742360479
Ni 6.628272761141423 8.140752471010478 2.7706973092458393 -0.054247962710287215 -0.6041256820494435 0.709414670496946
Ni 6.525068721014697 3.801300950202212 1.2104302659415687 0.21756006463979305 -0.7047720295186121 0.0697188046523767
Ni 7.106062724489084 5.2750687236481815 5.169362627041944 0.961629349096131 -1.2255145220547088 0.4352188596409795
Ni 2.0256652963496684 7.877661371141601 12.331274661101448 -0.49585601370706217 -0.3361750807722404 -0.5917735882419938
Ni 5.702465546497738 7.206515521467293 12.124135695041874 -0.7420463404890382 1.287928822625872 0.8938576408677962
P 4.930172141474383 4.974655204097895 13.551262949536756 0.4777032540574354 0.6627797442472263 -1.224011455146621
Ni 2.861922788714827 0.06269406903991312 9.034067226166817 1.8963091661866116 -2.1094824146126183 1.0582241522037452
P 5.110809317892225 3.8791046242911063 9.574230743359312 -0.31205299091305616 0.14994545081461272 0.5804789891647809
Ni 4.153719449670947 9.289197321450388 3.1263228133543626 -0.3904515827276179 -1.0391095428614814 0.010249445642150091
P 1.73193072060437 7.462131021265955 10.058739483325223 0.9248926557967296 -0.22460540152234867 -0.3186805235319028
P 6.102034980734002 7.28782077774521 9.043191719437155 -0.7811188810104677 0.6259026687152188 1.410841951913041
P 5.582883735709126 3.2296630261217736 4.691646771253838 -0.740428602379957 0.6298649957970766 -1.7749793222261625
Ni 7.811798277586171 3.832815189903416 10.007015185788594 0.054050244877184336 0.05772640817719091 -0.0025855013389890955
