# total energy = -340856.2685149631 ev
CRYSTAL
PRIMVEC
9.36465177066124 0.00000000000000 0.00000000000000

0.00000000000000 9.36465177066124 0.00000000000000

0.00000000000000 0.00000000000000 13.70611445986669

PRIMCOORD
 96 1
Ni 1.1266893367497595 1.521933825266049 4.011985340500681 0.3404413122477621 0.7374265823288397 -0.19559178789881798
Ni 6.078932528491451 7.822714951894041 0.7896658241505107 1.2975082387841912 -1.269819257509355 -0.35053417770738987
Ni 2.3221807693420335 -0.3064554166078051 6.611733448969237 -0.5667765519770239 1.6732207155294219 0.8940700139889183
Ni 2.2054503862364196 2.4777463629361343 6.702262473158589 -0.5681253526954345 1.038162862677496 -2.492634892575662
Ni 0.030085816430277298 4.262733253700515 9.745293860296275 0.7389923841540628 -1.2564320375691718 3.495738963876812
Ni 5.645545813710486 8.436792620708124 12.07544301174698 0.631143348288868 0.2015670316456464 0.1986277465116644
Ni 6.112767014986483 6.001159096346074 6.995381689318684 -1.4971896233713504 -1.4767686365128374 -3.3964535013109125
Ni 2.01791387183024 5.4794075283774175 6.788514660928822 2.6751171396757156 -1.8415580385876604 0.1984500832832195
Ni 8.017743187638729 4.48315842478274 13.306430220041102 1.8207249038923932 1.0681457821928313 -0.3878054033540224
Ni 4.2875214866793 2.854907709071602 4.92490870997298 -4.091694194300321 0.3376123274393992 0.11524455699831765
Ni -0.14886331239163847 5.288181341212023 7.927383663644659 0.2445803019823788 1.3209286745906603 -3.860903232792551
Ni 8.998390781545965 6.302485493232504 3.405009823515503 -0.35875090919022734 -0.5822327386310939 0.2213005055188318
Ni 1.4106255754791792 1.0161489884000867 11.38486082108923 0.8654119839325934 0.6535194019912228 1.8565162025593898
Ni 0.5344968588957908 3.4274906063220287 1.602381801929273 0.26816451706022204 0.02457820355999638 2.349650446459915
Ni 9.38806330231674 2.736276301676342 7.985717015381777 -0.3453287222470504 -0.13543028791757322 -1.0421966664272373
Ni 8.094308579718271 2.4540725235064516 0.6887785587455045 0.044321190514878504 -0.9318688300042467 -0.11386850258639744
Ni 7.015107391602974 3.5407186097018903 11.565054512118504 -1.80724538134872 -1.3500628729524558 -1.8851541780110566
Ni 3.414511199103065 6.104366922435681 12.859104221244676 -0.20732321740313328 0.49228757962951347 1.9940589088342755
Ni 8.963704111748676 9.04591638878712 7.906426509665352 -1.710197549864087 -0.586119732390326 -0.7293168087375117
Ni 4.478241982654345 1.6091468262979451 6.855592724398313 -1.2153087851663005 -0.9514410957092194 1.8052682030176908
Ni 1.086243406173494 7.411681660656848 7.524999564692772 -0.958720145869136 -1.010644602652569 -0.7946806788553024
Ni 3.3794499432388516 3.7583531145855225 8.362525314149169 -0.26324779648489505 1.2710096782730305 -0.4109718141681567
Ni 2.110258701979013 6.038130741151606 3.5051600908338334 0.4402075711048225 -1.4694391927309596 -0.7380063660917097
Ni 7.956357895921336 5.000817639970236 5.2914645880886235 -0.024654308213570446 1.9387066573162157 -0.8091631887421936
P 2.510532008443776 1.273395969861075 8.226492511014891 0.6517643669733292 -1.4080667031607492 2.301747966351681
P 3.4624863096245297 8.624020101609089 4.930404824039943 -0.5360603538400897 -0.10353601031213781 -2.581783009597244
P 1.3619106574755369 6.922228776308832 1.3723522440910811 -0.17077498596545426 -0.4578533092110437 0.10905128370341219
P 7.367265117771174 9.309943378059456 6.034637726077527 3.4606508619244267 -0.4675923908756786 -0.38868472063518217
P 0.16823877670335252 0.5599078412108396 1.3632001700109273 -0.24716374643883882 0.46615694398073265 1.0752960200843675
P 6.182355741569541 1.3152278688849641 12.632500252988518 -0.25411395250442687 0.5057300782876646 0.04763559960009215
P 5.509908198876815 4.693216926462807 10.207710995263955 -1.1319543920083601 -2.2129004112896533 2.540406760643302
P 0.5262119515605692 6.032633690619476 5.45799431586163 -0.7155549790667289 -0.7429950775555526 -0.17375309475717174
Ni 1.812584519245106 2.6806034474795606 9.859383411630066 0.5127167940181427 0.33297534288802005 -1.0013261534651208
Ni 1.7476032012852298 4.626343948864958 0.19388106591472778 -0.22467096465296144 0.9575479799379057 -1.3326927571051241
Ni 7.937581769316702 2.4240400855907116 3.8877529349397197 1.8442448413912045 0.1311514580365612 -0.5891220095517596
Ni 4.181700922772887 6.9992998595787235 10.856147571066765 -0.6711348010801409 -0.02408043798797143 0.22918376492165046
Ni 8.516523265053186 8.07183341570275 1.9642235143926614 1.5288615005533346 1.7416711949923358 -0.978423023614702
Ni 2.0756001261367447 9.032187809434305 13.816859924136939 0.5700130566364505 -1.5750050889889327 0.0874038806369656
Ni 5.636340361115796 6.318517776896908 9.102107108221425 -2.1268769559399825 4.19129384567253 -0.09573862575490609
Ni 4.061355784121443 7.320507411967216 6.49027017090802 0.6836385899741065 -0.5078190996062093 0.5261664917651454
Ni 7.05280947923901 4.719775078607815 8.706260472602553 2.6987031545257714 -1.8466063996448459 -0.4217282813537124
Ni 5.825665523991543 1.1178584702219942 10.35620253098417 1.8974047132436354 -0.9023718489863942 -0.10489509544319355
Ni 2.704736154841227 1.9105106817910673 2.2105353920949313 -0.8256742990233393 0.11029338364062942 1.0012181671323466
Ni 6.944863139402797 1.0831905297280526 7.785785448021038 -0.7167412860653463 0.10081604027781348 0.7782513296546855
Ni 1.3898079548098026 8.816089107425066 9.404080602538468 1.0656885789015906 -0.012230737738237001 0.04776055521373065
Ni -0.22507753003343875 6.9127798427706395 9.64519790795765 1.4919939381030238 0.5102284803786503 -1.0589620588110342
Ni 4.345329481457555 2.746006174764728 10.578707591202999 -0.9099560890915553 1.2856163724426117 -0.010782435327484656
Ni 4.5805601668350056 5.7812021578475035 4.537011727159431 -0.4052881335198182 -0.0010114719836498709 0.40755378962554323
Ni 5.468048205897905 9.454833268746183 5.328567338017581 -3.933079240736168 -4.390402645585671 -0.8583357938121025
Ni 3.092348452243912 7.450179743685102 8.750312730538141 1.2821528393740433 -0.971888564930294 -0.39537755927432555
Ni 6.235640609589673 1.9324614253128933 5.371590420734292 2.6123577970603074 1.0777529662652923 0.8133160345683026
Ni 7.109568633029875 7.827884239617611 10.095691031949928 -0.6316377714267831 1.224199917008343 -0.3503063779672999
Ni 5.573924957714358 2.9933547194072134 8.428273597081075 0.2973020578561267 -0.4597404989314276 -0.03792197185675405
Ni 9.174755266506095 8.583855110583018 11.37014052512423 -0.39097120267651375 -0.5353993232173231 0.8467493745260837
Ni 6.417221205531739 5.753904198220319 3.0046681550935266 0.5605310852879443 0.2726822024249175 -1.149494971995285
Ni 8.284879241266545 1.648862314043706 11.629295086131036 0.36283947743730416 0.49406678301712326 0.20347581863258504
P 4.147473120907582 8.542837936254692 0.7914404256425694 -1.7404416934606088 0.3113937600625024 -0.5083214931639246
P 6.702524683405437 7.97698822355725 2.9394545937721572 1.0992934114402293 -1.6316179523869707 1.6081409523109529
P 2.5968085443083586 2.9465970136032564 11.887409234336957 0.4665043000178224 -0.3034786189804838 1.6721951024783848
P 2.148513304063765 8.44935998325347 11.538424252155615 0.8725308543655619 -1.9353773358326667 0.4103871453092803
P 5.189899321902484 8.60492557684757 8.442993893046074 -0.2805821739982845 0.056193259362116124 1.143626686139966
P 1.9105106817910673 5.5857899713842185 9.117019379545724 -0.256207601808662 -0.18515850838063594 -1.1669013403971902
P 7.814698810061839 3.9838258329195675 2.286563253168436 -0.18914063295683553 0.5821540628743587 0.18696445124112318
P 7.223564537846934 3.4411910917198236 6.322863911738409 0.7873810598700955 -0.3882502042009249 2.175437124236873
Ni 8.77339566044725 -0.029968758284363118 4.095606061150763 -1.3694415345893836 -0.46610449347624233 0.09774640021355424
Ni 3.7175513272456784 -0.018824822793333775 10.131573567765875 0.12421307904551511 0.1603044254514336 -1.3040586383081991
Ni 6.8326839770103245 0.7606897189434997 1.693664680578313 1.6890204015658397 0.6727682229185058 0.20665395925025054
Ni 1.026309635465437 6.75327173082215 12.724454577162522 -0.2802435597119432 0.5064422738633407 0.24906507722660975
Ni 2.100669298665724 5.1268377575356 11.193851893842652 -0.3342873768312243 -1.035769679854971 0.08900670634771124
Ni 4.063537747961283 6.834556907344951 2.303449593065431 0.32711348479060437 0.19916356441047636 -0.32670853604270184
Ni 3.570198533168916 3.089660797213723 0.505853198823176 -1.394644259107256 3.679049363305116 -3.1755535736646086
Ni 5.529667613907127 5.482928637406516 12.344083028433502 1.2475897566871932 0.12101128427876578 -0.014998787401677396
Ni 3.9523699679495103 4.081883100588953 2.6302581436196255 0.4631374404281185 0.7135839713832872 0.6614381426176674
Ni 7.859302645980976 5.523955176386515 10.801693058052662 -1.2609391814109057 1.32118707045837 2.216587373222937
Ni 8.03271726566407 9.580225954649448 13.375057196897329 -0.29195493461160044 -1.637523262127812 0.41109265601673717
Ni 2.4313257845924094 8.949142078396953 2.6795040373731345 0.11165246877168514 -0.989952107300224 0.3338405191017928
Ni 9.324402400242775 1.07391952457165 9.735274619471191 -2.005593648946752 1.1458139235992717 -1.635521401206435
Ni 1.218350547326394 7.803957554592754 4.603883768292113 0.5202966632479297 2.129244427730894 0.7915961263927076
Ni 5.166422140157937 9.245196176391408 2.747390270282017 -4.018343963542944 -0.7107112778211825 1.5627699803753214
Ni 8.084719176404981 6.074886998968656 1.028825917370008 0.1516521490930743 -1.0676151065003419 2.4657992604400567
Ni 6.687466323515038 7.343282244836278 5.090532875929194 0.5402504806620374 0.3621769041526408 -0.7425459058332761
Ni 6.10989206692283 3.516623360946917 0.018116855126844852 -2.8495160955470022 -0.8181301681274942 1.1474188061925463
Ni 0.5701115656738863 3.596560027628788 5.3733584669701795 0.2688813406215885 0.35238948574857376 -0.5233009972918924
Ni -0.045695754304224206 1.2634975330425726 6.090695467458074 -0.51413090075685 -0.2853587694513215 -0.2142502835402697
Ni 1.2230703317696536 1.7459269286357388 13.715708575554748 -0.16767732087673703 2.16458681178593 -0.9769783207483757
Ni 6.05640117656589 3.7694689561215324 4.1998411895289145 1.6082890478530432 2.1607188441900917 -1.8583907938742832
Ni 4.5061580092919575 1.3200881231033208 0.9008073831375984 2.623426396169643 -2.4379177035384396 -0.10819484924038786
Ni 3.9020068712513964 0.8010260830951893 12.308816686697648 -0.21043116690449565 0.6212518002067687 0.6654061261264799
P 8.059968402032888 7.226608049640703 13.091052596210695 -0.31591118831688175 1.8893697587543008 -2.4502312307984706
P 4.386037622280669 4.8521257007042164 6.480566518844319 -2.083958302199585 -0.8898120100435127 0.19535293241513452
P 7.662813524575281 2.5674222673580642 9.394869531152773 -0.23858243252773106 -0.3822101686544321 0.3996877566139052
P 0.1157086996080752 3.7380880083648607 12.04518020340008 0.6233431355181587 -0.2578196834907882 -0.7425734166371017
P 4.9941125493722724 2.0088488890106464 2.9298876656228834 0.35634307107968305 1.0923678879649896 0.49424316069398755
P 1.9121026725755002 3.7021371105916994 3.3448953150301546 -0.7772902512929968 -0.4481872468761894 0.6223152084742767
P 7.713607395250358 6.955988345590479 7.608743898744939 3.3802282977013007 1.5062573900005736 1.884792938016896
P 4.810855680780715 5.273122981321625 0.9547496497051844 -0.0630907578128978 -0.5544653387098386 -1.350567837613332
