# total energy = -381169.7528605862 ev
CRYSTAL
PRIMVEC
9.17264998021489 0.00000000000000 0.00000000000000

0.00000000000000 9.17264998021489 0.00000000000000

0.00000000000000 0.00000000000000 13.42510043171105

PRIMCOORD
 96 1
Ni 6.102866594379995 5.949389818303705 7.344590209112837 -0.16719189659988626 -0.4321895858963525 0.7994937839732296
Ni 3.342220054109822 0.8436177726818338 2.571080890909485 0.08358245000834638 -0.3648284828428749 -0.29142888690480134
Ni 5.2506907394558 4.242671564812734 9.856372671006044 -0.13929594152056657 1.750592665851682 1.521655469723199
Ni 6.037548155314775 8.083617759972277 6.311032542959396 0.03457182443759853 -1.428812163238217 -0.3123352980401653
Ni 8.630848873045155 5.865065648899609 10.67712944864754 1.469699645481198 1.1787420417858603 1.2822682819059852
Ni 3.7503020700587855 1.4613498719441893 8.375879478976316 -0.31196531629525626 0.6617147933178217 0.8816233035851332
Ni 2.9177006497596687 3.1549879268525167 6.21137720671727 0.7247471870889584 -1.6947745304407973 0.14260443706850923
Ni 6.552959346309678 0.5232244540753349 8.0472601280494 0.07285143674408744 1.2589864285599093 -0.5035153300245329
Ni 3.3064925832266545 6.060672405403726 12.755952751130359 0.3029685121132847 -0.6647628361155261 -0.04122069721268385
Ni 4.657156090306358 2.653803515662438 1.4388346858004613 -1.5486931905672812 1.0958021104575193 -0.02748123613940429
Ni 0.7743257417330227 3.455309653216 6.77344599807015 -1.1942743330935044 0.024817830374628223 1.297307692737611
Ni 1.8651299151475285 1.1131560863921957 10.14221995602071 -0.31727181610983424 0.7624989519164351 2.0944057227851545
Ni 4.017950817914992 4.8762631755403 1.7773760919916444 -0.6469108955357697 0.849993335384678 -1.248233046698147
Ni 2.20736147834418 8.598285966335208 8.797347142745512 1.2482345893600437 -0.9717193863422813 -2.3093504612892874
Ni 8.595469962853532 1.5809153617932472 11.369153590252393 -0.9142572875700705 1.7041351457200908 -2.213810067588116
Ni 5.819560133353681 5.200708970818477 12.371391243740733 -0.6424657152802226 1.336911166061846 -0.7194797680424319
Ni 7.662455545440671 7.052446817290929 12.75438239348846 -1.305383270656894 -1.036823317930466 0.5659052051156641
Ni 5.737437399896173 7.8976606310340385 9.341936532682483 -0.7210283434764743 0.30916384229071914 -0.27205305348135084
Ni 8.847194990696085 5.529759436284932 6.4381407027204505 0.9857403832117216 1.9867911715282687 -0.6826376595134179
Ni 5.565496079817877 3.5199493161976885 5.614068012184407 0.38806225655983484 -1.190788431427433 -1.2320446098637428
Ni 8.667814651648277 9.205671316648601 6.870255061086333 -0.7205850852914687 -0.44198960270590976 -0.3636331769831931
Ni 6.606169887668665 5.337399797802034 1.278427972817308 -0.14443172008523514 0.39739536103530265 -0.9943900884669198
Ni 0.5990859367947556 3.8462112961318 4.561110191751658 -2.573065427218588 -2.3391405480675265 0.8995932577999928
Ni 5.393316270845367 8.13561751156064 12.113427896784534 0.6838517344261771 0.8088382013026071 0.8599041667404868
P 8.178591375767994 2.2747529362591035 9.043388796785958 0.5676833800620095 -0.12578582284927367 0.7947683534731023
Ni 7.736524692393578 5.498379801396276 4.089943276958285 0.12751257573239327 -1.6206542542866156 -0.2517714204141793
P 1.0115781627567169 0.5370568099397292 12.322496434102037 4.255964032157406 0.9719091337555843 -0.09294795038364638
Ni 0.9223924889705725 7.225167812600308 13.239256916109255 0.4057249639469206 1.135638525728167 -0.7610357371073474
P 0.8623602479720969 8.011841775463735 2.69880728726554 -0.09272657840145966 0.20402706315036476 -2.0835055309328827
P 7.240761317221973 1.6360338143059427 0.47624030738528167 0.6403340136492005 -1.622406718201348 -0.5151187185914161
P 7.808649237593666 7.399402295122966 5.094153967413753 -1.3691031774133584 0.009359329727712914 0.9607942547893453
Ni 7.307290546057816 8.5894618772493 10.878774560500151 0.44192275402371634 -0.8483236609917391 -0.13196675484900497
Ni 2.5670944573162053 5.016375400890846 10.562452981129862 1.0027598005878537 -0.5953584773797747 -0.9984331481880417
Ni 6.424432177628051 3.252208841843707 8.199044550241751 -1.5051474447658466 -0.24882982128735212 1.3223497233079031
Ni 3.6096394857215923 3.723499587409077 12.710858170294461 0.09746332175549666 -0.21731015341251605 0.1448189282213248
Ni 3.3816349302035236 4.0944323717593685 4.003928588200204 0.896518732639727 -1.6406026723840843 -0.1976838945411563
Ni 7.645559524550609 7.490275736468162 8.19038465158686 1.1152453067837955 -1.33133290064312 -0.40696063612623457
Ni 5.6985361921900095 4.566631209652706 3.2549156907930326 -0.4789934336237686 -1.3246781143307638 1.316387335076881
Ni 3.6890471148449753 4.198899680074744 8.34253139344542 -0.8451748309501123 -1.5216145891829342 -0.44430076733758966
Ni 1.3993427594486287 2.9668018440183572 11.580317160779064 0.6142164906265422 0.868168463631808 1.2177886141653607
Ni 6.179742572164802 0.29016943758980185 2.984587611936832 1.4160934301199677 -0.31649842827891944 0.5518052753791722
Ni 8.421327206828646 9.07726339241408 3.9303593506601686 0.09242524511095696 -0.8689300243881809 0.20924151747176867
Ni 0.1570577785494061 2.548097899627107 0.3729535190962639 -0.6794790592797781 0.2769358354949489 -0.4497090828373545
Ni 3.816455220253753 2.6142327045225198 10.511450296572308 -0.5391881008357939 -0.55743521997144 0.6751236105245598
Ni 1.963084642120915 7.553392739586793 10.879190998800047 -1.2292369652116184 -0.16489847258001922 0.905904287619685
Ni 4.000054978199188 6.509875410304997 8.198654712626208 -0.9713380917434625 1.2429175480225045 0.22672579029946113
Ni 2.3030689061220913 2.837871078746523 2.015752162613076 -0.5823273552274294 0.6895554696791737 0.9466210486127569
Ni 5.459038306500795 6.403775370329235 4.487218994204435 -0.36747106267204455 1.3188278261975739 1.2119678937185256
Ni 3.3104826858798457 7.450255465489148 5.80444911011031 0.5121339249314794 -0.761624776841598 0.6897151351854895
Ni 6.7930534542344265 0.7575728141794883 5.399293169440353 -0.7584679763801712 -0.7503674587602238 -2.0597061145204396
Ni 3.503952214985816 8.1951846992154 0.14888036127280965 -0.7076925455995168 2.6204202623534676 -0.7770130863722102
Ni 8.756706800641544 9.198791829315512 9.223299314990902 0.875144637839325 1.3159517902013593 0.7941250634621484
Ni 1.6019849383320492 4.594837107718364 0.6290236311383961 -0.6521914272084187 0.5633433579257588 -0.35407150143668703
Ni 2.567598953053965 0.620452707186347 6.3216920792657705 -0.4976917813642203 -0.17840370615530565 1.0110235832585426
Ni 4.208815314484167 5.048277876816816 6.248364082414882 -0.2757652122256154 2.0460381301150443 0.1441509556200227
Ni 1.175383342482415 0.7000676381947003 1.4555087285659092 2.0879967339350167 -3.2274862579781574 -1.8851755181672951
P 5.165568549521066 6.921351306671617 0.5800095770525933 0.7332192291157114 -1.0485678600609039 -0.7172357092032614
Ni 4.674263082141302 1.345994628342981 6.217110112828177 1.6631391629237036 1.3706633228116265 0.1090098889425155
P 4.459402933754318 8.79743336565342 7.538878855843935 -1.2429134342574466 -1.036233249754951 0.701460962867508
Ni 1.091325179921865 7.536973696485159 6.670422464829745 0.16575387860177906 -0.13273165803948753 0.38309951323792085
P 3.652640867878277 9.141967263944212 10.866866626559064 0.4803234652891018 -0.09981690958933777 -0.06659491431141434
P 3.319756234804847 6.1992986614903245 3.9586597270185346 0.16486453401829027 0.8716091138822408 -0.8495642182670595
P 0.5761011109824219 7.2021719796082415 8.882234512845942 -0.20367122247284275 -0.8861929252336866 0.2514014386692703
Ni 8.25341268000265 4.774290827964391 12.882028070526474 0.8974211898493383 -0.917775070915342 0.2763956467207627
Ni 5.978934923236872 2.91927834552139 12.836597770708721 -0.38031835094835786 -0.3501179161055777 -0.30363957003838027
Ni 2.0112318808027485 5.285088176121238 5.665352297090129 -0.36066149594937885 1.3897578775492323 0.4226227681435238
Ni 7.567160886902745 2.3572242304081543 6.547663058328179 2.760993013703929 -0.7571543997750702 1.1206793333151732
Ni 8.38814973258361 -0.06381137270678489 12.803800044164472 -1.9361543232080074 -0.22877650218090276 1.7838537418976568
Ni 1.6873089265618872 5.382666824453748 8.136281611404529 -0.3292251318169685 1.151706892044939 -0.14945128478701358
Ni 6.809444979386729 3.1130322267704615 1.9331607067519403 2.0900451318236133 -0.8707051140107327 0.411376248695427
Ni 0.5447728429325199 6.727716669869652 4.380771310802107 0.30519945832633244 1.6091580807215577 1.169375512969296
Ni 6.262498218456954 1.3870605813966235 10.270148150671869 -0.42679643990523924 1.019866121250837 0.14308857579377937
Ni 4.67689563262743 7.827425651688106 2.449583641017296 -2.1035441947513127 -0.2242786143105492 0.3193592947664822
Ni 0.3738652804841424 1.3836483556794124 5.303854500300922 -0.4250817712069776 1.5086680563245953 0.2704589695213535
Ni 4.189369296955974 -0.04472492304986739 4.513438096328296 1.536695908996089 -0.45850996895843615 -0.32476426783213747
Ni 1.0838678156527985 3.4964398148180846 9.314455273949244 -0.7487651472701105 -1.0299649002477358 -0.09501691709753314
Ni 1.3214027542896378 5.109349379035076 3.1154822415260184 2.0260837984803044 1.1687167963393743 -3.500946476219681
Ni 7.538092759758007 2.634751922074675 4.276995620279951 -0.09753582686464493 0.9986843449668993 -1.1667360184639197
Ni 8.101183384296094 8.929372760052257 1.5951971774967366 -0.06510598847071368 -0.21779454924810235 0.12862560629091396
Ni 5.294196617350245 0.6177761279812872 0.9217953494700605 0.33077345014069487 -1.3070138642817812 -1.494051591963001
Ni 2.887348351646087 1.519321018537672 0.12277866906609855 0.09086047172699836 -0.29677318193585017 -1.3315540155149905
Ni 2.5422824396682038 6.781642677911279 1.5237752572696015 -1.1744716965452804 -0.4173836312317715 2.733032781045577
Ni 7.148181763018172 3.643679189045709 10.95093487903437 1.552819554030829 0.0469066918538676 -0.7452964719952196
Ni 4.208604343539285 6.917874872405963 10.685708627984388 -0.4487217792234207 -1.4870767033070649 -0.6003392184238177
Ni 5.21289024972293 2.033769081305943 3.6816998223732385 -0.9518450160158574 2.0993908347045718 1.1130554982213283
Ni -0.077762973018286 1.7801269696599014 2.669084232926692 -1.4210949970996172 2.819112029333848 2.076737873191746
Ni 1.8631853133947092 8.91900766580374 4.420925502467871 -0.756068108689427 -0.5003708708582801 -1.5054094401779816
Ni 6.82077320186188 7.236817077817669 2.646194802672044 0.9468755878257241 -0.3694407848039057 0.26013213367404875
P 6.559481100301445 6.018065447187472 10.154410407574941 -0.7615854389632304 -0.22563281434559854 0.18421311374823116
Ni 1.1129451154473142 1.4887577494792092 7.927132354768985 -0.5474472555207925 0.2865679592680742 0.11902716396920146
P 8.682463373342864 4.304220044819423 2.1840354299601255 0.16468481390731637 -0.854498165233567 -0.3809259026253698
Ni 8.821016248231244 6.366653656679896 1.5363949888334167 0.4147184256947825 0.32039442089921594 0.794464191969122
P 1.2217143965083137 5.454341909814741 12.077716936670969 -0.8934066693733065 -0.599528035376432 0.23806795478515774
P 2.020367839981089 2.24897779038447 4.329863104537261 1.3404140370087818 -0.7598774551331882 -1.0999151041846285
P 7.2134818567838375 4.385755728691174 6.548575736981035 -0.1535318826142904 0.17770822275017784 -0.577398036246612
Ni 8.217529274073268 5.00229538348246 8.67983724371158 -0.4815737927564351 -0.6638015006435213 -0.9477577333203613
