# total energy = -340890.27549064835 ev
CRYSTAL
PRIMVEC
9.10108439457738 0.00000000000000 0.00000000000000

0.00000000000000 9.10108439457738 0.00000000000000

0.00000000000000 0.00000000000000 13.32035696317460

PRIMCOORD
 96 1
Ni 6.6531930182730985 2.166658754239827 11.280836865307982 -1.1130981785338054 -1.300469378295044 1.0856326261236853
Ni 4.7330735388293474 0.6169579596437155 6.066290479689096 -1.2884808384746003 -1.0524270859059939 0.00013318314375460936
Ni 2.4525602189835953 1.6455306625855273 4.6366693924154925 0.5919288828729354 -0.1941573694451366 0.8533753644830336
Ni 3.528344797151685 3.9886048364660622 4.890022649087601 -0.9912356019983379 0.6015121556859963 0.2788610775421197
Ni 5.160860909072427 4.545199853952999 2.960729276587833 -0.08626771014999336 -0.3636678868758704 -0.8941551175035568
Ni 7.375245749806057 6.17339295079278 2.646981223963613 -0.7220968939503047 0.11905596032460786 -1.0286050437857317
Ni 5.31451451667633 4.446771626372817 11.511332748557287 -0.3855621158458005 -0.002581387573931038 -0.19442347862232967
Ni 5.423418092379009 7.847801354119123 12.653659905176834 0.5397339460369349 -0.2264943910149454 -0.07688986847951919
Ni 1.8231292231957614 6.288667285562137 0.554333398018266 1.3921181502512927 1.6277656685204158 -0.5567273952711379
Ni 3.1205343071248337 1.8557657117859172 0.22242504162026006 0.09538329929801638 -0.5593581480257657 0.19559770143608896
Ni 0.46412891028472725 0.11556374925267143 4.524552223817894 0.44118510452674337 -0.5863621874184354 0.7881202520289653
Ni 8.650325873748612 2.394677322320631 1.1118931304495856 0.7918524653778879 -0.3412015874525543 2.5112972448718556
Ni 6.832966738050383 0.6462288672297888 4.857520856546283 0.2905832510750544 0.2838945262009691 0.13519400353705105
Ni 0.6409047328669217 7.434775942741977 2.6973056700481823 0.1473774329771204 0.47712141341203634 -0.6871239774195457
Ni 7.617416504099268 3.98989719044816 3.763480413218407 0.27241969279215017 -0.298604321607318 0.09686759715302672
Ni 7.557904513332109 3.7516672056919087 12.856568581450544 0.64881891119176 0.9509304746213882 -0.6847613907246402
Ni 8.00336618944303 8.748899718678889 7.210735458644094 -0.40705988070826027 0.6338954571127083 -0.38500675756296276
Ni 6.844142869670214 0.9781026395071469 0.6358072155051407 -0.18742750692047075 -0.6624483290497366 -1.1508399160589535
Ni 1.892798024132081 6.465091806287226 9.264042027135826 -0.3158314841188819 -0.2806593070931231 0.04277672884589407
Ni 0.16873046398941763 4.893452847790788 1.4944508416445617 -0.9644470210505841 -1.1312352544541486 0.016522423135055416
Ni 6.229883381545457 2.1819121716623315 6.990656676577248 1.3820144861583876 0.4128394635045148 0.676741605743957
Ni 3.3276658865513133 4.28454479728204 0.6529509281535726 0.40451474568890333 0.32886234916091106 -1.086349706795368
Ni 6.034073551088903 5.7955705338012224 4.825938273527443 -0.5071464990192169 0.03800167605475391 0.24616641552257607
Ni 5.6155510847456505 3.0731904661750318 9.187929658457778 -0.18216574430089919 -0.03445098258901809 0.051939369181768606
P 0.4194999228057683 5.347733474666868 12.539491352159764 -1.4585114900748624 0.2752581906822098 0.3045003753767788
P 4.171190791317068 5.911764078093057 12.658575400850994 -0.02963093549255542 0.7617628450813589 0.7424016669459279
P 2.231458475032328 8.266787975765805 1.4959561610011738 1.0715679205005029 -0.03856500475739165 -1.7173799265451393
P 6.267425354616955 7.92298541219031 5.822301328736566 -0.20503030760389848 -0.09846373799555301 0.47683627807144974
P 5.057736521951664 1.0958888735656511 12.566331360107682 -0.7879621291845461 -0.19521794949916704 0.6857358388227675
P 3.993892566491405 6.0724801271765925 8.177926808086896 0.8405396461709459 1.1842915108491798 2.417825560774255
P 4.4815468697925 1.0711066207962718 3.917370649016216 1.5780197074455402 0.8359453419320443 -0.9383207562771775
P 0.18925067894318903 5.6011804725081005 3.619873492662655 -0.09916102117289373 -0.30690487105321335 -0.021819409867936616
Ni 1.7553807510638262 1.1222092095954141 2.361712284584322 -1.295602537121046 -0.5322229823718705 -0.17087114522368638
Ni 1.7066717474568789 6.602681999958719 4.802308218040695 1.725681504432299 0.21803649005557932 -1.1134614754104952
Ni 6.149047550073687 5.7573914848230565 9.2839961546411 -1.333120331560846 -0.4977555447226201 -0.6846456910823823
Ni 8.622968014099417 2.0090461749302015 10.071401952896922 1.7912171242412633 0.7085314965610442 -0.30663824765538805
Ni 2.458293902143606 5.601499010461434 6.901050130087539 -2.033907665400097 -2.1941452421693377 -0.24649834494069806
Ni 0.7434493809126166 -0.13743001458638815 9.084190038032864 -1.4579191079065021 -0.8603240278867249 -0.19714473420823467
Ni 1.7580746720405933 1.2342890637470505 11.531393358749819 -1.3212076392836603 0.5039441900318353 -0.7133841966676553
Ni 4.444287030336812 6.651181678624904 1.8874010810941664 -1.2702769138720638 0.29675878375814696 -0.69901352976828
Ni 5.44746315731353 7.99895216351826 7.948430223902624 0.2352381986458465 0.40415222014316204 0.9062285037283232
Ni 5.6525833970918145 2.961729485761301 4.838446803900648 -0.6225836316443148 0.14949602198201997 1.0585249712736158
Ni 0.8247166037840435 7.431381238267875 6.713939116082316 -0.9190433961048043 0.6551515382780072 1.0373550220642198
Ni 4.972304642867505 4.5597888922156935 7.1280957922480175 0.4937999025089818 -0.4492066892796392 -0.3889567433496463
Ni 8.165884253234 7.233177822619126 9.431851461385888 0.4803340068120631 0.0901189655752835 -0.3522845847395933
Ni 4.722061226728375 0.29097986982834906 10.4728107401702 -0.6729109191439572 -0.6416159656854176 -0.06104030304177229
Ni 8.014478613472194 7.133575555153798 4.790160090608977 0.9561336160888824 1.7904074838557744 -0.23264189867357998
Ni 7.1683234953203385 6.388205845436798 7.101721759820406 0.22856412905978057 -0.7896508297408787 0.28621546102466194
Ni 2.4542257174253126 5.1586948509897566 2.5217166288692665 -0.29240179234103186 1.0453922905463997 2.9559479393496964
Ni 2.4284332442896455 5.103287449278414 11.651902637255109 -0.02042278663072612 -0.34164741674072124 -0.6661800281780269
Ni 0.9339441780906841 3.5252777317152986 4.028022543028478 0.21688926382501353 0.21999181400973722 -0.612740677411964
Ni 3.6788858338972976 2.6342542675652654 2.5052928119953695 1.377550536849763 -0.3718990165364111 0.8340848916845378
Ni 1.1865993815907716 3.2873207794904764 8.210800834979397 -0.7204930397982947 0.6297786067308573 0.7564224067050521
Ni 3.5673884491460432 2.6483245440182444 7.24415646070789 -0.7167896228047784 -0.03166647786534547 -0.40057375876328427
Ni 4.222466300719448 6.959034958895571 6.094809637705301 0.3066775855337557 0.608731556252571 -1.4225173313684403
Ni 0.892740838772722 7.276872128732159 11.564188206208204 -0.15240239699553754 0.692519180293188 -0.4067847726700027
P 0.1663741932431847 5.688114030515119 7.930860580505163 0.8796206713328077 0.9876136889750345 1.1973660846449508
P 8.302764562323775 1.7514399815268666 7.861914405668692 0.2882754288774842 -0.7036417725689107 0.6829235661849529
P 1.7585115240908797 3.2009423876306973 10.47896489342861 0.5764058475366718 -0.6343811384998752 -0.009246458298932463
P 3.899878364835993 6.054059532389511 4.099619863745126 -0.25590446874594636 0.2838284488497241 -1.034789832440205
P 7.22278438425606 4.05731802354238 10.449007764080212 -0.3244948162208347 0.3176402551928465 -0.5103835178992758
P 6.157010998907035 7.664277987576877 10.376797940384726 0.944879640441618 0.7529159362136904 0.07933935846127627
P 2.3890437510888107 8.81174270632948 5.81388282568417 0.11376591557026212 -0.9437707236481552 -1.1124816279957292
P 6.8798464236967565 3.961793041879727 1.632569808318589 0.4553274574653965 -0.1941529985697624 0.11340647534831437
Ni 5.229783421089506 3.025728311128277 0.40349657603027195 1.1076417834049248 -0.3305047698603405 -0.06053816659437316
Ni 1.28743029544753 1.1640559955791108 6.904819799238137 -0.4557221218006539 0.1982017147178393 0.46384089425304637
Ni 6.7774774265796145 0.6255257204799598 9.240038827189457 0.3949931793517133 -0.1947096424041808 -0.2024211521158256
Ni 2.476386857892973 1.3067792008414705 9.161155178317406 1.900161450053166 1.0793791890148057 -0.13534518440293464
Ni 6.220418253789249 2.078915199722902 2.865182452322665 0.6551852197294199 -0.6776003541998266 -1.8951627112869942
Ni 4.0666011296109685 6.798136888124415 10.53907937598179 0.01927736017237325 0.08552234734353659 -0.31203705007345617
Ni 8.369439106498756 7.117766971584055 0.27815553182712527 0.10427828779480106 -0.37341571029125364 0.15342363917120028
Ni 7.805881759460378 4.113380703329151 8.237668146180456 -0.17627637539965768 -0.7286740329471902 -0.4116567560503233
Ni 3.1377444576892466 8.75585294714595 12.533177019816248 -0.03559512349579031 -1.2266483785488358 0.27646635205769804
Ni 0.19740707076541367 4.859505803049772 10.386814593854421 -0.036831567006052696 -0.19219767461560447 -0.6530972268521398
Ni 8.665825020449402 2.521000373528484 5.741753091531237 -0.795793709413823 0.25421525396898154 1.5301995026384678
Ni 3.9779019612340427 2.5696911749666693 11.13239544872906 -0.7223123523952205 -0.5404913930282498 0.641570714269779
Ni 1.2821607675909488 3.2184983794015865 12.940873746288338 -0.6035093886216831 0.6848608924169818 -0.26858720641993744
Ni 2.988750605288399 8.101794417023212 7.786707594886552 -0.3402741905422785 1.0482194755825496 0.9470635354668142
Ni 5.650544754190477 7.899750343765696 3.480156375571329 0.5195464153454665 0.7243972599487073 0.8979935174130406
Ni 3.2322137135637075 8.547456316990516 3.3668533356788903 -0.7780695526611826 -1.3156270598720892 1.5094522427887873
Ni 3.4320007178947445 4.153389070267892 9.425497994379535 0.00311514859021399 1.005498025454623 -0.7774702285142868
Ni 7.202388854158307 6.031452438787184 11.455227293673925 1.1084997605298457 0.31401834216954305 1.2013145277697375
Ni 0.7303856843921733 0.08258141945603883 0.137766754708484 -0.2082832673235574 -0.014457570186226714 0.38626942632547023
Ni 4.734202073292588 0.10975725741761304 1.4760020334958988 -0.6290694964789747 0.38135399130172387 -0.04032621042287248
Ni 6.063397244964386 5.602536534080865 0.4446762525288436 0.40586997416521714 0.44318310879337863 -0.12095703400206265
Ni 7.6999633394346585 8.741473233824017 11.843222902786533 0.29998114735018655 0.12371351370127727 -0.6668963375187611
Ni -0.21614529339739125 5.166885826932628 5.75170330708495 0.5358307543277869 -1.269495041400717 0.6951923562499769
Ni 7.966188259746771 9.025927626151212 2.688887166995786 -0.25234400508819765 0.27463521238623023 -0.5641378288025962
P 8.40516086269406 1.7902561064117004 3.7778401041547003 -0.4118516456699488 -0.0020229439672997417 -1.5028321663691087
P 1.7381341961618897 3.2062028144028973 2.047258897920577 -1.094836146999824 0.10754358880963413 -2.4751225947235116
P 4.713387893313311 1.1353602765259148 8.331656864799601 -0.04423711544150446 -0.36249392117242735 0.24750698871087048
P 8.616724670214072 1.6343727331344589 12.399120777209887 0.03974205578462833 -0.3018246283168286 -0.48220962656822114
P 6.607250744317965 7.871837317969263 1.3220935955293276 -0.8284140665520056 -0.12202301337273178 0.13481348026918075
P 1.6175903335359518 3.3691395280753897 6.103947126423794 1.7185739468532404 0.018171528702704186 -0.2570792057803379
P 6.852242834769277 4.297468337103016 6.134263748605241 0.5569819344841053 -0.8754310587314923 -0.015776803218282506
P 2.5041542663393095 8.461068824046356 10.239877586523674 -0.37407982623781383 -0.24209250256351855 1.0068884780442464
