# total energy = -340861.14391112607 ev
CRYSTAL
PRIMVEC
9.36649456657382 0.00000000000000 0.00000000000000

0.00000000000000 9.36649456657382 0.00000000000000

0.00000000000000 0.00000000000000 13.70881157796442

PRIMCOORD
 96 1
Ni 3.3314653148096443 1.5262327750217817 5.302925028374779 -1.009964802976725 -0.3694479838927573 -0.762720323898622
Ni 0.7568726824317265 6.372353877937745 5.031942046052828 0.12683946092476867 0.0073664676674002165 0.3073098198011159
Ni 6.2867722198094445 2.514800679567606 1.481675425138654 0.07464015321339404 -0.8808841114262634 -2.9007970052091654
Ni 5.201757523784239 1.703165851747577 11.227913597127746 0.022588169713161098 -0.019125407975541256 0.6378945509697723
Ni 1.254482676819267 8.534899441067886 4.175416421153725 0.8208277695643154 -0.14694265943254695 0.18512688381175213
Ni 6.988669200783554 3.1506545094568246 3.5553526273017924 0.4504235924058759 1.933703804784986 1.70706466066206
Ni 6.482569415991341 0.6504327782176308 2.6807580983099557 -0.4488755311924656 -1.2396735871639102 0.21752201231300605
Ni 1.2176067888854682 6.756127247587613 8.936773560890998 -1.324070562653752 -1.1600948589983184 -3.6310905760376495
Ni 1.865168736609904 2.6295027683756573 6.952725279029439 0.24000810923066407 0.3774621124464854 -0.33418376137382444
Ni 5.96389979589124 3.4049173628606595 9.672306559431547 -0.5889536022946954 0.5670917692245976 -1.0209413565928869
Ni 8.215324023132078 8.170093222311069 8.840456027032518 -0.44290517254164363 -0.1547125331859529 -2.124814416983998
Ni 6.219998482171636 5.4468599457938 11.519993671139332 -0.5279477520352843 -0.21042139671248275 0.3459995230618299
Ni 3.690042814878126 1.8684282766152283 13.688330537675485 1.7326905887602804 -2.478004801367313 -0.8341589394555827
Ni 0.6013973074248894 8.225608433838532 6.819297694880455 0.005265876384629642 -0.2870652106194669 -0.11896571460364673
Ni 1.9797677939810054 3.330172738600636 12.782437868086546 -0.21577391927364775 -0.06044612110119912 0.7510261753901453
Ni 4.027976561579554 4.071380896018269 5.753574230449979 0.0028924910564466313 -2.9873897027987457 0.7786814752135686
Ni 3.4113896103999672 4.873134072385375 7.992566309848671 0.40309755362640254 0.4459943529899287 0.22066570014831027
Ni 7.793710016638789 5.179268571046355 13.164488739440499 0.5277713743584201 -2.4749367039649504 1.9872485707806615
Ni 8.763994524373139 0.4075474054013461 4.882762828493058 -1.2529193964302228 0.610845003051148 -0.9461145412899835
Ni 3.1667367801152784 5.98010383097518 5.1030908731633 -2.2663523604612066 2.174476045875184 1.3328408526472142
Ni 2.531782133675804 4.54072655730217 2.7811612969682136 -0.044756992500716464 -1.9685016291904616 1.4602719244093947
Ni 0.43833881865853935 3.0803589699741836 11.108578840254657 -0.04896691681700599 -0.3882507184215572 -0.6956772663061955
Ni 7.562423173674783 3.460872799618728 11.394928493072973 -0.5746299865831717 -0.04745510815816988 1.4211939845713266
Ni 7.0342278289039495 2.032838350504476 5.572864583235256 -0.9025556828624263 -0.38695539664890133 0.9139875788484517
P 2.9802592457302146 2.498212618218671 1.8945710987671271 0.71599720881047 -1.0643649749941604 1.8422836038997756
P 8.187336938258776 6.4054176027043965 11.669899728654313 0.8256984673930554 2.566873696585579 -0.9103265850570966
P 2.8018462629100473 7.324476753286106 7.1239073282745755 -0.32825351193231855 -0.6202660392547318 -0.2232866827109251
P 4.797743160020848 0.9589323166813237 6.615775950875596 1.728712577949139 -1.2997643818082194 0.25595897613296564
P 0.20698266363694925 4.654885389442668 8.890219274429898 -1.146206016831368 -0.9261059593785406 0.17134294265378233
P 4.417856885492271 6.022646447941223 0.5967449697218877 0.029300548736330187 0.8661581180699987 -0.05771663798517802
P -0.039120099960452986 3.391607574505585 13.451716032771742 -0.5605848213440152 0.7765654573118302 -1.1464322739095612
P 1.867604025119629 4.065686067503219 5.261908213325022 -0.34666569589091906 -0.6155364949895464 -1.3828760628277343
Ni 4.134248805546249 1.9733892113843794 8.404351117256939 0.560052602989629 1.5426433848287755 -1.6807221661127891
Ni 1.7736487211155818 0.21980820423835906 2.0851652073830533 -0.19887200131198654 0.21885204397833924 2.5728754226949686
Ni 1.7297760619634577 7.5998235852875995 13.323758481275371 -0.15815112655385663 1.3164333578234684 -1.2397597191198133
Ni 2.327901652940474 1.1627565984510448 11.609882043332137 -0.3235298812044041 1.0113549984560326 -1.7680373436906904
Ni 6.560920140544611 6.542589911261796 7.111404931725418 -0.2553336838441409 -1.4296179469689636 1.1123579579336713
Ni 7.803666600045857 1.7047206897960938 10.017905845042048 0.7665350696590219 0.3693438542147252 -0.4070033164387119
Ni 3.4386929411916927 8.383639925131153 1.1097665937782808 1.3926287713391243 0.181847441729532 -0.4018649667708821
Ni 8.295538680044714 4.369216680757647 1.5467107414402892 0.4498571783794446 -1.5011848605736726 0.09037453322951533
Ni 3.7211676753312664 3.970353888841751 0.5122460783309883 0.8143555315764105 1.805246605751136 0.8804375108071483
Ni 1.7768614286495654 1.968247006031152 9.191484132720852 0.22242767714473952 0.3299743512781672 1.0114557856999549
Ni 9.190095081620884 1.3909899642836259 7.769605343639645 -0.228748991377077 -0.786448006532865 -0.5493920379519893
Ni 7.971102051583725 3.5351303661768063 7.884745784379447 -1.0808778850475191 0.3508452811899055 0.9661771163678133
Ni 5.049495792960812 8.10932340749916 7.570882991297797 -0.5963617218333085 1.5744391891831337 1.2353950143932142
Ni 1.334706700226172 2.2695015611784126 3.806018746906649 0.11668488898927001 -0.11875488414442129 1.19768027345126
Ni 2.4569625774616353 0.1621986445925318 7.542025759106982 0.852688365718338 0.4258369042054473 0.16621256340575247
Ni 0.8994138655036428 2.5700161632784884 1.55131624667195 -1.0836274227681981 0.4463113700097152 -1.223711407407699
Ni 6.365844164421365 6.708226995900175 13.94556256976233 -0.1294666141349706 0.8663041567295596 -0.07476767993019381
Ni 4.941678077439868 2.206661751133238 3.6533018044617886 -1.8629056510255013 -0.09239927696902797 -0.12771620710276713
Ni -0.06365656834536 4.4585636695817525 3.8441975141931506 0.9710745536694307 -0.06270226412522749 -2.142393563518343
Ni 0.7973986931818322 5.579133577848944 12.785125115292084 -0.48865975306893905 -0.7434591616761648 -1.252965933397442
Ni 1.7036810089323264 0.6908941601572862 13.727729759165129 -0.6410513514311992 0.004667837789314541 -1.28606940081963
Ni 5.358636936281875 5.852579011513999 9.439037766280395 -0.4241150364183341 1.0593618653526145 -1.2878090092185563
Ni 7.368602307783472 5.58069778239173 3.2489474369564633 -1.0980618530259734 0.359158171930975 0.8467198068397289
Ni 3.318661317145051 7.502515076335547 9.24171289488336 1.9086196081228484 -0.5030574165515079 -0.006883100273078468
P 5.6588330775768325 4.387415779120707 7.583974540336424 -0.5065849700887921 0.479812072870322 0.03731801972416799
P 4.188480807358973 9.330620595126287 3.5599178566081005 -0.07933498758590207 -0.11781463171833904 -0.6840281121030413
P 5.976385332750715 3.3729869839004567 13.147874451907612 -0.1268785416928202 -0.2191045263087775 -0.6352727970762091
P 1.1825199013568908 0.8678928023429588 5.789258700312866 1.311154368812716 0.05650539128589623 0.3636475751608963
P 7.741491811093723 9.156928325417281 6.724446017374944 -0.7813083713134545 0.8556651889584747 1.5143810475489727
P 8.310946563115861 5.508510211066917 6.520404432938201 0.5136048530500509 -1.3986700924371978 -0.7126177508152759
P 5.405900266359078 0.03877166637367694 0.4867326845939108 0.2827879234003517 0.0975877631485029 -0.2624121879574771
P 8.402756939932496 2.1242647010561164 2.6404128608992252 1.4193463898396266 -1.4373875636120534 -0.6434229369871693
Ni 8.593992653405792 6.939139179093454 1.6283875081081878 0.22197336321614028 -0.4944719888753419 -0.35077329030138943
Ni 6.163462322768941 4.664757674401322 5.269036115463101 1.555215050846199 0.18861561369130095 0.6706966851014577
Ni 8.654696902757824 9.236440495259805 2.3607939708620185 0.8604389561980343 0.21266391288975633 0.49116272199645084
Ni 1.8949260888998907 4.79916686714961 9.95611976560204 2.724412386366418 -1.437658557885253 1.977880242191884
Ni 3.0954390257459425 6.910271643758943 2.8032325040617376 0.7373309372912399 1.1367654402437584 2.1195457123858916
Ni 5.951095798226647 8.307293630351273 12.142991050996056 0.2793809546013317 -0.29996880605501247 0.3281228998917252
Ni 5.508472745089844 7.681227786972294 2.2520012032877577 -0.694806690775784 0.32835301362466035 0.01740611129158938
Ni 4.160624853405426 6.349499631923402 11.932944607083986 -1.2757230245882998 1.562833229513089 0.5598829101809841
Ni 3.7859650826784894 9.022762661519964 12.604566268635079 -0.019215139475870134 -0.2419603478610285 -0.6129985590590411
Ni 1.0806218102134324 5.032167778564691 7.0024061012772565 0.46659634551099644 0.8459957841895108 0.486248315413969
Ni 4.044620821894098 4.008597284938703 11.9047589525322 1.3072478346694585 -0.5085523782278081 -0.6147463949880833
Ni -0.172017540533858 0.872660347925459 12.211438581159586 1.7336658081893561 0.7307234592770513 0.9438601980381679
Ni 8.908069939206182 3.4914263039215094 5.749187901184194 0.032937888378601336 -0.6205326626525571 0.944761883916831
Ni 7.049663811457899 1.1018369197308453 12.983834354541957 -1.2028463910332317 0.4327243753538999 0.13128489829063197
Ni 7.933888969856271 9.023062389336546 10.89344638995497 -2.413545959562295 -0.9799615717464155 1.24718352238771
Ni 0.47891634512712006 7.781130814836632 10.663659122723297 -2.337482700749129 1.7960402566615197 2.5545521989057485
Ni 5.570001245937476 4.524859716011885 2.019842339707385 -0.33714490088467747 2.080184179869134 0.2812218644648124
Ni 7.882635513220827 5.598569053455405 9.759207019952806 -0.3723664430911329 -0.016542991960345706 -1.0984711726492502
Ni 6.2644424974741195 9.052510647315684 4.856606893249184 -0.36728800012696095 0.03988552334102809 0.9509327886142332
Ni 3.9742690834458476 8.233672985403429 5.451020542547723 -0.4367332394029769 0.6815369702500714 -0.3843819794947702
Ni 2.3402373258916582 5.844945318685437 0.9650139814096488 -1.3186144246351872 0.25720827515903444 -1.562707502568502
Ni 6.61236092706542 1.4576325710016798 8.065318680777853 -0.5521821991026168 -0.8882631774991541 -1.0956887248081066
Ni 8.069010016168942 7.398425225533336 5.57160385310676 -0.5020947955279225 0.2770368798491874 -1.6673904820008896
Ni 3.7221698902179607 9.693478583075326 9.783621723912226 0.8231060240755308 -1.1012111972882326 1.3159541041942047
P 7.230418417845109 7.644923255188854 3.5135546466300687 1.3402988515871561 1.236468449963051 -0.6887882524958461
P 3.5017013481336954 3.0326554146663764 10.123052236397708 -0.27679828147582003 -0.311102968294961 0.5116279318293382
P 9.281296636310087 8.64251109371493 0.3623962197816163 0.6028257322910973 0.9114799819352495 -0.6147795622188638
P 0.42440896838291187 0.42913811133891255 9.781442140696024 -0.6573955971171775 0.386904745916624 0.5304363227850929
P 4.509948257136952 5.186049912896512 3.8258551084677865 1.928531259445111 -0.5680086246119121 -0.9989244860021635
P 1.0108226949270043 6.242609199335007 2.8754781476510125 -0.7795389381178575 0.5566515477278801 -0.4475673539040034
P 2.170507083258088 6.777773215841362 10.91694317747611 2.6386943780723073 -1.3343626886083793 2.3304797870687346
P 5.964695947904035 8.331721447402668 9.983688168181557 -0.9031997442043284 -0.3412560948395736 -1.3105239343175688
