# total energy = -340880.28183712956 ev
CRYSTAL
PRIMVEC
9.15355045976218 0.00000000000000 0.00000000000000

0.00000000000000 9.15355045976218 0.00000000000000

0.00000000000000 0.00000000000000 13.39714635292064

PRIMCOORD
 96 1
Ni 2.1816205367655264 4.630387435664771 8.966374728876586 1.339452701536777 1.4024647835929394 -0.028282648994777095
Ni 9.280326854523567 0.6197164006539537 3.797246858909746 -0.149945965035245 0.5210474253710251 -0.42088804484060416
Ni 1.3152095511550128 2.2771286793902723 1.9903204914603154 -0.45955743638634405 1.6523847526206767 0.9656775510235756
Ni 7.181033348117152 3.785295068433885 7.043951611264586 0.692327375997356 -0.4191872600994135 -0.43770100263288486
Ni 1.8920388231296752 5.601670645738743 6.448515002474935 -0.6796682924724488 -0.024414681398938598 -0.27001108335065754
Ni 4.2991204544888495 2.3222648353498876 10.22521122586553 -1.6241828362651642 -1.132397650193366 1.9045973743373328
Ni 5.796622957567556 2.007144716699369 5.476029931261744 0.06425958131001835 1.094654112896005 1.3419212176819277
Ni 8.292942549675116 1.1766705691130792 1.4170025213364152 1.471241021826389 1.4752997652767945 1.874587972459436
Ni 4.599539971543112 4.094794907271139 3.994573601656411 0.4488390215275754 0.06989312544671189 0.9515459967182
Ni 6.373891599951073 1.132559610774125 10.10799910039839 -0.23385211693159727 1.0040844329365481 -1.695897845411963
Ni 3.79399094110913 5.789977480133632 0.4532481062891694 0.7541302682367657 -0.10454542541325866 0.69710217167818
Ni 4.0401115984691245 2.968853313280386 1.2905855858037736 -0.6467280901010023 -0.10244277724795905 0.5236069585680853
Ni 2.9746292034467854 8.065934505100293 6.334746442587193 2.345494772420328 0.25310299474140924 -2.319512489423954
Ni 6.43209902557411 7.403894834458411 6.429263255726961 -0.4098125037527329 0.01940514399948916 0.0011207438680045213
Ni 0.40545192864594776 5.683247084982726 11.615124730786029 -0.06469101242048214 -1.4880259545942116 0.2714997520810421
Ni 9.03743740037869 0.7734145771563856 11.551448058927772 -1.351203414314802 1.7157164227997874 1.178881395577202
Ni 6.892485985652146 8.662562906123961 2.626054689582071 -0.15916439830971943 0.543994778195818 0.2186134456049719
Ni 4.724147250204283 6.247298000899871 2.9004021496459105 0.9170168525930789 0.4759680165338835 -1.2943393541379062
Ni 3.1007193572378418 3.455364505584896 5.982482132643119 0.7039179090484329 -0.18440671781627596 1.4824937119220727
Ni 0.25508472905564394 6.057636441077681 9.075883226508477 -0.16546437238581824 0.20064323427979638 0.7128110977730047
Ni 6.856274541122388 5.157430548186109 5.05976674449292 -0.054080841004803634 -0.24613299118147933 -0.5291721113606886
Ni 1.3942046892469775 1.2045980507258933 13.396931925819242 0.0725480465710557 -0.34229996272305563 -0.41263300392066354
Ni 0.5410681821139803 3.5524104446406333 7.894281639911025 -1.2629189308450959 0.7567682200802451 -1.3634588346433871
Ni 8.4254401885953 2.2360383926121927 9.528171125383295 -0.45392389224965046 -1.521611503859141 0.2327887086640894
P 3.251679706880099 6.477583016440734 7.953550877355459 -1.4842171223710825 -1.8496945516518661 0.3154568743882825
P 2.6383643838701443 2.737433257516649 8.060191567714558 0.795633529686875 -0.01463677607656834 -0.4370757103440602
P 6.842361144841996 7.211450595380141 4.213094474500195 -0.01408116068341446 0.30061286739691456 1.5452504834343193
P 5.147855934693155 3.950113893055428 6.204245192962241 0.5429899910803875 1.7634132146551178 0.4236031297789221
P 0.29440105780797377 4.963997725687916 1.8118967451995966 -0.31014728924991103 0.4369954919254281 0.16347639542151202
P 3.015179430763982 6.264479214596119 4.061719469034581 -1.5637380007155457 0.13216807222653365 -0.595431239599239
P 2.5556529044032854 6.2793171194451425 12.198517098242954 -1.0671222260243234 -0.2875179818861694 -0.9824848523889015
P 1.003073489864631 0.2458680193749024 5.835703124725126 0.5833969341425244 0.33957202226893135 0.18393414905523164
Ni 6.2721224290001505 3.388223214981818 2.4072930783684354 0.30670046835189113 0.9280687395318661 -0.4978123661024845
Ni 4.2143951939814075 7.684844750270307 12.161098300443868 -0.0918842850058224 -0.08295844327110229 -1.3000274056616192
Ni 9.050005224781966 7.323371053485641 2.489458090889282 -0.9487918310118305 -0.1831885291384587 0.05342906635341767
Ni 8.49977616964337 3.644714844700815 3.3358090712705324 0.36912299645317076 0.3917926701365446 0.3720136877374045
Ni 5.1534212932053105 3.411775299606456 12.705625609172557 0.26969715165466457 -0.36835192261510113 -0.7307198597326255
Ni 0.914425933103144 1.2133488447022454 8.00705887031379 0.5889417752201535 -0.32511882295807876 -0.41863884379511124
Ni 8.21164987048685 9.016448309805703 7.492568021160414 -0.9269510809876552 -0.8083172958021305 0.23626612568972857
Ni 7.756388898512115 5.827763335295119 0.3715975232886904 1.372020093949837 -0.35994621504990915 -0.23210376678192285
Ni 5.954237938193922 7.501132998068022 0.7259387737696203 -1.3653483383566163 0.2539416885926207 0.15094509572372067
Ni 8.414373546422278 5.952919826967359 6.94270876944927 2.3204879659633457 -3.1416965159058474 -2.421822083528158
Ni 2.579964733693234 0.3515210416690952 11.462330009686804 2.0733794982424745 0.6335717552247024 0.2243359499110459
Ni 1.4743165604614474 3.1545788465232554 4.4668629230393115 -1.278794978645404 -0.6261780338637926 -0.4329501182114608
Ni 2.6732943313740765 0.6397910515635119 2.8000435407784146 0.4802309055752955 -1.4838617959141929 -0.8006016723254277
Ni 4.006307537637881 6.007236993761996 10.171823144414617 -0.5824859922924808 -1.7260046920996726 0.39503714521577127
Ni 1.89419906097321 4.135683815945161 0.326276465615349 -0.028999729666459733 -0.3476563419389625 -0.9018303746606275
Ni 1.770864125787679 2.232212208635085 10.183023428420332 -0.6193301577040237 -0.47529078796120083 -1.5785146448040879
Ni 8.620191122320055 3.2950492276541117 0.6502746125897838 -0.9693411159180917 1.1120221718608074 0.651248089458543
Ni 4.682773203370486 0.6654045156896922 12.884302908773385 -1.2383111595987448 1.5612455733109951 0.1177308137552811
Ni 7.342977957980772 3.9152297133024176 11.847578222365593 0.4700951026928743 -0.24688606729741994 -0.37642390098995815
Ni 2.604981386347387 4.688915235544264 2.485706050668668 0.323999621751971 0.10385019911844696 0.409948515109965
Ni 6.157721358794661 1.4627922407792013 1.0366322355509299 -1.4316110661395924 -0.3841801478966093 0.030945283428604774
Ni 3.371243379389629 0.7698456079394612 8.499926287866396 -0.16951488830610806 -0.19380204298824685 0.2097886482244903
Ni 5.332602038066286 3.250041221397079 8.455675280209618 -0.052445619394225804 -0.4753368107077878 -1.2000225484311913
Ni 1.6032992361107954 6.479816482685745 0.9376658816664916 -1.006023044720158 0.4901062557074784 -0.25760679614903376
P 3.1889961952168577 2.6849559543090895 3.2981358047763147 0.008733780328572057 -0.8879237918818644 0.1610528735816839
P 4.552875172702691 -0.35349363173384823 10.171742593172993 -0.04369204157131185 1.0611786068463789 1.0951076554936559
P 4.639568446499793 8.803582500265886 2.143087751908987 0.0007685027349083539 -0.6363711723467105 -1.2785797773108045
P 7.798641686163622 7.008250934835121 11.898568073668176 -0.07202045620235983 0.6424294627256485 -0.2805207246327298
P 9.08700387462759 4.2686574394749375 5.567532480325766 -0.6625388318810137 -0.042096929170050076 0.5024182403056121
P 4.832433748886548 0.20529490818224502 6.324310480021881 0.3363632855236465 -0.4580695389869079 0.8299222756664159
P 5.752868987685796 5.019523161106903 0.8755059530738016 0.482387289796666 -0.2167339691940719 0.9069278437881929
P 7.145902022509161 1.7489779872966142 12.530671973786772 0.14831948517541554 0.6421839223737456 0.15556459677360304
Ni 8.649409254508878 1.9146389385351283 6.041174696425932 0.19595945565088185 0.7525693515075491 -0.48440869110206897
Ni 6.516915821583396 8.923100405024492 11.79167199925893 0.15665011652829797 -1.5492236091494545 1.1932911432446287
Ni 2.5985464405677057 4.049255995103408 11.144388766869433 0.93762193043794 1.8834623921309304 2.1089514818098127
Ni 5.809419620725443 5.917733580058261 12.19972262080225 0.1287418201538041 -1.3554915001671946 -0.0939103142969157
Ni 3.210076821291689 0.9211309086132673 5.030480876032731 -1.4223967466301761 1.81205231581906 0.765891522537752
Ni 4.3225169287603515 6.175872848810462 5.570573289697046 1.610120701745143 -1.2466068239486339 2.020056618449618
Ni 0.9460926399663134 7.910891672075762 11.916774484985085 -0.13315897538489327 -0.6055559867380668 1.1572234509877941
Ni 1.5943287569300162 7.894461049494641 4.142370484354916 1.3105393609365366 0.9607942547893453 0.07364847872408607
Ni 0.9393098592796221 5.684720806562427 3.9383726342338097 -1.0683314158410764 -1.4608576217095357 0.685277154018794
Ni 7.314611105959103 4.612547166355242 9.449435948116571 -0.8299461869258158 0.39885497629996475 -0.654191745467899
Ni 4.673692881587493 8.396194595755922 4.3198825370172615 0.6207224100658599 -2.0002447259300133 0.02714159341179842
Ni 1.3814904080407504 7.996202759795009 7.626793850355425 -3.059534600394111 -0.6817138621475678 2.3112397078922
Ni 4.645774553524864 7.946700360397403 8.150743062914414 1.5990233062804011 0.7754524267533097 -0.10883145438312224
Ni 0.5034864511216073 3.0608007248833737 12.103906003536288 -0.015576257171702206 0.04534011869769611 -1.0122602838791213
Ni 8.13951074148305 8.394254043116815 10.08553262682563 0.3739268455997173 -1.4083400114267939 -1.631842409692951
Ni 5.48066986585025 5.631895668447857 8.008813605884153 -0.15229389644213126 -0.2113883886114424 -0.586777420578983
Ni 2.2136762695115357 7.475255911696529 9.869409068775159 0.2971236232967334 -0.26058104828600925 -0.28073309775385197
Ni 2.9771281226471458 8.403288597148885 0.7453324005454541 0.09002306342736754 0.19715116196613788 -0.4516152987211319
Ni 5.177046606231425 1.3688218945854458 3.3637154997179217 -0.608593745123126 0.9813358263861228 -1.0869554587001669
Ni 5.957450834308672 7.054970654976649 10.15831891182747 2.1649156558802587 0.9542507972438727 -0.8398467338689793
Ni 8.11963838403257 8.510577358861042 0.22503545451007015 0.39393362773894736 -1.8018401511727484 -1.0766250233084362
Ni 8.994397407411318 7.566782259991031 5.644392095159694 -0.7938227017303813 0.7868259586975739 -1.6130784988218863
Ni 7.09622570565805 0.10337104223320476 5.195869051475748 0.3685151876658428 -0.12425061715166989 -0.9388393477848088
Ni 7.114926408684919 5.868395944563974 2.675316350609826 0.3787353227319542 -1.4535608309378063 -0.8032193124539327
P 0.05593642982226963 3.982746299463059 10.202287990138565 1.695673130995667 2.1501099583259937 0.3636671155449221
P 1.086938316654733 0.15621082602806863 9.928571209682437 -0.48965579843362117 -1.0168270773141972 -1.404379484117149
P 3.076526524100291 2.4640899419080453 12.677866552883138 0.0653651556693713 -0.5144744001391979 -0.49759896454009783
P 0.7844903728795927 8.93149421054365 1.5301550472967433 1.8979798690208154 0.0889388292242533 0.616171557470384
P 5.341609131447802 4.1485811681550775 10.52404717873788 0.6795111980692943 1.1362761593121657 0.1704767379987451
P 7.4117394269665 6.783558738456969 8.332649735020322 -2.3574097786903594 2.537865225168371 4.1596636203617585
P 7.349092529503997 1.8355431113911347 3.688394670826081 -0.013463838814389716 -0.8898891431383512 -0.125082626134662
P 7.201885135437371 1.7395864448073495 7.83530714678253 -0.6608084794534683 0.3282694527719185 0.040908051068271487
