# total energy = -381170.8567505099 ev
CRYSTAL
PRIMVEC
9.18150978036816 0.00000000000000 0.00000000000000
0.00000000000000 9.18150978036816 0.00000000000000
0.00000000000000 0.00000000000000 13.43806764479671
PRIMCOORD
 96 1
Ni 3.4990733815213075 4.690695629804548 2.3983728702498515 -0.04983543546488837 0.4255975345011315 0.7527824959596197
Ni 7.232725156704352 3.8035138831861817 12.847061390358132 -0.22927735307672129 -0.7460055822471023 0.041686323995192724
Ni 7.964436398024108 6.784897016626415 11.479375428465039 1.309810453190312 0.19886814465724462 -0.5714119938665062
Ni 8.093932412122708 5.011148684545709 6.70617383352355 -0.20968888942183242 0.432326625694849 -0.6371946966892704
Ni 7.959689557461929 0.7015802806371573 7.239759111355581 -2.2414864504574625 -0.23641550678339926 0.2469724563636392
Ni 2.6324673983455793 3.1673454327562465 11.681349362706362 -0.8314029739770004 -0.9307331737379066 1.6087104516611777
Ni 1.4270453408457906 5.104983714614321 3.579376702459281 1.7890615113508415 -1.6579347359046284 0.0836500700214882
Ni 8.988955168102972 6.9572247739021265 2.4494376732569547 -1.4767688936231536 1.114302740364868 0.8239287770871423
Ni 6.126279774756386 2.198255437288361 8.006239812104576 -0.9926463663029356 0.4529604998951166 -0.849952969065046
Ni 3.3002294239678913 0.4692265667978886 2.6126289101391946 0.07203793970385658 -0.8010613855706655 1.1106409752425646
Ni 8.326022616630961 7.681370451153728 6.194801382329972 0.5169097490535678 0.29458028804958947 2.6792463313527404
Ni 4.776405023707727 7.569952829834492 3.5789332355363537 -1.0025034616026733 0.46577873470570746 2.4650330716979933
Ni 7.9222381790226075 0.4632062508276353 11.981287251969508 -1.2765141530310273 -0.5347400923667693 -0.21703298849172942
Ni 2.3632563497504955 0.4698784539930815 8.154326547228903 0.08876425131960197 -0.7205292923528688 1.3803370984559646
Ni 8.952412759133004 2.262241379024971 13.256747702460432 0.07256861539634599 0.030147984338290013 0.19516781298752195
Ni 7.981036567727048 0.3572286740598324 1.0308687022506304 0.09033673801304443 1.2221420060380501 1.3673316873352321
Ni 4.595281380051807 2.472828487601651 3.550297024647803 -2.0160631810195087 1.3311518949805654 -0.4040691735110525
Ni 7.7435935430103795 5.780412300912493 0.775353711811452 1.1949502761146065 -1.294028764876023 0.30899543503365495
Ni 2.4751055020299306 1.4491452349138088 0.6925456750023712 -0.25940296881750813 -0.19737150550706006 -0.5520279329129396
Ni 3.0967120779306274 3.891729829262426 5.285434353602527 -0.9317487594866147 0.1652489139409025 -1.2268057300623065
Ni 4.5583074401216415 2.979317293737157 1.208142538850995 -0.18940699924434476 -1.0493530749663604 -0.3220214149796776
Ni 1.0499240076718042 5.7499480514244645 6.152135824480086 1.418395853000899 1.709983891191384 -0.1425437590339029
Ni 0.9648665009638183 0.5668269340319732 12.355268508794818 1.2671429962287724 -1.0007635960934314 -0.6516669221635164
Ni 7.066659189106409 3.0669639862063316 1.7608299478041365 -1.30012099381669 0.07239249482979791 -0.5631176150681979
P 3.4533953703088476 6.060824791453145 4.467028542378969 0.08619829036463864 -1.0526790540158 -0.10458039241625214
Ni 5.651182550597845 7.73093224100797 10.334075733381619 2.246993753428937 -0.06835303465310165 -0.9749625758699273
P 4.576541918567459 0.5845995825352815 4.611931129907622 -0.7112262697843881 -0.7792234637599676 0.8290360164067206
Ni 6.599549878466429 9.006638755961303 5.2959829902019235 -2.723505815391748 1.323170676547302 1.5664034633628507
P 8.67615949252788 2.0861767472641404 2.6497717898495234 0.728005803235572 -0.3771489520814408 0.8457808399652272
P 6.729514149564393 5.764583378032035 2.7519417945068123 0.43850627214299964 0.0439308970549953 -0.5469134945045098
P 9.217042234342156 8.69308101507352 10.485387932895682 -0.2810740260330385 -0.06315632094351059 -0.2160621399380279
Ni 0.44446403489034997 4.896315541584054 12.523553647309356 -0.3647876023026104 -0.7487391791281814 0.17925885506674935
Ni 1.78974252213741 4.832072517573283 10.468160666073985 -1.3867936527145859 1.2768280847270204 -0.2688247763520403
Ni 3.9028761821492455 6.704099730461661 11.158595511975303 -1.6870671344942105 -0.28194871532850796 0.3215565595281171
Ni 6.917055668564536 5.6901305151331725 9.601378397910262 0.5531260510731247 -0.20021283161059714 -0.46054525422091
Ni 5.820094786231137 4.455529619516159 7.3932353927274885 2.638207925354192 -0.19682103232022877 0.8883464812415798
Ni 8.628323826514428 2.5186625844805657 10.728993586984371 1.258340053225162 -1.4190185741865626 -0.1356408612664825
Ni 0.27139992052936485 1.419801129620337 8.544434207851916 0.9653656762101116 1.0506486538493325 2.1438302959648694
Ni 7.785149056326479 7.807349947002203 8.932566007567807 0.37284132584502244 0.986394986076585 0.36446055798049487
Ni 2.2590003060685895 2.7368428016547743 9.385804811365846 -0.22921564660085042 -0.5005619038231638 0.18852588219097208
Ni 5.663935667698168 4.581646838011506 4.155225388012332 -0.9678429341060105 0.6443675602886257 -0.3484040187382645
Ni 4.199622578608885 1.1536016162368492 6.79823775035339 0.2825215571128425 -0.9120124573999518 0.13276765348374553
Ni 5.823051232383984 5.434636642166514 11.806485077805002 0.2082213037373704 0.9204474755411824 -0.5929434401803788
Ni 1.0196433883796046 4.212394058728791 7.972644667777664 0.29216730773272265 -2.3911038285086947 -0.3859413535620902
Ni 6.308771463371231 3.44055043811061 10.453513403503687 -0.8756172066003693 -1.0666347448649436 -0.7003173361813682
Ni 6.829142712311409 2.5040180763632045 4.188108047179428 1.2817118951818829 1.040592298054595 -0.1993042037533987
Ni 8.534323529269571 1.3028654209164394 5.180200479127832 2.020298816367411 0.45649473830062026 -1.3458503775330048
Ni 3.798069247879852 8.167063137611601 8.960005867730533 1.676309124646758 -0.04958732400982427 -0.6000646246061924
Ni 3.3433733384779116 5.463861387832698 13.470990888236065 -0.26396667692879056 -1.4334303787365184 -1.7318246412155596
Ni 5.154940309389596 2.928506818551277 5.81164137016615 0.7354843710008042 -0.07392178699013074 0.1755181570773945
Ni 8.538712290949883 5.357208970095224 4.0706728643428765 -1.8828543262332864 -0.7797842213594441 0.9330618218710834
Ni 3.205944499919499 8.829224442261129 12.62521224187126 -0.8792303778729245 -1.1231982430822849 0.6408019544245545
Ni 4.809541092545067 3.1869020486120334 12.289744664168142 0.8350135741463942 -0.4742901146108284 0.14328577940625004
Ni 6.76725015480725 6.626222164410589 4.948864076573455 -1.4938867842503627 -0.04609782279932706 -0.9949256492554155
Ni 1.7114793326750966 6.8299231406436824 12.155726756497252 -0.4243376939521014 -0.02030914387099728 0.916793166618047
Ni 5.967953819912636 -0.3400730230145095 7.978517161440275 -0.8770667945627024 0.0033779153332974083 -0.1655826431312374
P 1.880015126406939 7.498493139127642 7.676590557156299 -0.8751639211130346 2.1459203457246785 -1.1427823358617997
Ni 0.21820225279770789 6.154173201502808 8.688583911577668 -0.21610662002271813 0.9295394105401216 0.3634043488018387
P 5.000589948285543 7.364810356564141 12.933952444571469 -1.6816284799771424 -1.0340917779319159 0.053531396259236835
Ni 2.7657186499488824 0.7487429419828945 10.622443084005582 0.9143657881234768 0.6593897447290709 -0.500896404344447
P 0.4530689458668962 7.411213707050126 4.67397518232334 -0.24557917556053832 -0.13935713377580516 -0.7969730744339049
P 1.8660225054847703 8.280381331457669 1.148842839711941 0.43723074786468574 0.5727564237095427 -0.01909224074476067
P 2.225698970055003 3.5569995267955608 0.4933932187199621 0.10066691629445888 0.9076482668939851 0.026938219151740703
Ni 2.592197296400283 5.841744786319374 8.508998170811816 1.1063135515118043 -1.523579683329105 0.23761055553276497
Ni 6.963257025835108 7.7584400443431525 13.33240426129295 -1.105201292284232 0.8344875264395951 -0.9638957765328046
Ni 8.047529061636723 8.760197851649014 3.7840123563891437 -0.5289692513212632 -1.7880760075091207 -1.55240174976712
Ni -0.011607264678350137 7.559697083397443 13.677399491706657 1.6690938378452418 0.7831179137183674 -1.204672902719009
Ni 1.254460501295919 5.7479923898388865 1.2054835736153913 2.1358148818595604 1.1920721832358632 -0.5501201743672655
Ni 0.8907441724174486 0.1489369429310148 6.47854584277394 0.3593543471021811 -0.9251842188952195 -0.7194085484848644
Ni 4.916019061596503 0.16130535477107608 0.8068187458667485 0.5180482335333851 0.7876548823567725 0.53774854017579
Ni 5.388444466405733 0.12587666293881086 11.889007569659569 0.4220422130497054 1.886007270039971 -0.5328755283542048
Ni 0.5639439399574582 3.6205539375719726 5.408969731544518 -0.22080453971901973 -1.402635761953165 -0.0551938715633243
Ni 2.574017907013213 8.078663561339528 5.312847587386857 -0.2465968181917753 0.038012217577715175 0.40841999428058057
Ni 2.1175866922606885 2.206941145551072 6.864755952490483 -1.7274943892713215 1.847887323239798 0.40514775128721187
Ni 0.7549634148666013 0.41042083288561443 3.1515899619541194 2.192095815839476 0.07123472707627086 -1.0238446462826107
Ni 3.719374527457341 3.534780273100254 7.817366974184674 0.5019567272881613 0.4433682282209913 0.09642176786485974
Ni 4.593757249426426 8.04686799293174 6.319412833219521 0.7965802098708603 -1.28793627882504 0.04683855762009353
Ni 4.165926437674266 5.537543003909077 6.537471854464483 -1.244591850401134 1.5767503538148133 -1.6548350139333825
Ni 5.992009375566233 0.7821379293963537 2.953956127391216 0.10278319130651331 -0.7835195200321603 -0.8871028386424659
Ni 1.966670215818637 7.686787541930683 10.10991559888024 -1.86779768901048 0.19318523533985438 -0.12435397549875359
Ni 6.461964954241562 7.859390744500137 2.1667270508155037 1.2228192346107327 -1.372214212238514 -0.9689852752405699
Ni 3.9034087097171497 7.164056644974103 1.503813780514056 -0.41811922384621536 0.4087591227875541 -0.802963744799701
Ni 2.4437873721312973 1.517106770390116 4.8026044618976265 1.117835436108475 -1.8881903937342193 0.7203729692806625
Ni 1.9416873276761035 7.262831327310513 3.261943446288527 2.3057876836386932 1.2260804218605077 -2.4106377847765645
Ni 1.744734761139726 2.6496092771262147 3.154102941184039 -0.7613823218134887 1.670940918356309 -2.0737785334531056
Ni 5.598480684394926 5.110639524645854 0.5980596758895461 -1.0055993269191779 0.2652763968791496 2.0086298646699148
Ni 0.1786942161651018 3.8771495917136045 1.3976130930583208 -0.2622252687576516 -0.9876895365182926 1.2399805768813676
Ni 4.131449868407374 4.593692978857886 10.181042918932638 -0.1593572310468159 -1.8486486268858549 0.5222581578496747
P 8.17332492728937 4.480989946167847 10.976993511659249 0.006075516770118569 2.1518549660415585 -0.3947918619741846
Ni 4.840749044326203 6.0566839305372016 8.70806982980806 0.781669354197299 1.8586633308093794 -0.592741865692534
P 7.658976748772383 2.8889253298403395 6.230976530908282 -0.9196836007919647 0.6979948586957786 1.1798270473199228
Ni 7.939141338548666 3.7473230432625124 8.678237268193685 0.7321208538452101 -0.8869639990717564 -0.051360356749847035
P 4.68082550677874 1.6423884714944412 9.838277877247275 0.30879103233233274 0.1961620585799912 0.21713171885312282
P 6.572216523817284 6.631694344246293 7.068705747638924 -1.2284592065053295 0.20921015001320098 1.5573475238081695
P 6.405856747906015 1.56775197839975 13.329716833376995 -0.027205870990830563 0.9034689387053151 0.15330485420514886
Ni 6.926007640611198 1.0267498769581862 9.67918526633594 0.6265685844339919 -1.0239215222671334 1.8254184527133208
