# total energy = -381166.0579522156 ev
CRYSTAL
PRIMVEC
9.27423312085749 0.00000000000000 0.00000000000000

0.00000000000000 9.27423312085749 0.00000000000000

0.00000000000000 0.00000000000000 13.57377762622237

PRIMCOORD
 96 1
Ni 2.778866340461558 0.33829713478705714 8.950658063373382 -1.8849582599501669 1.2657903388556202 -2.3982113860877536
Ni 0.3706215474620453 7.46643480963181 0.26075898002418757 -0.6810389475677303 -1.0052411722488106 -0.003722443156909718
Ni 2.620768485733113 9.124343121975945 1.4304048780162735 0.09131967075160402 -1.7345865202314128 1.8941173007416154
Ni 0.589841236623987 3.365786193602266 4.628590837471148 0.006351396139324545 -0.29318366481237895 -0.30495623196727484
Ni 1.618325884704023 7.639093210610249 7.747084237772152 -0.37423023577274905 -0.8381336078326147 0.6893664935968192
Ni 4.547629563204538 5.14097646000846 12.402401560710329 -3.5795350725578614 -2.171785129306582 1.5424281834941758
Ni 3.0413920619256336 1.1761397161349179 11.103254906309452 2.0467631812065266 -1.6669425958301936 0.8710753528659578
Ni 8.932440686940984 1.8420574883568068 12.757084410856933 1.8759997652052984 -0.8002147212996541 -1.3829416259583474
Ni 0.1360029213615742 0.20671616785350683 7.240334566799249 -1.174230784179068 -0.0638191513384901 0.09410057593085083
Ni 6.514258552981682 5.6324088072957 12.100262806636316 3.789601914144402 0.34704673337942166 -0.48309485738665187
Ni 6.61085896682878 7.6471061481643865 10.501081721692715 -0.02375442210712038 1.1709981361743833 1.717883862764751
Ni 1.8819923368615692 1.445481999059978 3.1556589627482823 0.16279556730440348 -1.2647328441253831 -0.08432215638784832
Ni 0.33127654019390684 8.82600958581682 3.3511894778424782 0.6151914529453018 -0.6798151024629583 0.1312213920425482
Ni 6.087588176690438 1.4570284194938912 3.0739993387156694 -0.39655820984598805 1.6707061766376838 -0.8171433787341927
Ni 2.1340196262524 8.483391585744492 12.762024794925324 0.37964575036136555 -1.0869508307144764 -1.796084479635894
Ni 2.361618585183049 3.860158472839345 5.947581568821779 2.4360053170070755 0.6502183626424479 -0.9679187816492685
Ni 1.6981677590137068 5.562981896959738 4.122206571289488 -0.7500887511775405 0.5135035515854963 0.3945283239001528
Ni 8.72163736448087 1.3809704323625498 9.378272556612556 -0.09320634625135561 1.081675698358466 -1.2801031559338663
Ni 1.6116669852088024 2.812216483337342 1.2441096444225523 -0.60171115907068 -0.6742975150788387 -1.30996266249746
Ni 8.64309388283042 3.518959430458897 0.6291380178790681 -0.7075310803209879 0.8257627449720876 0.10344627881180893
Ni 5.074452384689217 6.495719360654459 6.573359531983411 -0.381544252935659 -2.215763077549429 -0.7581740992888362
Ni 2.701899478468752 3.5765431448959784 3.1132543859209894 -0.591440116161975 1.1786566811609056 2.617263461892041
Ni 5.028582026885093 5.430722056150073 10.140779613601607 -0.4205082929036822 0.06203017775886737 -0.8845335352533926
Ni 0.11480851604621575 0.3665056427322697 0.7386602209555405 1.2530811188190678 0.4598258595563822 0.7841388987837141
P 4.1592339476608915 5.205348913206685 4.413296931256737 -1.4175867268360425 1.1716080018442403 1.022703076479
Ni 8.324394130387864 4.709093964613714 3.6609154821630647 -0.38073332699858947 0.25717022283224744 -1.0070082914515626
P 5.127371159786331 9.138235923429761 5.31045565381843 -2.661983687617551 -1.5710029098080749 -0.46233885578622314
Ni 3.0240399714582833 8.309675922172104 3.824045535869374 -0.12552382743713866 1.0469079558599776 0.07196106371933413
P 3.5144614273179755 7.019963945287229 8.70227091054505 0.673218423082047 -0.5451414902057514 0.046180869431436594
P 3.7259881399739485 2.0898742758384037 7.052310616122089 -1.0122471712529986 0.4986963113693347 -0.7061210873473388
P 8.408947315203914 2.2440398556560224 6.9852699660091355 -0.6228823938316563 0.10873992311058046 0.48257266633459467
Ni 5.533424915495577 7.510524514646124 3.894303417507247 -1.4504891339910182 -0.006237239158963451 -0.014142610048969191
Ni 4.851434896999013 1.4903600139031146 8.787284097331801 -0.6063234610317105 1.7752395178660847 0.7801711723852176
Ni 5.054420040803874 3.7642443522549858 3.169626885491669 1.738150069212955 -0.3742168660363104 -0.3010939207983911
Ni 4.990001216439248 0.19588942792214134 12.355314423499836 -0.6699168695126398 0.4205651142835467 0.030129215285212622
Ni 3.0513247657687828 7.026789780981494 5.8235034566119515 -0.8129542803535095 -0.5375143126777969 -0.440968360530247
Ni 7.6257661373865275 0.02630358042944893 2.151117602727872 0.50347367815332 0.18519630359710687 0.8373049412837322
Ni 7.043956386783239 2.9827696333611646 4.97206113958193 0.07457716118594253 -0.4017739497189726 -0.8611984600718781
Ni 2.0064339990159823 1.3204653344421897 5.393907059720788 -0.09510921970102329 0.9154142839926493 0.8154225393883442
Ni 5.889462731124428 1.4377751112040893 6.405126795126308 0.2421488097227507 0.8384521675142979 0.9146712351790376
Ni 7.810091523831524 7.0395789486749605 3.918233721640279 0.6780099309334194 0.6901889894981146 0.6050767331088032
Ni 5.356036655544209 5.382969028990059 1.141640495755711 1.3980987933147597 1.693889813842999 1.6596105809451545
Ni 4.198528874069316 7.11780710639388 11.465579724678985 -0.42403147556559223 0.9779190873950899 0.9980611095606037
Ni 3.575031444871297 4.1701126232986265 1.145484665450375 -0.8074240945638999 -0.30473228888192677 -1.6676663613700955
Ni 4.5704905482403575 8.822550296803286 10.034740812545197 1.1193942959551626 -0.33089660598212045 -0.24930598959282224
Ni 4.086264280211873 1.7314622564898092 4.4660849396646 0.7241414351841593 0.006892613354775226 0.6086783344171325
Ni 8.834245104969682 1.3687933640655796 5.061756886751881 0.7858139724932919 -0.46690796321414424 -0.14910470008087223
Ni 7.32773865092565 3.067128059278331 11.90311764752803 -1.943767616778891 1.9307472932598235 -0.2279933441579751
Ni 2.632212889600943 6.587098381164775 0.407431906774691 0.9624780702496715 -0.09181717921331284 -0.9035913232157923
Ni 6.9927904417760915 0.14858341880623518 4.593611211808025 2.228034181607298 -0.8865040287162023 -0.9205678031691307
Ni 9.096288566303185 6.539354628238042 5.864903633974993 0.5619521340051871 0.23486101781208582 0.23363485871446857
Ni 9.181129252350924 5.2316042676230765 12.332075977169511 -0.08685546433266332 0.18395806031463158 -0.2969403036413337
Ni 0.9667831740665236 5.019159405872358 1.6646200749690536 1.0663830338654539 -0.7528298042577873 -0.35870874309838224
Ni 8.748421350194237 3.9078651288329587 8.436401827983444 1.6018070396731252 -0.6856062552234387 -1.2342470168317003
Ni 3.929483366609224 1.929754638254864 2.0763941777655583 0.2641793071602289 -0.8029933124860558 -1.5447666018193653
Ni 1.5202137708322438 2.380037212477628 7.5041818665057605 -0.5856721033299461 -0.22032348631754314 1.9999109967396786
P 1.606185913340174 2.02001147653827 9.951221704739893 -1.7358972686230363 1.331590782290197 -2.134932479254607
Ni 7.269561385558633 0.8902874431243543 11.256503264455654 -0.6253359975784715 -1.023412958061831 -0.5513388772657151
P 5.361063289982106 2.136931735502399 10.912910542465573 0.433024423092822 -0.2609065499462281 -0.1791351850046915
Ni 4.6177242183366785 8.654306430866246 7.484553879191436 -0.5721804966014147 0.00329743980434916 -0.35325131952823674
P 8.17110032849859 7.972780124033694 8.477190833373317 -0.14111576833812473 0.6249174219838141 -1.129214367369378
P 0.8879113845579538 4.964877318483047 6.888108461048582 -0.9299482159427661 0.18789441925456027 0.7771871500562293
P 5.929277014596546 4.903296409502178 8.28214907037299 -0.7512992265458739 -0.31291739579588046 -2.600700415327037
Ni 7.47749896993515 4.622546819642409 6.583349736072898 0.4514749164885257 0.27242792032226626 0.9694341898525304
Ni 7.940264662153132 5.840819377569509 0.7032734564514135 0.0036746206381098 -0.9272220752608547 -0.08791784415890666
Ni 1.8576752972007502 2.9801172026430125 11.965705738243132 -1.534939074205982 0.6172277666490402 1.7608914766745285
Ni 2.148765657168 5.5401023634573585 11.314572021293293 0.4339752170418655 0.4734586198484685 -0.012070815121605016
Ni 6.9350676138398075 7.8588368939525255 6.352392577271471 1.0451202678319356 0.10522496797878653 0.2481255961314759
Ni 7.070768195196446 1.6183537074038636 0.5890288137886369 -0.09905509172264876 -0.5468589871174905 0.2099961362496061
Ni 9.238777886420966 3.532444165648383 10.634606567921807 0.26620225112752866 -0.051529792448175765 -0.18058323030512768
Ni 0.21921319719864552 7.189339267684459 9.897957928164754 -0.47060906621481524 0.6902249849423726 1.5430969274264263
Ni 7.816917359525788 5.850687161779697 9.389375668695672 0.3386867914505006 -2.386238272886277 0.9333976079439473
Ni 9.037666137738716 2.032698627665654 2.587989635627393 -1.3331131324719945 0.15177684759639667 0.3349144688922619
Ni 3.608094086515393 4.347973869147287 8.110210349897098 0.5858453956830167 0.10116339631490319 0.05529928679293702
Ni 4.22449672725402 2.658013806586603 12.655891396689457 -0.9370994822755667 -0.4656414377968948 -0.29087944215923456
Ni 5.491931995799733 7.22702047750212 13.560719910173916 -1.6810363549190985 0.08970116131157455 -0.7709517106694788
Ni 6.724848568076349 0.353305626504488 8.38779371651499 1.5733516125459097 -0.8423121646903365 0.4469975974434624
Ni 2.418293424758665 1.2034430589119778 13.406481063913382 0.3037956360002703 2.068926604677443 -0.594139517371009
Ni 0.6715314656264251 0.36906811338760315 11.008293249482977 -0.01392972270721472 -0.9257861141452766 1.282599697103475
Ni 6.989331152762558 8.765662149862223 13.243270324377535 2.528660675850968 -0.3753388954558955 -0.19427486885960735
Ni 6.607306935482444 3.2627309133921125 9.212184022489845 0.3503470013972483 -1.8579017700530067 1.6544534622242475
Ni 5.805530919938152 3.3957419670974773 0.3477763286228021 1.148429763955564 1.039528632676771 0.6341996186166885
Ni 1.6450913219508285 5.485866647234448 8.91607166520134 0.08264245469258025 -0.40109517848439313 -0.010874480820658691
Ni 3.32165939165483 6.2035531896267 2.529310634239914 1.1770991068657986 0.2313308931716403 1.046001127774992
Ni 2.243177351960959 7.842310210247117 10.270422265779585 1.2963023914015481 -0.15887052121838446 1.1007178025915818
Ni 5.003448854695613 3.6812677870965764 6.241155568461479 0.4390750001622761 1.0778748365551372 -0.6161139647595713
Ni 6.160418730640251 6.946549114640758 8.459436241181603 -1.2386004087043894 2.0682514329872896 -0.5734336522822253
Ni 6.877066558905115 7.342521778774371 1.867222192939441 -1.570686664119237 -0.4649487826052444 -0.08547272505252378
P 8.196919793950808 7.247071369854024 11.822027461418822 0.865813076025754 -0.35370280524335856 1.431190433662406
Ni 6.305282254477778 5.390091640149292 4.8525988132756845 -0.18348754843611625 0.12773034817015422 -1.1477013704299717
P 1.9820056685558 4.695173340460058 13.276552765350374 -0.5075643032829258 -0.5245942621820191 0.2358123259817616
Ni 3.41279728209986 3.5838883376539368 10.484969596214935 1.1654615226268703 0.029565886582574887 -1.128717116017985
P 7.185620300139078 3.2499510199319266 2.2479127754738553 -0.44041274513709316 0.2858470219416496 0.6306453256065269
P 1.5893439057032372 8.669451253812895 5.897956073962482 -0.20220517945027755 -1.3728569880288357 -1.545089789486739
P 0.1381415595560002 6.621088446136897 2.4897022387466166 -1.4477539944480422 2.3814976728774986 1.0945304428339473
Ni 5.14501075148537 9.169165491419399 1.4732842955875156 0.01250790265902362 -0.3960216206162276 -0.3314249676817647
