# total energy = -340892.2113974777 ev
CRYSTAL
PRIMVEC
9.07135242186759 0.00000000000000 0.00000000000000

0.00000000000000 9.07135242186759 0.00000000000000

0.00000000000000 0.00000000000000 13.27684121576159

PRIMCOORD
 96 1
Ni 6.327767334654519 2.215650648604572 11.746074425696241 -0.2119010665818028 -0.3005994976604759 -1.492289872076888
Ni 4.7565546432306585 0.34387683282620507 6.04783990883189 -0.1513932390047328 -0.9314286571430345 0.5295325800239009
Ni 2.6715949709510616 1.0902405073656605 5.142850934895682 1.4871669490280257 1.5298187222602815 -3.0053550290279145
Ni 3.207194840122677 4.573367749643754 5.0049709116672885 0.27822164418590795 0.21950201885751228 -1.0633002811750718
Ni 5.3598630879065166 4.550988722879423 2.638347556685172 -0.06771771506194789 0.1646318491821939 0.13009730574043402
Ni 7.458720072307295 6.163140428404387 2.4152702973530435 -0.7645180392289931 0.025303254651479007 0.16315012243034482
Ni 5.021946133711915 4.478744471095422 11.220909333373838 -0.2287474487151802 0.18056266147983743 0.9115458021761784
Ni 5.606984874332904 7.890081029217491 12.322461817381217 -0.49294192538406073 -0.21137013377899724 0.8409751910464678
Ni 1.826725478967801 6.581828705788937 0.2179800663289357 0.015220930714812496 0.29080822260166694 0.780017934636805
Ni 2.7153370329930566 1.4701033957954732 0.3545538147887577 -0.0016105390202294843 0.38485660513834363 1.2802198840173888
Ni 0.6282855068132345 0.001908612578522569 4.63746774109982 -1.1300916277680084 -0.7711237174709688 -0.38943034055195513
Ni 8.85204354003901 2.3890404814271973 1.470768325938086 -0.6799017486394936 0.17365282173388158 0.09673312845769147
Ni 6.588069796349885 0.8271023408601887 4.8115007328189145 1.4415380954453174 -0.1299155287469311 -0.1640896035254787
Ni 0.6456743825345744 7.397198159248645 2.4419164883613713 0.5305206549687831 -0.24201536946868 0.190973058179884
Ni 7.60690968771958 3.729804532429064 4.016417545088056 0.6620428660812018 0.7503880275855142 -0.43129304222401205
Ni 7.719213032406412 3.9084013216208526 12.499189907945745 1.288668271895058 -0.3549269074584468 1.1318312361669345
Ni 8.260155928235584 8.953533832474895 6.778146382205744 -1.039302632708894 -0.1559268652090282 -0.25567024124795323
Ni 6.946170509989415 0.7383055920608356 0.20767410268606742 -0.1952187208301154 0.023788360668849356 1.3140370896771498
Ni 1.874576863719258 6.740532018817702 9.206082102002386 0.06433054375726986 -0.6390883141675574 -0.248241809994366
Ni 9.156713987102977 4.929726763591856 1.1940358304869203 0.3831180251806821 -0.12173607825993228 -0.3675273698312767
Ni 6.477607936232635 2.095536869363995 7.218326508074303 -0.15865300589093967 -0.052440991408535496 -1.1687468782463613
Ni 3.511946929359682 4.615359040641763 0.5803996509220514 -0.41069027837199595 -0.7029439751709378 -0.315985750308559
Ni 6.080563906055096 5.69792518374207 4.698169603887089 0.09115409170801721 -0.4234532344646191 0.8900066425528221
Ni 5.203599968716261 2.7771220152759333 9.420556090567068 0.9047516620724805 0.699239272625841 -0.048511574447142256
P 0.11412033660450321 5.869537031463031 12.221916759882033 0.6827402465295532 -0.14552341048751713 0.4497188530293674
P 4.0947450458984695 6.123915899937032 12.432753136070348 -0.8542305133944773 0.7395220314052877 0.7197343072553992
P 2.3243617376778345 8.571956458411334 1.3753476754997729 -0.3842104869139125 -0.1409026238860541 -0.17723025467249476
P 6.533641680992777 7.787611030705177 5.759785458251191 -1.6311191583736813 1.0059541391554354 0.2645739714954863
P 4.836618400920964 1.0670087734607352 12.903735946690007 -0.8853434327491978 -0.2614331118736594 -0.889280820130391
P 3.854236275487971 6.21313265235989 8.142315429946422 1.4217552563914353 0.568068274205254 0.4013641158750636
P 4.462053182385909 1.2396003272581229 3.879492735284181 1.2346928461198672 -0.7221940816498014 0.6013288360305966
P 0.1891168367550616 5.364661833410502 3.458033159692699 -0.5461776447797497 -0.2554128738215085 -0.26712861959654
Ni 1.61128992703181 1.2208135561073614 2.755754444321989 0.15569418037293187 -0.412393891326664 -0.9223557483074889
Ni 1.4476880836209045 6.4803746987632875 4.674669357946402 2.6311993552468427 0.5859605811046424 0.5288306688608699
Ni 5.815870909720922 5.553663463988057 9.31568218362648 0.7355309079680236 0.573289156284561 -1.4227327898133562
Ni 8.628035559934274 2.135831817433374 10.331652806181602 0.9111339114497404 0.7574750163392825 0.20790402960726775
Ni 2.2860262017613118 5.3733340464574 7.065921435127611 -0.7424206931093214 -0.7588526134130995 -0.6311695735411129
Ni 0.6299510071431621 -0.11222170251379611 9.198474865745974 -0.27058649623815334 0.8521574329155324 -0.2404871057496116
Ni 1.6874892885317603 1.1433442052490785 11.397451461210895 -0.29504282950830474 0.43693044301544753 -0.4682734761031032
Ni 4.126313352805592 7.148761026701127 1.4176210855623823 0.2541558614859558 -0.8524425682561191 -0.133722304087531
Ni 5.480004081204772 7.782086576996431 7.871413999920515 1.3858611135979875 -0.37612770990577804 0.7490073451879037
Ni 5.310215575348275 3.1846071722494775 4.7815353339090585 -0.17008593031822966 -0.37412404921218795 0.5569027445067377
Ni 0.5399287186130182 7.088754029519917 6.904408724211161 0.17998879125423842 0.7670454336365371 0.5167562541948391
Ni 4.746576155415188 4.471950028028344 6.90511266116978 0.3432088476905702 1.0729660863996102 0.580725043737316
Ni 8.438135865453326 6.927664950767998 9.54249049026634 -0.6269678767549397 -0.19414708503249142 -0.36835577926984303
Ni 4.973196685057066 0.42337544525205223 10.544560172159255 -1.1040769488718019 -0.38151828479373007 0.3356752583176864
Ni 8.245650835492915 7.064968943108861 4.801516802191909 -0.22504120350818663 0.2713323732652424 -1.117561870732114
Ni 7.252110946411716 6.136643007578035 6.999696932902106 0.04828660292052974 -0.12583493091965425 1.0064542187203054
Ni 2.358542594122098 5.25969721294432 2.564474997116738 -0.4525164703791626 0.48805477249508844 0.6387306737178226
Ni 2.2212839585440327 5.3887553458085815 11.421654736974945 -0.049417374090863275 -0.6917964431945506 -0.41613073266127687
Ni 1.2255397307908702 3.2793211643234046 3.913667241781653 -0.7220837813241823 0.7909006429875798 0.4492853650363747
Ni 3.6342922613299 2.947364088760406 2.8920678449633526 -0.22889168760252834 0.020346681977152052 -0.2491473525277709
Ni 1.19280121940357 3.3815190222589333 8.133114357045303 0.5479133965239338 -1.5015116477854722 -0.06269120838163396
Ni 3.879327636667598 2.3701176399880426 7.176783341892735 -0.95496890635682 0.30938110050784784 -0.8826556015043896
Ni 4.041768346950885 6.872991908891783 5.895435743020454 -0.07872306503351603 0.26853784123924074 -0.541873360977441
Ni 1.0205271629457653 7.820240685861762 11.374549017403881 -0.6007601080113202 -0.5209157848891675 0.3003760687957601
P 0.27858123710279514 5.324493884276956 8.087853750584845 -0.20127675409873727 1.6945516157967138 0.8403897508566429
P 8.66084664214205 1.5821527426106385 8.026833483322735 0.0686800789752172 0.11588116214105204 0.4372826841485437
P 1.8717466017206883 3.2890910110300053 10.397174278583742 0.027521345348720343 -0.48169026372964147 0.7901161994130714
P 4.154216833278669 6.133132394137502 3.6091237936535174 -0.6077244551442953 0.18076989239463706 0.035943250863828415
P 7.031985505202454 3.8419627354749433 10.361299800616617 -1.6761543442364488 0.1807583224304113 -0.02013945106235241
P 6.436169997740758 7.7581019208290645 10.161483303517604 -1.41649040844807 -1.9078603613593208 -1.4393626850605532
P 2.166520203142223 8.214000886412757 5.925547190706518 0.5390670018768975 -1.0782533029404786 -0.9429266304803051
P 7.089298310673487 3.984056401967232 1.4444278395110135 1.0627636919453116 -0.2936842585978813 0.4349815468191928
Ni 5.347979616053548 2.991868144417401 0.6701924342324395 -0.6530612314078816 -0.8915135661156518 -0.4089447564357989
Ni 1.5348547103653118 0.9008107089472954 6.975068210703014 -2.0149434655927685 1.3434921617134732 2.4928837753616744
Ni 6.950642686801256 0.8903423680936118 9.346644524182627 0.004963257542546291 -0.6756342316123913 -1.5038179273211456
Ni 3.055748609141526 1.629804557605786 9.246018731645664 -1.044291344172737 -0.37633571215152606 0.5425158796574463
Ni 6.36441559899497 2.021024779440115 2.7542803495310673 0.45125277317539064 0.5057725014898257 -0.748358141639679
Ni 4.083043001096692 6.9466331489699495 10.448980773051149 0.3653347330553321 0.3651658115776356 -0.8270287561687047
Ni 7.778866246837801 7.206246187870793 -0.003555970203331022 1.3098009401086153 0.585933841631765 1.2855178991915344
Ni 7.843681060875557 3.7525645560008942 8.247268257654277 -0.4675635945202722 0.08496621772975044 0.22972961012279144
Ni 3.139939832246412 8.480381154323 12.491569064660494 0.9424941709285768 -0.799874564351416 -0.3380800111044371
Ni -0.06288533734834603 4.6708303615432145 10.39920535442182 1.2420950521212093 -0.17419403894933227 -0.5485764840292294
Ni 8.575884354069606 2.28888367781756 5.8055776459716375 0.6610766455131906 0.5429799637780585 1.341816316672947
Ni 3.7311289499027533 2.6531347684924422 11.737285192201325 -0.6385578955853841 -0.05184552391638167 -0.3268836281679854
Ni 1.1831039435174455 3.200599966811908 12.751104997064582 -0.05792284045871315 0.6201657662314416 -0.5691123991990521
Ni 3.2094898923202355 8.4547908687526 7.78818161878117 -0.13958390507463056 -0.13046034550680755 0.9973034054589728
Ni 5.682603669269045 7.7367388855514 3.549258309572235 -0.003313380643949132 0.9478297242088773 -0.17960775376573584
Ni 3.108054027999706 8.352384369708203 3.434360558053381 -0.053944829647571614 -0.7570708389223284 0.9224447084768695
Ni 3.33208922216212 4.412070029782965 9.219823386859543 0.46545323304548875 -0.42015759443248285 0.11769430409039086
Ni 7.022124944970257 5.961865257813804 11.593152285653655 -0.1271230536034585 0.03246660516913763 -2.7061323571103073
Ni 0.19183098544086938 -0.04906059604764074 0.6779420907240357 1.450728503695334 -0.10379106374573738 -0.48780871792255337
Ni 4.687131582092668 0.4724614410868596 1.8174799564391402 -0.05061088017833219 0.2080914630277255 -0.6588109894074654
Ni 5.839964422119002 5.371556061355736 0.24919277621572494 0.20185345253781364 0.9982781106674162 0.6499941624467839
Ni 7.690946697830954 8.884899979009584 11.264695845043375 2.077921866197518 0.5661787704920249 1.5281657600378908
Ni 0.008155145951006604 4.86359660343297 5.839566189741639 -0.2742518609048825 -1.1395455740920568 -0.013708350725028004
Ni 7.843000709433593 8.955529530037989 2.612590358227677 -0.05841854914820906 0.22115960906559332 0.6191884899198368
P 8.572119742757405 1.710775450552043 3.772109692225632 -0.5522444197991199 -0.5950610007440138 -1.3659237512441122
P 1.9060181716905469 3.2749034156269192 1.6338086526255573 -0.5243217252469229 -0.36683831418405205 -0.8742882033763006
P 5.0150156203564435 0.8660021149059134 8.282624761390254 -0.42125416993077136 -0.035089644614281504 -0.35099543361452457
P 8.787346653584526 1.4519969760866756 12.468494265154849 -0.06676923510574952 0.7246235170269003 0.23010344852244244
P 6.310214267451851 7.986690933976357 1.3371772381998333 -0.3272703220834428 -0.6509945786868402 0.8813487097675079
P 2.0546069266154503 3.026656781483152 6.0025929094002715 -0.6094226687823247 0.13585477704950152 0.6770776489271371
P 6.769442419424887 4.1456716191676035 6.258450408341474 0.7076472941838782 -0.7816415862831572 -1.0879299067982942
P 2.707499384381633 8.655984397170148 10.00781731256514 -0.9156806502801585 0.4582418028987141 1.5186894451163393
