# total energy = -381173.3079809486 ev
CRYSTAL
PRIMVEC
9.17284681618762 0.00000000000000 0.00000000000000
0.00000000000000 9.17284681618762 0.00000000000000
0.00000000000000 0.00000000000000 13.42538852105205
PRIMCOORD
 96 1
Ni 8.689024835799609 6.750958280983589 9.43904172332902 0.7772396005607195 0.2198437184676472 -0.9711462874476307
Ni 3.8013927552796263 0.7888611411592782 11.600005699433371 -0.6487446063103989 -0.3763534527633389 0.7121922332420831
Ni 0.15958459926928198 4.298441795693742 2.1627627713287647 0.6228803369491274 -0.33254956820451115 0.6543812357708858
Ni 0.8484176824827825 -0.30362672720636846 1.8246846667442918 0.8540978444713548 -0.2923732530959416 -1.8450927912137967
Ni 3.1369209181497215 0.9746975102028816 0.8944800491268766 -2.5484370871469464 -0.12761362008663182 -0.65575703307249
Ni 1.8751133083849185 5.7529158761038675 9.962269150744406 -0.46630246841966144 0.14571264368018774 1.4655473138757211
Ni 1.4271298246020077 5.554305400841417 5.435161130515861 0.3979440344499211 0.5902016157691836 0.4675489392322529
Ni 1.272182099304884 3.5609724450713847 4.345046277573751 0.619784471632623 0.28179959134515337 -1.2279591269404593
Ni 1.2771354364858243 0.5368711194948881 12.661255438595884 -0.3255034599910072 -0.47496297230813683 -0.4005439339666134
Ni 3.9764014961595593 4.4247977580408815 6.0593476598101095 -0.35630990384890254 -0.5214474890229213 -0.34761083341300775
Ni 1.6479844529455343 4.7418388561609675 0.39433700754399914 1.695361770402835 1.4334239509786153 0.8752665081291701
Ni 7.681965522681249 7.755843629450314 4.076726754336193 -0.4854178490928737 -0.25811536035433613 -0.001807485522383984
Ni 7.32557291251258 3.230594027949285 12.622174525522926 -1.419827186130787 0.23187905236562645 1.178194911033139
Ni 8.907274375699826 0.4553135055260398 3.5667770224197164 -1.547939343120392 0.5573449742504788 0.7200649511219405
Ni 6.02940381926666 5.736257986621298 4.7744033789869995 0.3069863750234262 -1.0705294519336594 -0.31135056552939283
Ni 8.480984674200108 5.628798088334783 4.359062387226486 -0.6441163635097681 -1.0842221189294037 -0.18399791241363153
Ni 4.6615764481364685 0.9049123276007351 5.877178594849728 0.3935880714740705 -1.7560200075148404 1.2426077300915694
Ni 7.36055814956463 8.702508920347725 1.620538378539808 -0.012592749063346054 0.7488085989135361 1.103107642979997
Ni 7.78679281398456 7.246145233531537 13.235123400409082 0.35118980901351776 1.5482309062188822 -1.1370361774066418
Ni 5.844460885484954 0.3573401652256893 3.8804342574174893 -0.19452220898372305 1.0552573562659375 -1.1616169520697994
Ni 5.237998130451841 1.9810780326705197 13.315072097078788 0.32305422711956616 -0.9952112988166345 -0.05086747627382853
Ni 5.654280256276732 4.002727565991595 11.077448807106737 -0.34418638111249106 0.7086438537691925 0.08859070185621518
Ni 5.675854791553717 8.488772420990143 12.450369859971332 -0.3137640600668919 -1.1752360855151307 1.0784692756060266
Ni 3.908008751676055 6.192441995292654 1.4746580121377948 -0.09478474648206901 -0.03719203566926498 -1.4508120645480758
P 3.7058667304605253 1.1389281562909532 3.394125703124046 0.6209895476843176 0.16426803808487192 -0.5796840040673114
Ni 8.196965823952958 4.730831440203321 10.989351870774385 -0.8071464154224808 -0.4289548810091387 -1.0687813588943011
P 0.3159632886408997 5.122998152234339 7.581880593086357 0.09944512807221582 1.6003960182582115 -0.6206360209996409
Ni 0.27490195798022926 8.952945979077423 8.108531326864572 -0.9896044941528183 0.4288270971820228 -0.3175813769304531
P 2.229038422809748 5.108330770470776 2.5695656774447975 0.14294099447232156 -0.9181365680198187 0.4997823453446618
P 4.740958262884355 3.989371901296318 -0.25122225440134427 1.2047950301191703 0.8185140338294743 0.0885379942414088
P 1.5870584056199661 1.1313697306667032 10.35884158101247 -0.06042632360685723 2.3475526833906213 1.2923215523769291
Ni 8.64007852617461 5.022867358406289 13.346863348933793 -0.7843839249149845 0.07460287221755539 0.037369956008025965
Ni 1.4563545139695566 8.275925687755803 10.569271269159444 0.2920752622395486 -1.099055327287494 -0.42135290029216466
Ni 4.986625441365742 8.739493837965414 10.125400889806038 1.638531391677352 -2.048162889767531 -0.7463611658143081
Ni 3.3209373944216605 3.071399274661837 1.0219275802231493 -0.5381668586601311 2.1636640428613445 0.3126957667033776
Ni 8.10023815622515 6.255165920557971 1.93387364662082 -1.3796164182398563 1.0463798512706497 0.18180039054168043
Ni 6.404692493495955 6.677291149687046 10.601277165625625 0.43087986594599337 -0.34458053122711624 0.28002578727418226
Ni 1.8517867594013415 7.360071988693168 8.352242854444148 0.10178328928708921 -0.06774779696893493 -0.3640550950119601
Ni 0.3287520714143575 1.6091557931549394 5.864625554234697 0.06332369975931029 -0.9829165406096813 -0.6887874811648976
Ni 6.0169929577744155 2.3550916812180525 2.203455353554854 0.03615485265400225 -2.275699091783429 0.8548352368580117
Ni 8.01268333512871 6.404068739925021 6.854667402282535 0.3209050419870473 1.371787666224057 -1.5380099998218222
Ni 5.668599069868303 5.731231266667306 7.080468946814361 -1.2284694909179747 0.2586753466228642 0.19264504656566822
Ni 7.774813076283989 0.918330367653105 12.918539110051237 1.6263957847560826 -1.1262465429903055 2.535655362001246
Ni 1.4538594996858236 3.496331394860112 6.6091304782233165 -0.8927950039312366 -0.8726678941640583 -0.25981691642647514
Ni 5.8481208512908704 0.7113881957953795 8.049674673739041 3.550136050570454 2.7640693386364075 0.23947537665564567
Ni 3.877032048601914 2.4665142492493195 7.492655396618345 -0.11978795339462595 0.46813437942207764 1.3999993527715826
Ni 2.955472838934566 8.015426016271489 0.12908763607396184 -0.6285017969009628 -1.1903737124875178 -1.3165264317579066
Ni 8.103421134006235 8.424645050190227 11.07461623206697 -0.3239643976386614 0.23534027144134953 0.45528889091797714
Ni 0.23049345558377143 3.652086330660796 8.968494871402262 -1.2794516383927965 1.1883376558940952 2.0757608539904573
Ni 8.39383345835545 2.76023797123246 3.6473155331278195 0.4124998207769089 -2.0258140897586854 0.38178927906692955
Ni 6.378714991835911 1.1963593490499689 11.359543194130627 -0.7389576742613854 0.9910695087341189 -2.3421736784668954
Ni 2.487015561470434 2.581202350681355 11.977648126108276 -1.0175495573025184 1.4821095891097764 0.14624949002026427
Ni 2.504535698536354 9.188807384509873 6.698691400878036 -0.33974968549737616 -0.046805647499629066 0.13472657698232923
Ni 0.7480025304091611 2.6305064013249755 0.3694409845017943 -1.365074001649307 -1.0433510917466549 -0.0949248716043591
Ni 0.6600688707468464 7.781756921183938 5.4333623352914495 -0.063285133211891 0.725684611301563 0.3023879570194663
Ni 7.085409442010018 2.7753456496343283 9.520856177003546 0.5650354009162011 1.6054027274441836 1.2002973993591328
P 8.192471129103588 1.5932959413292984 1.5410061291071664 0.547353924476038 0.3072506844284063 0.7119088976737095
Ni 3.635070700159602 5.703850319472663 4.131045600233184 -1.0847360824513448 0.6239936246179641 0.35773840876531293
P 3.468069854388857 7.597712926372104 11.360872339607512 0.4716184813159362 -0.11327971996246297 -0.07226573944394651
Ni 3.2114502970296135 6.594992369710383 6.713808252126535 1.885307158649153 1.9825485942018306 -1.1580258922844315
P 1.1056857600988637 4.588221193625392 11.715705565848848 0.354203399028861 -2.0507833581095136 -0.6381640025810751
P 5.233365842902998 4.072092632218024 8.775142271828912 0.04518482406675444 -0.5257075498508559 -0.7238722406831727
P 5.848487765156126 7.17578949986892 0.9884833814051694 0.23192198978841994 0.4122252269592836 0.7149605400158396
Ni 0.8190764979630152 6.710900459744391 3.05914893798564 1.784170501807127 1.0110410667600396 0.37456267941150334
Ni 5.234897708290436 7.417026193427352 3.3473652828513045 1.2044319903527967 -1.072861956721578 -1.8156220354481896
Ni 3.11570412389136 8.083084933024484 2.539251253897441 -1.703992192384323 0.48305063441227775 0.6292466454867872
Ni 3.31972657866632 3.897047199951566 9.9793196380628 -0.5423446441869046 -2.0506720293426297 -0.07636613476556525
Ni 6.864518122279966 4.245835520262828 1.4800149545705157 0.240050018212193 1.327409654329314 -1.4713572356892788
Ni 6.1484581956952296 5.758924090647416 12.830777899905593 -1.0646686222775084 -1.70580944809872 -0.18826748632326287
Ni 8.182711220287809 4.015954810834032 6.082680629786329 0.6531841301389912 -0.770004516264861 -0.2135717694160064
Ni 8.858190473375359 2.3177857139682656 11.272828605785621 1.8182443035623848 -0.8216392097220172 -1.268549903878628
Ni 4.5669860536737685 4.34311355878852 2.5312222612410022 1.1952464671987866 -1.1686352923691616 0.9570314453128034
Ni 3.6062037518106766 7.996392359511395 4.803590459683359 -0.38182090363581334 0.37564408540114014 1.3213523923916406
Ni 5.047936748249827 2.6852499500209994 4.631356504909416 0.7816942938979634 1.9814679595431424 -1.972779173519893
Ni 2.449498618748126 4.917599770464673 7.901283699214021 0.6555212629126 -0.22526360393163783 1.271374517811617
Ni 6.142000511666743 3.3583809543709187 6.8464650428247635 -0.8394078465593479 -0.34949288092706904 0.9278288556069183
Ni 7.23512864472726 5.11177058795754 8.676962542479355 -0.17464372489224114 -1.1133673730347922 0.6792990820584881
Ni 8.251195693237626 1.8911199257566613 7.89002036083536 0.4329177223116286 -0.33936170603033816 -1.9822616590890314
Ni 3.282044524704647 5.120172915471876 12.157132298859654 0.6352977367768735 1.282089847346592 -0.979850757200164
Ni 6.5165645310121585 7.480135378251187 8.366459849438112 -0.5566212087105769 1.1407102838241192 0.19786747130687213
Ni 1.650598714235475 2.172845564345968 8.457792966062012 1.1042229875313627 -2.3776806131242534 -0.22039084922036886
Ni 4.866846410053295 -0.04796664960476674 1.4678646019226012 2.7829430356124587 -0.6328616165315553 0.5031363494185592
Ni 1.8987609070005937 0.39967376971413093 4.302393458022537 0.06051862621034739 -0.41835422267515693 -0.1834348408213099
Ni 4.279077916454917 5.838397633861617 9.394590108553395 0.6157113300045138 2.391229812563598 -0.045663820585702
Ni 3.20306631520854 0.4232177151628716 9.046455812206949 -0.9446798657259861 0.1737770060165717 0.01190806429149562
Ni 0.29911827308704947 6.557493772681338 11.611349758862387 0.31061780112842635 1.1070234330946354 1.6010732468308941
Ni 6.9703635995593585 1.582481155150912 5.551545291290037 1.5025256908722833 -0.49724235253162746 0.4224260787516854
Ni 4.989689172140619 2.0919410570572734 9.690431840823717 -2.2671020941430373 -0.4710219853825178 0.5942112511492089
P 0.7013705299892589 7.26054660274279 0.334260365816496 0.5661916260078312 -0.01439457815877521 0.4310143346413287
Ni 1.5913696435367106 1.997414872520992 2.501673770387366 -0.009093991881468208 0.027665327125752356 0.371254955194509
P 4.498483235030687 8.580849455475848 7.650390750006744 -2.377895814458853 -3.846779134686343 -1.5554135400102505
Ni 5.902534177508165 8.017187202824713 5.731875200500829 0.25274663984325507 -0.6908654467398488 1.4632407772297316
P 6.909309132380952 4.0789264029583965 3.600488151074669 -2.4200117697922967 1.6901576004940762 0.729223477692757
P 7.790691273802893 0.6823405423678159 9.613128593122498 -0.33385825971360567 0.10127369664052237 -0.880869199027928
P 7.965360619357465 8.802098516224524 6.095730838688781 0.7605544265955547 0.31893583407581844 0.20308603939333408
Ni 2.9254959761432446 2.186861673998703 5.443686374175058 -1.6801421252396034 0.23496051950442765 -1.1203438043526255
