# total energy = -340893.79174526327 ev
CRYSTAL
PRIMVEC
9.05930536195220 0.00000000000000 0.00000000000000

0.00000000000000 9.05930536195220 0.00000000000000

0.00000000000000 0.00000000000000 13.25920912584029

PRIMCOORD
 96 1
Ni 6.363174516833837 1.7992052127187714 11.361245800989563 0.4428524649268373 1.1092739196917087 0.7535232307803861
Ni 4.512584924389982 0.517713026549251 6.025925569875135 -0.07284989408219067 -1.0262108325219421 0.5690792319682716
Ni 2.636321260694207 1.5818271817767067 4.810891541537991 0.4973102296550855 -0.1218332659594289 0.5141375856250694
Ni 3.6757950114057496 4.528185048135855 4.933937744066203 -0.8279394409084323 -0.13537783741308299 0.10210879094730803
Ni 4.9814311521601295 4.495616845542118 2.6179906623275397 0.9006926615117584 0.5717536934766411 -0.11326223646096623
Ni 7.307706747884082 5.818610615272743 2.601297986361136 -0.8449092359935514 0.31128783061225745 -0.43043506509909096
Ni 5.165914845517253 4.555145540741964 11.672519001829485 0.05971541358276167 -0.7389486754003209 -0.99217122643873
Ni 5.517742026582727 8.021036448087383 12.538941902486627 0.2372364600227979 -0.03169424577948735 0.3101765998259497
Ni 1.8697137859557829 6.720201739147935 0.1727210913410724 -0.06653937848313057 -0.3475483556061886 0.509870068597967
Ni 2.679534147028595 1.7494605672550132 0.37622298433798373 0.08211846386831019 0.017179597103080087 0.7320249516972941
Ni 0.6784640577826447 -0.01910516897077394 4.740325894677519 -0.7627812590435444 -0.4807127303077206 0.7141444718724475
Ni 8.82922613420418 2.249996245003712 1.4243438419690597 0.19978011494855272 0.6545154473559051 -0.19970349607434637
Ni 6.8545240589969865 0.905848997371453 4.945857072064139 -0.2672155228833914 -0.9096858661493042 -1.08138722058377
Ni 1.1564837381109057 7.530230464242905 2.6390336167043777 -1.1580708865897538 0.005643314328706409 -0.7813713633409058
Ni 7.371991578372304 3.6209590363571014 3.8545713424168233 0.8477755017977529 0.46870027922787666 0.0804089373763712
Ni 7.901417380758396 3.6662012070811967 12.668988230228797 -1.9602530160284242 1.2072486338659856 -1.0789307886234774
Ni 7.956044991784887 9.1160165624406 6.993622444606099 0.35403216355831935 -1.3183490867889422 -0.14552083938435584
Ni 7.2900773397485015 0.5568528492157273 0.6134427057726225 -1.0615095078232364 -0.637555936683431 -0.3918939716010993
Ni 1.6931479254406405 6.555802525665724 9.191164405927475 -0.6109565889283478 1.2363545500930062 -0.180909760406611
Ni 0.12772080406878575 4.695410764875159 1.3194932541583797 0.25908492335645705 0.5400067400823475 0.1194375120337427
Ni 6.491291212544722 1.8602468119055866 7.084488182807891 -0.5027013187636697 1.4499900828674124 1.0227442141295806
Ni 3.173719251754148 4.5314554573531955 0.17819019395743937 0.46350176574607277 -0.7106567704341632 0.5544260008314711
Ni 5.982656515847816 5.534492682103122 4.796784391307403 0.7291247473313636 0.4446404100651955 0.07799544283887212
Ni 5.180953292333833 3.116364789828988 9.310550649109963 -0.05671030820785071 -0.5764462138563039 0.024023873718423138
P 0.3307371183010171 5.496769734787317 12.410421161758864 -0.4753054432492201 0.308837569299552 -0.0888221011407309
P 4.0739786577485955 6.2302654486133315 12.459122175250773 -1.1487766057720217 1.19982405926714 -0.27791234047560526
P 2.6404251260001765 8.823391941583772 1.4618674845680193 -0.7847204823187969 -0.6431174899316086 0.047234507506931554
P 6.42435200560032 7.91709903825207 5.812545410366899 0.2021496436219938 -0.4613155567280314 0.04789579524001429
P 4.6642014580781 1.2408621077793531 12.688744763251446 0.5186748113737906 -1.2487403253518685 -0.34325744154031856
P 4.15606502317331 6.088976522979973 7.91655638586393 -0.10204271359606296 0.34011632480817555 1.288316287872278
P 4.701716041371749 1.0613791509540065 3.851534663276511 0.545044559616571 -1.3214876324179243 0.023115502971540833
P 0.23412596867086657 5.608480028579631 3.338695542984682 0.9757447054515905 -0.38141286956411735 1.0135404361431255
Ni 1.4164405040155754 1.0652112371006408 2.809825076014166 0.5286838588703605 0.3881352758896154 -1.1668020958151648
Ni 1.7827444549683344 6.487685609030867 4.725847312929171 0.10448500448896844 -0.34973919260992026 0.0457545805272954
Ni 5.92152432360789 5.737448298989769 9.427509904399583 -0.33907399958659024 -0.9900588080814174 -1.7186161129450852
Ni 8.7041896022991 2.2085499232050063 10.225064872011572 -0.06553561980896455 1.1812637797664496 0.34470342995822567
Ni 2.1268802858246056 5.647353507669959 6.924025237483393 0.8807907803815089 -1.0514919756862342 -0.1323508776613011
Ni 0.604353504753903 -0.13145776750965266 8.961210247352414 -0.09087281302217254 0.10484804425534203 1.2185812852699853
Ni 1.4033588671462134 0.9947207824742517 11.481268007404898 -0.3699637471869112 0.4090432296868762 -0.18522869949693904
Ni 3.940054947333236 6.9962750092012165 1.5282694747074672 1.1283080535050245 0.6759862156351714 -0.3729392848754674
Ni 5.682268070339294 7.793194919510889 7.940131416075246 -0.2055401573607815 0.5961334078725862 0.1443558725419772
Ni 5.228949491872531 2.7655794288743016 5.039414329873886 0.04764716956431794 0.4838037105282184 0.06901123706239083
Ni 0.5914430887549226 7.4597309503112035 6.843674634956302 -0.4692900902930757 0.36542600721755775 -0.027184273724275763
Ni 5.190347791941541 4.397359620136924 7.094843874709115 -0.3405089322609039 0.06849573087855301 0.26682214409971466
Ni 7.990397877524929 7.188513467904722 9.025570270074718 0.8575706335113037 0.3748105337562513 -0.2736795333411803
Ni 4.666520640237765 0.21236551731338207 10.488432466365905 0.19487650699934825 -0.3471380075416473 -0.1491080425149819
Ni 8.210357810480685 6.932705863832578 4.711487408080401 -0.2914088323001433 0.6995791724637629 0.3675744210191282
Ni 7.212158254766934 6.016320894384209 6.965910935589692 -0.2577739178545173 0.5950877402168913 -0.6082438179828751
Ni 2.5153614161791635 5.346702342307411 2.448935871845907 -0.670489197076342 0.08658755538325733 1.0469773756453322
Ni 2.2386721133647214 5.210060840298695 11.281200497051461 0.5257481732808043 0.6462647773113387 0.16593077049927552
Ni 1.0331956521308865 3.3216124109593657 3.9783730910079864 0.2793650137617318 0.3961424624648081 -1.4557969193571765
Ni 3.815027474733468 2.5419685958781364 2.6688006820958945 -0.8780412426608297 0.035497164465345316 -0.29818677445392516
Ni 0.9585832135879048 3.5955295663485836 8.06484724857231 0.22881429739737366 -1.2798509307137442 -1.0242195131235263
Ni 3.539325636197945 2.677921590683203 7.398692068915983 -0.14052364328008055 -0.13420515726122048 -0.5525298122500226
Ni 4.133924080992756 6.898343918787225 5.9584364630983435 0.26347688177656564 1.0540682210538428 -0.6043000028437787
Ni 0.733154178015783 7.461026430970705 11.33590782996469 0.30203905832047984 -0.6315349273003317 -0.07117276349008388
P 0.06323032734999944 5.631472545459439 7.908853258557824 0.4678564431703426 -0.2811511591278771 0.2953881286628655
P 8.741550177402459 1.7356270080448222 8.138529296459833 -1.1615092228473416 -0.13314046344213198 -0.6018674821428861
P 1.796369650156368 3.2786713037843134 10.306940155622536 -0.47115773962943375 -0.5792263477046025 0.22553485531515355
P 4.26628959089459 6.240837657911493 3.734231154385066 -1.3848056757502796 -0.03185365417548708 -0.9001853828580367
P 6.898117436154445 3.9557184862162877 10.453175461955807 0.2635067065732365 -0.456100331075679 0.2647156392796732
P 6.353345170571193 7.70917892205489 10.379931884445346 -1.4840705694908893 1.0734700226192222 -0.5175347842320766
P 2.3854962745432187 8.376432995445466 5.977993691404146 0.42052500507423063 0.29571825830877463 -0.7429693665239399
P 6.895019153738017 3.9867737848230558 1.3367539485677948 0.28450773430493587 -0.8030583613960364 1.5156928243818606
Ni 5.092407642222238 3.0456840897910635 0.519064674901681 0.2798200990212794 -0.25660278036455164 -0.09433428920821173
Ni 1.4765852319765826 1.0282220935150417 7.08207478387299 0.6916920564062022 0.8328962706930753 -0.6300241470827602
Ni 7.017972045421522 0.5360372834022001 9.347874986992077 -0.49199987318576555 0.13873364125919332 -0.601743554970512
Ni 2.983075230785412 1.6199125013049598 9.550793460726947 -1.3463553421938812 -1.0013726904323401 -2.153500986285414
Ni 6.485402664092447 1.857773621555631 2.5285707892534135 -0.1634925933714281 0.6112725775068699 -0.06657948769244663
Ni 3.993830983660475 6.857975654320551 10.06517175699115 -0.37089860029635474 0.5578885054587747 0.85250427473199
Ni 8.044925836192997 7.025844581736949 0.39965397159485216 1.7342782449623744 -0.19219330374023028 -0.9754685689720684
Ni 7.45445843462009 4.003270779794738 8.321386844513597 0.6022567471615048 -0.9182779786936895 -0.24507189690681666
Ni 3.063820819024071 8.619050250984513 12.449044604022601 0.7456176027800643 -0.7196363482249541 0.1319559562157276
Ni 0.11921411638157596 4.769832958006605 10.00441824371323 -0.5553647105956564 0.27606885950896326 1.0770515693228935
Ni 8.721239214894764 2.2450136270825563 5.829199131320465 0.1248180596193657 0.7389301634575597 0.2495286471265896
Ni 3.665766360426259 2.624362977683432 11.369559525473646 0.3810264327589761 1.3030317397055817 1.562868710736715
Ni 1.1080073953907144 3.2870058646706104 12.497905061287987 0.8167358588831288 -0.02689888127337303 -0.004202725227437924
Ni 3.222458314328364 8.571108407277682 8.092943778064443 -0.2148488363562171 -0.799502782834294 0.05815372552259662
Ni 5.650035062042072 7.969407467118896 3.6587725767260184 0.1823197533802602 0.19421316238373648 0.09872239097357838
Ni 3.1398374498902877 8.18426701118445 3.678647786648244 0.9730861847828208 1.126520879697615 0.4170103070527528
Ni 2.9581530818743214 4.602108979475186 8.9576698708368 1.580648146207323 -0.8765366330908453 0.5050621056863625
Ni 7.390354790238092 6.080660080704297 11.165182503583674 1.423340341490368 -1.1238513032852515 2.8007255564068605
Ni 0.6516947165186019 8.941869536443548 0.5275559617698617 -0.019943533001462427 0.48573589455392463 -0.5381079803977378
Ni 4.821389464532602 0.41687842878302245 1.578694474000096 -0.21748061755210932 -0.7105806657805891 -0.5272805507649306
Ni 5.879996468061383 5.667573877124541 0.38879458231832564 0.08343178336309502 0.5205735710584002 0.4952062959382052
Ni 7.874647133563823 8.653412196029867 11.631734009318496 -0.14979426994872913 0.8661555469668372 0.1283525551351854
Ni 0.1224301697670493 4.78263375641132 5.68355992727667 -0.5377187153791191 0.14794101879007424 0.4092602307936888
Ni 7.903301716263124 8.630936059552797 2.849098976399248 0.5047815983314661 0.0607004032038503 -0.29754734109771336
P 8.472742470208754 1.6220142601371565 3.599861726148396 0.1675575074694211 -0.14086637133147997 0.1464927163793219
P 2.0098159425933755 3.4086904536105487 1.7671080940012163 -0.9885986785961233 -1.3474670872008212 -0.6623087181480787
P 4.777424655857384 1.0634356132596472 8.290386807669227 1.2796267305180802 0.21661749822086565 0.1816705498320355
P 8.504857707536932 1.6357028704623684 12.407384482618552 0.3750236782083219 -1.5602826951770936 0.47863450762245313
P 6.378656869610665 7.6031759906086265 1.4625306257167985 -1.2252430135608772 1.014635211869201 0.6220987215880963
P 2.097555314532275 3.3855258099298293 5.976203572674654 -1.373387663721325 0.285557772836005 0.010035272748814975
P 6.970410692537762 3.9513881382775375 6.019217154292196 0.8707241401741261 -0.7377623684017036 -0.31801692180597485
P 2.379055108466961 8.496631858314368 10.233669400196144 0.06914853397120349 -0.2017315822479687 -0.07790082624253682
