# total energy = -340897.28618464776 ev
CRYSTAL
PRIMVEC
9.04434157378359 0.00000000000000 0.00000000000000

0.00000000000000 9.04434157378359 0.00000000000000

0.00000000000000 0.00000000000000 13.23730810929294

PRIMCOORD
 96 1
Ni 6.4031226409755035 1.8994293475700785 11.441548170424054 0.23512352744485313 0.3274572412832683 -0.20605592065493544
Ni 4.535375622616179 0.4355302778029795 5.990517056250029 -0.09314721087864603 0.09433608898042463 0.12919999073714525
Ni 2.5561209146081585 1.499289579102434 4.658910477946993 0.7360507850272355 0.6656506380371181 1.102205957101334
Ni 3.581125211434853 4.5234461358251465 5.173405094851669 0.2936063541720943 0.15105642449060436 -0.8029503750632623
Ni 4.955675228883072 4.391326391288839 2.8072361593422865 0.7058341522345393 -0.3279460079942288 -0.5822311959691973
Ni 7.06638944447839 6.067224832080791 2.628902541677749 1.0833577140465793 -0.2047996796503312 -0.3973524236125092
Ni 5.096233344288245 4.40932463140571 11.613514571484432 0.014254195926169002 0.2542013700119106 -0.1068056822023451
Ni 5.7012003207592965 7.737814244255357 12.309809502253042 -0.5475215604021538 0.7331919754222018 0.6218701505170581
Ni 1.6340774044600874 6.558468255170166 0.483126126353248 0.8007068304447242 -0.0030452145842270136 -0.5765937951777619
Ni 2.5891508507422354 1.6306948206391276 0.33928581932073204 0.852326868613861 -0.35971635842729016 -0.04746590679144729
Ni 0.5185229667278201 0.11120470419949192 4.599686319186542 -0.15291764606905922 -0.7533951898429541 0.7140696527704541
Ni 8.722227535230534 2.2436117735236114 1.43342868235316 -0.28067704770493596 0.38491316940789194 0.21053606791347612
Ni 6.899240964277437 0.8647105232511573 4.891304839657045 -1.1499122620383617 -0.6875790626790932 0.09335315624186503
Ni 0.7582667605579574 7.517114216450387 2.562200521144119 0.022394308534800143 -0.41862598827930486 0.1573556272357548
Ni 7.620708107052718 3.855747604856297 3.76817214795798 -0.32874099309169835 0.1467274580979473 0.015096232211490132
Ni 7.537156477806661 3.7420511844999216 12.802105686724127 0.44041094536488024 -0.45957132034341497 -0.8765134931623937
Ni 7.929129205658459 8.6903462305009 6.888603009490772 -0.012084441968359831 1.3909979206039205 -0.12048600790291507
Ni 6.935373109637689 0.8196380460539576 0.567450142386231 -0.5522192229881393 -1.3138288303210859 -1.2414700169427006
Ni 1.9164507987760842 6.570361564594129 9.04182291808974 -0.45346057945998675 0.15474287220325608 0.9233741622696743
Ni 0.09330685627623753 4.633289666588665 1.3480609492802336 -0.7549327095334031 1.2471709239822197 0.6645514914356684
Ni 6.387801526021745 2.1468011392467328 7.107971710187599 -0.1258498433179897 -0.5103269536297276 0.02143400150405986
Ni 3.4230934277353104 4.464902111565596 0.7007528868256985 0.5097584827207672 -0.5362025358449087 -0.8963762935245917
Ni 5.89735400500789 5.718257949332372 4.669367545898313 0.1578600776759991 -0.24513951691995847 1.3825947841418897
Ni 5.2367552823263495 3.1503251243761565 9.361199427878173 0.7335856113161946 -1.494107127791285 -0.19337652541505404
P 0.16648552994941138 5.395356859557229 12.380934205910869 0.6524364533396892 1.116586137082406 0.572409324782769
P 4.049468361169494 6.133031462779463 12.627637620730923 0.12201889960767373 -0.17455527894349293 -0.6457942654328234
P 2.505526866762039 8.476320926920177 1.418721678205399 -1.0538162529440367 -0.06497691909201712 -0.6158887361226425
P 6.186058438560977 7.873000020650769 5.715314016087125 1.1487010153390798 -0.4373569890299049 0.35166443465709113
P 4.724103902273842 0.8993331679704509 12.503180242539846 0.5869882510382084 -0.08223776305499385 1.2819980589637343
P 4.083746416467456 6.146733640556879 8.205145332146241 -0.04695837102740945 0.7033988033201692 -0.9979253553136879
P 4.700597658020702 1.0326015439112026 3.7600973596281597 0.16249217713137176 -0.32028437768391294 0.8633448169909197
P 0.16911110236445043 5.579915697660181 3.5172459299667875 -0.18251747121336306 0.18206547127760903 0.001727267103751864
Ni 1.4978063070526015 1.0558183692277898 2.4976420096093315 -0.4821245230535826 0.3715817424063084 0.2179207904133215
Ni 1.9745516502890392 6.438350352159028 4.8411883330562375 0.18946176374168017 0.24800912515826964 -0.6645535483181974
Ni 6.070399396041104 5.663693435450421 9.227581940345207 0.43818771246131627 -0.43384280522905927 0.1501935622696768
Ni 8.622721687107008 2.1889658605657543 10.212768522541486 0.6706666031944707 1.1925966882807655 0.024716014689441304
Ni 2.3643175587496223 5.152805702042531 7.1274432735783595 -0.2581266732082458 -0.11115367475839567 -0.20544528365413006
Ni 0.7843714442008343 9.232916293119544 9.01060908578253 -0.6816873797850066 -0.6171812296818209 0.14235735405470967
Ni 1.3343931400015323 0.8217517087249692 11.413220387574782 0.6592601611297421 1.4797138351840904 -0.15087027662172728
Ni 4.136936190400781 6.8200939294720415 1.4760790848250842 -0.20076844700375102 0.5149140587797777 0.4570506108040903
Ni 5.806666390107455 7.7763521845257015 8.024416772781729 -1.3154820496537925 0.8556384494855975 0.011991625144237412
Ni 5.248015487826603 2.886962936454965 4.967034922142766 0.19092677832298088 -0.4190039404440139 -0.41080006447698286
Ni 0.7251771317682162 7.218035922890238 6.8283070962309 0.27052453265196635 0.5888643850149987 -0.19421007705994295
Ni 5.0407553518878 4.4011033247392595 7.2369422149205445 0.6220552699446705 0.7000252588622461 -0.32099220238421494
Ni 8.190980988504515 7.428072671751594 8.949293875205486 0.3551238539606013 -0.7677907964429938 0.752185228695253
Ni 4.604212107806886 0.2379430653842734 10.369471692435416 0.527055322128002 -0.5016489662397554 -0.15751092186669646
Ni 8.113859886254989 7.141819254817438 4.677826718753241 -0.010853911995368403 0.35083551099789256 0.1828368022259948
Ni 7.357237387030321 6.2152445294439636 6.9221719883941795 -0.3777901852098655 -1.3860428905914903 -0.23092183065867972
Ni 2.2165782359812356 5.203001798850891 2.6336019816600236 -0.37362834052269206 0.319618719075456 0.14654928064887018
Ni 2.374311556402458 5.398667088644051 11.47141168250541 -0.5179528456061014 -0.4531397057854583 0.3800131610031133
Ni 1.0057398488624052 3.2697647017547498 3.7356342240160427 -0.418046461626751 0.12393462857314783 -0.22172653731265685
Ni 3.572958170819006 2.5308781567357026 2.7149187540553887 -0.17536491932898185 0.548349712730404 -0.7899040834022655
Ni 1.2105037464734414 3.187759654950895 8.26532276452896 -0.3593463766823811 0.34822044197254864 -0.40745840169825964
Ni 3.5308658042341223 2.6401338052843473 6.994818854771437 -0.1585200798575012 -0.32996355264488975 0.16238419079859776
Ni 4.185649015159308 6.991945467391975 6.03581564199141 -0.3813012836869175 -0.39051200365190814 0.15513727942819733
Ni 0.7903470408064709 7.439504719745426 11.328356424338292 0.2109631281485657 -1.0497600805967922 0.05446959180279006
P 0.19399208656621547 5.482553358535498 8.019703766286804 0.5620578063451159 0.5170773849796837 0.1310344728427227
P 8.55952887117908 1.682021460168396 7.943166024081265 -0.56394962405119 -0.4787296384394207 -0.052056868596239377
P 1.885844746235636 3.2196138266552263 10.372423765588252 -0.20528690369939484 -0.3896817944411289 0.685409051610968
P 3.936287468293854 6.060694817324821 3.624560662772176 0.0213866932058922 1.527952358475504 0.9817808843433415
P 7.012756497798468 3.9365859315721736 10.45040498473985 -0.3087650641904037 0.11919531411594957 -0.018865726556251378
P 6.427849871367225 7.723135277567073 10.259601933080774 0.13978059446646893 0.0666260246596659 -0.755800199740021
P 2.3600034077266336 8.39615188149508 5.7960745614638025 -0.12122545717210091 0.48331957180294827 -0.010553092925497953
P 6.734208860050027 4.008587936381426 1.5791447858682082 0.5882753452807482 -0.8766402485482451 0.9840038601365891
Ni 5.235896069858459 2.759229697675784 0.3644245672628643 -0.392381195650163 0.24246017031558242 0.15044141661442478
Ni 1.42351608377623 1.0967801930917644 6.822085493529195 -0.19806004693365242 0.2976023627053649 0.09886868674345553
Ni 6.944634515607376 0.7574392032862519 9.20694546573482 -0.8277481508332324 -0.40846190326210946 -0.427020125880271
Ni 2.8586270136981025 1.5045624303527536 9.188558318921958 0.018765453532961232 0.4324932331797003 0.02643479715276093
Ni 6.317445591414137 1.958950160740495 2.5604395878020303 0.21958043750393152 0.7311170951710442 0.5958449300978899
Ni 4.187855834550523 6.815418004778362 10.301710579480837 -0.12333016221992953 0.34644792345315817 0.7781721396773179
Ni 8.20847274548242 7.036977245051222 0.4288691200913837 0.05405204464939724 0.4378940924802975 -0.13372076142563422
Ni 7.725785269704884 3.907372707663886 8.258955547924801 -0.020443098345700277 -0.250339315953343 -0.10455545271558768
Ni 3.083894434095544 8.390698143409415 12.433618401139405 0.5259695452629909 -0.6661993114517365 0.1250484304626169
Ni 0.29132457936306577 4.840911576198159 10.159541666806915 -0.4786352789534015 -0.2864908261732356 0.23398941384040992
Ni 8.503444907880226 2.5497084762951623 5.890721789189951 0.8352076924350713 0.04277801439747471 -0.31709929508771195
Ni 3.6897025343509524 2.3634764349652664 11.378062317822865 -0.4860025179517501 1.268611610354499 -0.15052497746716656
Ni 1.102948434177044 3.357033555467156 12.641377784743762 -0.07739457603007961 -0.13668781447375813 -0.9947443864825448
Ni 3.007062750782569 8.428123629642386 7.916982654665013 1.1461756778140648 -0.08946024894536204 -0.07644403919135222
Ni 5.632861274365791 7.9165213932348815 3.5146773369048825 -1.0382677636864763 0.5005043111123509 0.1347808272590324
Ni 2.9124137141880686 8.469374872442913 3.6110185698440396 1.4936397012365632 -1.111963293598414 -0.1168414691717923
Ni 3.4097530236285842 4.5190958074350895 9.452761630627505 -0.20935078935612333 -0.5087704077758851 -0.12080996690123709
Ni 7.340966616190999 6.014324477084018 11.411897200374229 0.14158036667936907 -0.33757761754672183 -0.24683361679292978
Ni 0.5219200214956075 9.100868903317373 0.40203003589700426 -0.02497003968177635 -0.6991490269048797 0.21500875897284907
Ni 4.536207702058768 0.4382815665685836 1.5625321389100828 0.05126419749161494 -0.9230270633429006 -0.3312874136626359
Ni 6.2055399507276805 5.653889368974697 0.377494545550749 -1.5961094750677158 0.3266751117016051 -0.6472325405412466
Ni 8.041387575673838 8.92377164717242 11.29006087242731 -0.6437733783480526 -0.5519582560172687 0.03472377663443052
Ni 0.2509841017785028 4.947155458938302 5.692412838298216 -0.6600998834222179 -0.4316910489933791 0.2792940513144803
Ni 7.842421101135623 8.857910750423148 2.7210345379584178 -0.15848999795051416 -0.11593464108680678 -0.7007333406728642
P 8.41896171143214 1.7080148984075354 3.664775424006174 0.22056439868375563 0.3252661471692205 -0.636220248591143
P 1.7904902509832883 3.2653058412634843 1.623251327364663 0.16042346752780115 -0.8433143807026057 -0.679290597418056
P 4.847794320283053 1.0607294468074184 8.25009932846629 -0.0737415526585246 0.2842596228498717 -0.2696737546158968
P 8.570183105780925 1.627746365222997 12.44361239879224 -0.6595872054518576 0.4396293300038493 0.5750526759428871
P 6.224569245806021 7.726282708502084 1.3302173674075828 1.2529080835763133 0.6261975742478183 0.1891833132693129
P 1.8578977301747657 3.334440789732511 5.738519083759415 -0.3154905558396954 -0.6276350780252933 1.1578068342950898
P 6.875571921872487 4.092320452462829 6.02680114655197 -0.03674466371920123 0.6011043787246164 -0.4610453337857801
P 2.491562403073371 8.427155885073288 10.199279791229776 -0.15816629606250823 -0.22456400676145197 -0.008436046582495148
