# total energy = -381164.1292433414 ev
CRYSTAL
PRIMVEC
9.26910825963559 0.00000000000000 0.00000000000000
0.00000000000000 9.26910825963559 0.00000000000000
0.00000000000000 0.00000000000000 13.56627687380013
PRIMCOORD
 96 1
Ni 1.0697292390288609 7.906845905199529 2.4748555967732004 0.8453558366126668 -1.1927668953100428 0.19100751096224525
Ni 3.763480387386093 4.018631128779648 12.342775065830098 -2.1482991303695003 -0.1762691763108061 -1.359733563273
Ni 5.197096276090843 1.2798691910081283 5.145498858390354 -0.8514814898944303 0.45177239312428646 1.018954150959529
Ni 8.332576044779069 2.373929839059334 0.47847043832096475 1.595420419420491 -1.5852450215493858 1.4554930149635128
Ni 8.303693503631022 6.4526618654012236 2.6316814922135254 0.6135500606871369 1.945997277440358 -2.138588845060272
Ni 8.90162513533137 4.953198232050859 4.123930978652617 0.2585917857701224 -0.8998125728996504 -0.11758194688224266
Ni 4.30103304827823 1.3301819103122376 2.8382009305302685 1.0845393930595064 1.6468468535215832 1.4524516570340276
Ni 8.831374564291236 6.587054665178357 8.755471691071358 -2.0485179591141045 -1.237061860572676 -2.593172739491424
Ni 6.326203422242424 0.29368427799839036 1.506941949845308 0.5570104737291957 -2.365014587620811 -0.1756693379432781
Ni 5.90334670620457 2.430907047158516 1.3266216458530062 -1.0326751000900471 2.7919411253460105 0.8766903850598902
Ni 3.4715590937671497 6.385859402611113 11.631969795947388 0.5726484373767686 0.42615829210060796 -0.8782014223877779
Ni 1.5420181090919203 3.883978793972943 13.520788807572002 0.8423088222562268 -0.3913481263999583 -2.0188883091731293
Ni 7.385857140658985 5.775488627707723 10.705271238626299 0.7949930678893986 -0.510099925220586 -1.6612573725199584
Ni 4.08368173012015 3.8944250789132027 2.6238667070909587 -0.39828110607436573 0.09357941332005819 -0.15603099488706032
Ni 4.85459345903002 4.49951246214317 0.5244248229499098 2.3399689575060925 -0.9272495860646806 1.3365846359603628
Ni 5.39504735078844 6.6853906340614255 1.3810609721273053 0.49853150365669624 0.4810168918117006 0.17598995450749047
Ni 7.241537126000734 4.254724583716084 13.462169113499959 0.40211899176321714 1.0304593233856512 0.6831014865237138
Ni 6.321096143624781 5.71073463782959 8.007142290466684 0.701157058473844 0.18254343935529208 2.064988188854986
Ni 5.906674316048007 3.1062264632122187 12.151925054923746 -0.774715291476969 -0.6500563831432868 0.06643113504004043
Ni 6.921975351732407 1.5897354781003128 3.588035634306459 0.7593799466714793 0.37047488249537486 -1.2393840809479495
Ni 3.393272205918494 1.8307230221658137 0.816579698095467 -0.8472684802543472 1.330620705067444 -0.5175383837765023
Ni 8.608767661784329 2.938817100030288 5.3762069614631764 0.6639958760425145 -0.898250370618853 -0.42077723029435277
Ni 1.8173940445756684 0.17577566024233768 8.204409304979196 -0.4249174777149714 -0.6141812665132326 1.3217167177095945
Ni 2.509073436600586 6.167303100387165 6.397341046937201 -1.586634445697745 -1.7075567698071303 0.6657380555446019
P 4.285850249048287 3.4720410873934977 4.659568641790844 -0.6088737382573901 -1.4970060466056347 0.6833285149328554
Ni 4.634544830386035 8.472419080177207 12.620083610373335 1.383566661136856 -0.9892586807776254 -0.08501866823424067
P 1.6997690615305048 2.839646911409311 11.376177632266463 2.486252900308718 3.6475348376366017 -2.3859824481217293
Ni 4.506306718453028 4.774545440623555 6.4754824097871335 1.0583488507070675 0.05223273205247134 -1.4797886542860836
P 7.8489695936050445 4.053381015417656 8.889913617121946 -1.6142766328950455 1.4702843143400741 0.18428716151927618
P 8.894246925204975 2.745278120835409 3.080996877605392 0.010311666338653208 0.3865375923851923 -0.28488568646964485
P 1.7380134019595312 0.358682972332977 1.317385906443534 0.6138166840849623 0.3576589616776292 -1.0545256203062354
Ni 2.733070705337341 8.437520887808017 6.249454279443979 0.1231679256104524 1.614945376827296 0.20124615797111792
Ni 2.833186342994616 0.1484299372336819 4.027990147328167 0.30403757680774735 -1.9272487931882614 0.4264740235688139
Ni 5.459625227610793 8.410418015434175 3.571457834292568 -0.8805984618650448 -0.04281375273141659 -0.07775915845834995
Ni 1.8212407244782487 8.595503567951576 10.81960754208246 0.2997433203077677 0.7765052934978562 0.9176411164406391
Ni 4.055790983549393 7.068835102037181 5.044064226636364 1.5404615466861085 -0.22579685072728853 -1.2677065820417264
Ni 8.429271381510917 2.471060823876534 11.727191344475596 -2.064192689536884 -1.5793924194233508 1.4405559340377063
Ni 1.0184247251474596 6.329595915843253 10.24972886634635 1.5587366908462121 -1.4587721999354168 2.7097938651222946
Ni 6.521614761293499 3.56420383021604 4.714878337325026 -1.5958726764665612 1.2830581247971322 -0.12304862642376872
Ni 7.752904556230728 0.6645830080268144 5.6830357617985525 -1.2780403598675667 -0.3543090713687898 0.39234468598527267
Ni 2.672932731342304 1.6627204360591479 6.211387905892374 2.6659665835246993 0.9441404482827481 -0.14707712812788218
Ni 9.317863708115146 3.9269503795834533 10.459422974221248 0.552640626796274 0.9009407729668225 -0.8582722875640185
Ni 8.714518917226588 2.147309412702265 8.265539073551524 -0.8214546045150368 -0.30607183362895674 -0.9796090735030032
Ni 6.450288973702283 5.931432104047505 3.840816264733533 -1.8648383492718401 1.6046925887510364 2.263549858015405
Ni 0.7269196144866515 4.59325095335954 8.475558527124205 1.108492304330678 1.2135748331943295 -1.9254994145973228
Ni 4.5423079346979 2.756150784752822 7.983278971408388 -0.2944478762367832 -0.5230726833311701 0.08966285187447139
Ni 0.5505803924658154 1.4606538773211994 10.140873386568252 1.4164724107259412 -1.5887792599548896 0.8612938479991619
Ni 3.918496952905976 1.3328421443653475 12.161190455479455 -0.7887576285026481 0.06338592045581341 1.1667108216529392
Ni 1.9803171593892888 4.214051736938922 4.914166944335738 0.3788042282966767 -0.29312632921188225 0.41120321345267247
Ni 9.073233404527441 5.175304602715022 12.248760355189397 0.3969315340250067 0.6644951842764363 1.5278356303919816
Ni 1.7857307709679238 5.470701811908584 2.7007474712258284 -0.25038996668562036 -0.5165261404619039 0.9223549769765405
Ni 2.507136192986997 8.067590779586387 13.125793176958668 -1.7051594732195472 0.4821582045049954 1.1273325769656326
Ni 7.616120326538256 0.7012738459216903 9.931179278693355 1.4352959711903475 0.8456386579604082 -0.07608588452098508
Ni 8.117421505264149 7.444484250017586 4.864988763875186 0.14928364886089773 -1.0808190067851258 0.608507870277539
Ni 5.8770317080276415 5.660801951961639 12.328245738728183 -1.4067870651173773 1.223133937637674 0.2514726582268379
Ni 2.6685391740559834 7.31378055530365 9.085118255060184 1.2665447005231414 -0.4454215112055941 -0.7511033084849839
P 1.0927537037951482 6.716692412449411 4.543264506664036 0.017681476440163095 -0.3451466881432314 0.2366865010565988
Ni 5.580216325279633 0.42095932958952087 10.715866756208563 -0.5871044649010986 -0.3288338099158208 0.5213158485410634
P 8.558862783240974 8.745144050716046 8.306020976699786 0.5248734839853347 0.9275280365370476 -1.6327662070588012
Ni 8.821382465652727 0.3050815734398666 2.0933307611054555 1.1803248128919481 2.5484473715595914 -2.9987701767215453
P 0.5492790096746775 7.2679355461514525 12.307828674098273 0.04413709952853044 -0.05689285653230202 0.3854793263240071
P 4.057116466021848 0.15944071086326028 7.811516835016213 0.18696162302764577 0.4328642433658738 -0.657622368416003
P 5.035461567316881 7.1536010965169305 10.057331841281588 -1.1942365378770337 -0.8738246334763209 0.6209414680552016
Ni 6.602737996251046 7.939074594407412 6.617249712047382 0.08743293410268814 -0.1891537455829581 0.5314529369750653
Ni 6.846886306212402 8.012161512556435 11.837133163734618 -0.1295198359704092 -0.25061750931539417 0.4200956308462958
Ni 1.7392183860253998 3.0927769872154864 2.0300579747175207 0.17385696732488767 -0.16579167381824994 0.2517081712764117
Ni 7.81026179776607 6.768840415176919 0.15286242477443818 0.08871154370479561 -0.2960458168515224 0.12417734071157323
Ni 6.7672090521338975 3.3287962892863296 7.1368379143390595 0.013724034454311848 -0.02566603730753644 -0.10809637598931061
Ni 3.5345797604120723 0.8352393398108506 9.866807176073019 -2.107199789226029 -3.182972491836499 -2.1899967672186027
Ni 6.81446296573234 4.580181510798967 2.265893748446024 -0.2444782291868757 -1.7519406952391439 -1.759424148100383
Ni 3.2916086271919878 7.193968062723525 2.6863803535173965 1.2819972876327856 -0.0064490980594534095 0.37192935555371426
Ni 1.616708582959369 1.9958151082979976 3.964961138485865 -1.2247686450276196 0.26093226097784095 0.9677442037446172
Ni 1.111458764140707 6.105255690103136 0.6009644839030569 -2.3398427163408737 1.723535918844206 -0.7174683940393579
Ni 5.289036560316609 4.6511179958458255 10.02066232233557 -0.868800183678536 1.8558240615883717 0.23228862909921932
Ni 4.0882884768950465 8.973887102850682 1.3437157351935807 -0.6799248885679451 -1.8395860024629545 -0.6462331527424547
Ni 9.088777698977145 4.342669882308086 1.3767462022606762 -0.5698670179768895 0.9190253983826754 1.717779475976403
Ni 8.58456602027677 5.321923356206621 6.456055285912873 0.9882356388297497 -0.10754924523658897 0.672760509609022
Ni 8.862806110194006 9.193824502196282 12.863530248844029 -1.0777413963010665 -0.6389209353517576 0.2651434708457111
Ni 3.231785802875717 5.919150535683845 0.5820295496741633 0.7977153519165681 0.4812408348970486 0.0425404444653719
Ni 6.250901187233842 0.9427609949191168 7.778903477818072 -0.297858444580229 -0.4459185054466707 0.08104579962942171
Ni 0.28057683209420076 -0.062255965218506036 4.296873999429344 1.0991702555988039 0.07390841725369207 0.8132946944120638
Ni 4.211169044289036 2.67141259759767 10.409295637081117 -0.3706144933970327 2.628760921008679 0.16281562190906154
Ni 0.63401719682983 7.560357371613141 6.891682052316473 -0.7710072464977625 0.8452385943085121 -0.7306756367582514
Ni 1.9728091817481082 2.5336087660033084 8.556725326890287 1.2979733513460678 0.4240705563336438 0.14524521712546598
Ni 0.6400504593565516 1.0011007619235504 6.405819500206815 -1.573586354264535 -0.6173635208959561 -0.1118517292666848
Ni 6.43024916177607 2.6512522872648696 10.047849543594022 1.78491149373821 -0.09696144241841366 -2.156190103081803
Ni 4.439634023177704 7.167514027923612 7.492939440038619 0.6065810855684713 0.7308360735955155 0.46448238449178714
Ni 8.820631667888607 8.034935711401351 10.461756008754932 1.639589914848854 1.5791857027291833 2.4070009593549253
P 7.49980228774915 8.802334448303805 3.3217573285200177 -0.9500527000021252 -1.9159554796626295 1.6375736557497733
Ni 1.1979302745290703 1.5289579356395453 12.615891192734933 0.4723299055606639 -3.2389783177781575 3.8588743752879795
P 6.565420566641919 5.55366959939773 5.995045993617163 -0.4174414810529004 0.5860611112382487 -1.9523792697073024
Ni 2.6330570278702554 4.504211900000057 10.15041037199419 0.157424018579845 0.13151784023704446 0.16614674316482353
P 0.8038930697035115 3.184717271441253 6.8559348096362545 1.1283476484937083 0.2649439532403953 -1.3356621241460933
P 3.2074543938533715 4.536653778696516 8.064582027064995 -0.8937884781927576 0.06431126048356021 1.1194863414483365
P 6.63678343066593 1.419981030544038 13.260140558105626 0.36113329337947486 -1.538349385439112 -2.106659343341527
Ni 6.943739217783632 7.858933884918958 9.433744244997259 -3.6272470339218432 -0.8643156655446211 -1.8357684284890772
