# total energy = -381170.15566389874 ev
CRYSTAL
PRIMVEC
9.12950504353629 0.00000000000000 0.00000000000000
0.00000000000000 9.12950504353629 0.00000000000000
0.00000000000000 0.00000000000000 13.36195345572393
PRIMCOORD
 96 1
Ni 2.1488206981234823 7.264310531943452 3.9442747795373125 0.7827137363014133 1.5088151234254208 1.911598231135198
Ni 7.252204808444331 8.10326638484826 12.764540526066385 1.2320394676574202 -0.42774414853048914 -0.3701560657033754
Ni 5.166514636713327 2.7938841259345164 6.704947592541886 1.469217820748773 0.13869636026335472 2.531425383080298
Ni 3.7193511672840267 6.12034704979117 2.657117751859637 -1.2490622274676617 -0.16103796118334848 -0.7147641077343174
Ni 1.9354732980850422 2.063660676404172 10.2846958485782 -0.1637111371401374 0.24160682117635165 -0.3592671867050135
Ni 7.252003959336503 2.3567543017554526 2.717874606977777 -0.5460717153295047 -0.4445329379530537 -0.28862921267247715
Ni 6.840683245513409 5.980263926585649 0.40591056921858426 -0.5555709130691915 0.09470658494596594 -0.21858850590430742
Ni 3.76023309023204 3.108897692553814 10.822019250197544 2.053874338330011 1.6407373981897353 1.723866048490115
Ni 6.42813004852864 3.5170778566908614 10.51998601364691 -0.5266079501779383 -0.41476162022789215 -0.6984527721688035
Ni 2.425919430887688 0.30515461427638585 9.072846280930353 -1.1020550333457666 -2.0106705492490278 -2.112167931864582
Ni 1.6006943533544336 1.2424343220176857 1.0417029848023498 1.1879442771104185 -1.2278056320817305 -0.00332289372564589
Ni 2.4985629013873187 0.6937154723805428 3.3349031511379046 0.6879361889081959 -0.741332345141149 -0.4891276938442931
Ni 6.160891181057837 0.6971737288371546 1.0071797620180905 0.6369794953546707 -0.550929043421806 1.1146464968575318
Ni 3.011631947335382 2.8562751624299887 4.767050410905549 2.009759607398984 -0.9261504394632307 1.001156717766792
Ni 2.73885147038949 3.0160962752321168 2.4866598528970063 1.1326341916842042 0.8759684192922012 0.7291352888543249
Ni 6.418580586401882 3.774009513128099 0.5193245827064328 -0.8475307327767984 -2.0331905847284144 0.9141726982760644
Ni 7.683300029883636 1.2134481439560636 11.752145077898184 -1.5141915572459856 0.7463922761625598 -1.1593795780988483
Ni 3.294920484422668 3.7925971851071427 6.87205222435427 -3.2481340161354963 0.2561160705361202 0.25374088543572426
Ni 5.026185016875471 4.420990136968406 2.891954180534753 1.4107064547764414 -0.8265919257416023 -1.6848968663157693
Ni 1.160816548200079 7.127386217433781 9.620071543565645 0.9718335433226424 -0.3763207997531906 -0.9845214232029561
Ni 5.122912121304726 8.93929166667975 12.48273644647605 -1.3765094971797585 0.4298642801972855 0.6501571703872093
Ni 0.2467805599374845 0.9284250009375307 6.597117184251672 0.07699605504008031 0.4255594821743445 0.19547968780098593
Ni 0.5321077154692306 2.810919782080339 2.1218247521303435 -1.4631507886190867 0.21391783990151547 1.337417416274303
Ni 8.34924263540394 3.0786607723207142 7.970418394277018 -0.12459411653401768 0.4498561499381801 0.5893338684522497
P 1.4594152650068424 4.869002330989817 1.6398325408662995 -0.6345310338141781 1.9124276690150293 -1.4865444849526785
Ni 1.4749080348243457 7.830887606118025 1.8678939639541619 -0.06642316462024045 0.30672489383192336 0.18085242480611435
P 5.528663837138027 7.858851279630702 6.594658608581752 2.979828602622036 -0.05250269788440635 1.5281799011052777
Ni 4.4096330328711915 5.145699365538366 9.01178267444753 -0.0864155485817673 -1.4975308087608532 -0.14162896052911736
P 8.272518276213429 3.757320778168526 4.132517866998162 0.5725628196414979 -0.0403776324860982 0.20564711525229096
P 6.357969803362163 4.526874134813664 8.016757935255027 0.40350173104335674 0.08571003787431046 0.5108398887104041
P 8.312998500945787 7.30704574438643 10.796925893025833 -0.5195749545905568 -0.7750220240841104 0.05543966902554324
Ni 0.16156302233729575 1.1478070037157289 9.091485991087335 -1.3416473951952506 -0.5571238593786083 -1.6323111217992532
Ni 3.519296326381877 7.7151254839695635 6.458272934861257 -1.9103394190274325 -0.3230488278029275 1.1172782780534243
Ni 3.361565870202146 1.1715254574493017 6.950580573713277 -2.2990398233918987 -0.5793489893253957 -0.8026788665694305
Ni 1.1112889841105356 1.9600681842891399 4.4344981524203675 -4.010988294508822 -0.9155050439342426 -0.6659221465309499
Ni 6.431754461974455 8.715335781946003 10.58813229003216 0.2753484364031709 -0.8688657468091486 -1.2254325038638638
Ni 2.674360647766719 7.8149201020456545 11.779363783810917 0.21232349883120205 1.3860536892247677 -0.5025529661112635
Ni 8.282496825070549 5.060813228966095 11.548936906003126 -2.166276283673211 -0.5916774289837616 0.8437067310450179
Ni 8.124766368890818 5.638345709022226 9.234405651465687 -0.07453499509409744 -1.0110955741470586 0.08473893221029277
Ni 3.7173700647204444 7.157431418063954 9.905510079057185 -0.2232152060430414 1.293369276915153 -2.454773084532882
Ni 6.666081464276078 8.784546558602745 3.589581645765502 0.27386516698942515 1.1590304222895458 -0.602693320478291
Ni 1.0575983657860004 6.124738341648696 11.824085576520416 -0.07999344710550739 0.8028948392349785 0.5223751430435133
Ni 0.8688650239119506 8.565155426319645 13.067723167284091 0.13325796285660274 -1.8974682194917192 0.05284928259054769
Ni 5.477109522960396 3.0940531175843033 4.559847167665683 -0.1199069954709935 -1.3643970301869404 -1.1443810478074872
Ni 8.7589291678497 3.0060446903357874 10.326318174373709 -0.13326619038671886 1.2173085892051487 0.17603854835723876
Ni 9.002102660400682 6.400832828873758 0.6741482045255902 2.331275286386837 -0.6394981480114664 -0.9989121447069893
Ni 8.269907237811658 8.010811888712812 8.64499659848346 -0.11448145358004799 0.7878474579835527 -0.3587347112403112
Ni 8.51680556836237 0.8448772497837894 0.4283508922659755 -1.1558311986259577 2.0373346888037753 0.9765831421924859
Ni 8.552657134109767 3.208171928850532 13.378120856225292 0.2482495233038499 0.9951889302191311 -0.4805116700405079
Ni 4.975388451604647 7.5897682521698355 4.530985150870718 -0.21848540466753985 -1.6706817511576517 0.15352494063575495
Ni 5.191374278559562 0.8477274812139748 5.717940384553705 0.8549594211407018 -2.315048025894697 -1.6338854082649088
Ni 5.02829393250767 7.374750152734458 0.9301240017996624 1.1862090395868667 -0.9921966803600267 -1.0134458195467901
Ni 0.6794323619624617 1.8358521406020751 12.057278694313297 1.5916208431687429 -0.059005789110246766 2.516210623013073
Ni 7.378191976082248 1.5412521469420803 5.102208230089562 1.1391395969028897 -0.7639966195078842 -0.6539346351517706
Ni 5.111180707506558 6.918338814203852 11.67996356034656 1.0541360981773007 -1.9417395306052687 0.39893468049796454
Ni 3.1697001951964605 8.69176340029085 0.4561246720767052 0.003547865252258406 0.304280803166805 0.4054948502139855
P 6.233735500665295 6.702206915170516 2.6465749995996175 0.35155541988305256 0.25109444895181277 0.06405492149838
Ni 0.851646777668102 7.652442303317248 6.608594797813583 0.2718558498688802 -0.9071283898347733 1.8323838282875604
P 4.950382737679991 1.3673715965919528 3.044213324427136 0.532665726336244 -0.3548736856230082 0.4818229326527637
Ni 7.197172152899305 3.5142385806665573 6.067476261006772 1.1271238033889361 2.624324996724513 0.3600485449557283
P 2.3016942576957224 9.070902609336867 5.414717573514434 -0.5179554167092628 1.2397368363016776 -0.3808672814732924
P 2.675154914693132 6.272590673525221 8.087830217961145 -0.6056254065234216 -0.4397712548983523 0.3815884759100331
P 5.768998053664705 4.778821081574793 12.152135163188277 -0.6082623299256363 0.5568217547571571 -0.3268941696909467
Ni 4.836200019879453 8.998268268342137 8.48474639895097 0.3957398277097507 -0.38925062044098124 -1.388257895964938
Ni 0.3664382418273309 8.628797204986595 4.679556887733466 -1.716435817464315 0.8609614043604076 -3.1084480382653625
Ni 2.1065237019157674 3.459014205518604 0.30275903219028516 -0.9319688459172208 -0.6646440511494748 -2.839386720422484
Ni 8.050096148303098 8.183414308376758 1.6802388166089557 -1.0478806041858921 -0.5981915759531956 0.8723375074078331
Ni 1.4789980530201274 5.187119929275557 3.629747815529254 0.9374512091880307 -2.864170098014751 1.7128612127391791
Ni 3.1178354778521853 1.5031455934840612 12.591075368189268 -0.1442442866647774 -0.02313478624525048 -1.5568137627918865
Ni 4.381167236588943 2.1425487282562905 1.072145318895729 -0.6274900678069968 -0.041939063435947124 1.136608345840604
Ni 3.2251710669767495 5.554755962145938 11.492962998502778 0.8923602303866632 -2.654381449790261 -1.0881227395353905
Ni 0.8168934913603298 3.60088671168478 5.889708367469671 -0.49529371344568895 -0.6174162285107625 0.441592110157175
Ni 7.520539216503291 8.430906056746053 5.957025684809885 0.07426477215184629 -0.31557565935433396 -0.15946058939389957
Ni 2.794477543753101 6.185285218154106 0.24040451371441776 -1.5766415961510911 1.224321273077556 1.7655814259510305
Ni 7.32343320568426 6.3356481638784885 7.041642820351277 -0.014129754533162764 -0.8756244056892211 -0.6613257854095191
Ni 3.9971437424207314 0.4966441536801374 10.50317676922264 1.2668275218708827 1.0903364593572575 2.0746329110336013
Ni 6.079519903872564 6.89223755969104 8.96910406493494 -0.716886810504275 0.17857211341236987 0.2709981298542752
Ni 4.003160086150687 8.33833287704689 2.5767461554610573 0.31612330432768787 2.1210140694013018 0.8578467699908259
Ni 4.0971209505948485 4.3997914265875915 0.650217946278307 1.7247787901123715 0.5398930973226186 -0.5786146822625325
Ni 8.253903215719681 4.58296581292724 1.943937262079036 -0.9258203098173217 0.48858082020188753 0.8547007681626764
Ni 8.913665146421806 6.507702813248357 3.1751742463352794 -1.5000463760938552 1.2824785981445783 0.3490041142161086
Ni 0.5892912823690026 5.237852588012071 7.448113028220312 0.03624047038927307 0.8754495706742536 2.767905681663362
Ni 1.9584340029118077 4.174511763643155 9.131492394515314 -0.14452762223315108 0.7268302948702321 0.39603190502887275
Ni 9.038739363569594 5.682413829180792 5.456273253924163 -1.0955092618074487 1.0336395208858455 -2.3261762745973744
Ni 4.843814026967135 5.441121014639478 6.501151480531185 1.0398289375260092 1.160122369802144 -0.7454594799356452
Ni 6.760672264558431 5.381578383673211 4.339080218993958 0.155416501231513 0.46108210056098653 0.07182993745810855
Ni 0.46975319699336326 -0.07354181378191833 10.901857683509885 0.37280198796665476 -1.426991050869078 -0.6259021544945865
Ni 2.3421105758937704 5.628120663532772 5.943236480606964 -0.8128452655794711 1.8293139311129847 0.14602477560396787
P 1.325138506918547 2.4189627481528992 7.770136228702826 1.4310994166104967 0.6094015857364021 0.2851749355752895
Ni 3.724399783494444 2.6025753507278107 8.629830664941423 1.0706227829784143 -1.3309621475672626 2.1749370446720024
P 3.6027034831601377 4.818479650866033 4.551950145926059 1.748043417067267 0.4257489724773313 -1.1247586455908694
Ni 7.031216012803504 0.8590435025391341 7.692890574782451 0.06686796546714291 0.6867550241159012 0.1323922724221978
P 6.048223961070914 1.4384721807632643 9.578690236699527 -0.41275101755576654 0.9845702741630203 0.12292907012676894
P -0.06792625531712974 0.7226085294921717 2.603576857415483 0.3227559791528571 -0.2183599348332691 1.1146557528289127
P 1.274122833530092 3.933784978405721 11.524029790731404 0.3552212987704141 0.3043605073648048 -0.14817447495711902
Ni 5.4978243695814415 1.9516051332456363 12.464043785190643 0.36434897210329514 1.8537941756425365 -1.4084875927482519
