# total energy = -340886.1905281788 ev
CRYSTAL
PRIMVEC
9.16425078422885 0.00000000000000 0.00000000000000

0.00000000000000 9.16425078422885 0.00000000000000

0.00000000000000 0.00000000000000 13.41280735938928

PRIMCOORD
 96 1
Ni 6.436337342086774 2.187469979549165 11.394421482376503 0.4006642615945616 -0.7686803981367988 -0.7239784272437338
Ni 5.084033019466314 0.38994161557299173 5.577434443055025 -0.5666960764480756 0.5877215296598072 0.3081713964704628
Ni 3.3865938521069334 2.11476997893012 4.8036362743584355 -1.3005542246993667 -0.8161725301804911 0.8067059854509526
Ni 3.7729586606407706 4.75923364697921 4.779640600386307 0.49652835718373844 -0.655089060471188 0.6148137578909089
Ni 3.9453565443727094 2.9484235344971528 2.731558873631251 1.24499191405303 0.8882186974144639 -1.0236240456313728
Ni 5.612315413981056 4.745478106713335 2.7608918071975483 0.30493154937692646 -0.05223658870721327 -0.6116692987246561
Ni 5.974917320509955 3.072214232639351 0.020239247619710136 -0.7260851891740914 1.1034346873021126 0.9295324685615862
Ni 5.72191985207557 8.27638141422782 12.325203265166655 -0.5213058212387345 0.7468656162545525 0.6404898225007744
Ni 2.2513997922705133 6.554748625081691 0.2130083441811051 -0.5547515024916898 -0.21738934338988367 -0.05077877321476416
Ni 0.6718697069689621 9.034768978986305 13.574431761874754 0.277164149455671 -0.6358880620627049 -0.05384738483775888
Ni 8.232393010979186 9.1762558451854 7.159246426775099 -0.31419369140514275 -0.02504614433535041 -0.9557075842950573
Ni 0.07919928719903054 2.2389547398514207 1.4044415775709043 0.09264738842409205 0.6877212446839124 -0.13710613295809934
Ni 7.456171814403651 0.6786475867695225 4.678923652598152 -1.0650594299580236 -0.00960949806530603 0.12999831826872452
Ni 0.818801054495145 7.419936367227588 2.192752253639272 0.33979982200902126 0.743815773684635 0.41575997958541944
Ni 8.003525014576812 3.9481241480771025 3.5385261312274454 -0.28054309323023296 1.6825119110233606 -0.2662444172193737
Ni 7.894626223784412 4.211724654544543 12.362517344647376 1.0612773372077722 -0.3364789851659044 0.3097210003457698
Ni 8.164623377224258 7.889026866620887 9.292111218666559 0.3117596280423534 -1.0387313335864563 -1.3867476299679988
Ni 7.436578646456655 0.8055138074388543 0.12111565336964054 -1.241050670017095 0.011572535328947812 -0.21268525304599503
Ni 2.045579886320289 6.870337925638611 9.224336086361227 0.6180569474185549 0.04179533876923124 -0.4511882384860423
Ni 0.41601207589834893 5.256018511917796 1.3551360760795912 -0.8636669762170287 -1.6397716918423566 -0.28437789359529086
Ni 6.651990489013203 2.1460842234927417 6.906066589752246 -0.33489235740507484 -0.17531426859670451 0.3026795201179561
Ni 3.842817743550008 4.4667199296264695 0.502667397448023 -0.1580346555806504 -0.5655534782032002 -0.17571330380733607
Ni 6.626385572622227 6.162674488376208 4.635801271038475 -0.5051348679058268 -0.34378040392332404 0.29561438574105864
Ni 5.4190780242100764 3.097791656278296 9.242255862134638 -0.7550049575322352 0.18690942963347165 -0.12363278106201289
P 0.539405045561174 5.750164072661464 12.384138561269149 -0.2658505242150647 0.4738082898784034 -0.027639358983823366
P 4.311230088393224 6.567569411778533 12.531747146920345 -0.8621451402558635 -0.37062066404461974 0.8080645563613761
P 2.3956909191767104 8.55080490074456 1.4269618071840695 1.397666847983664 0.9298461431472631 -0.2694176727410328
P 6.714389871871526 8.102508086136917 5.671914201832549 -0.023234545047908374 -0.22838723716228407 -0.12503094696112016
P 4.835186956588519 1.349371762403885 12.930281163927905 -0.48840572807660404 0.3699141248958984 -2.0157294518291735
P 4.592984975451404 6.312216730920211 7.732254946717959 0.14840613135195085 0.6753614375669788 2.2190708017664234
P 5.08684644442409 1.2065835726086829 3.548478507462449 0.06363943122751621 0.3162138071589651 -0.5825798375578677
P 0.38548595689393217 5.9187587923625316 3.628821493145944 0.1922894629984624 -1.513600717739522 0.44167489967896834
Ni 0.8745499406373151 0.19829055759416622 4.549812190513005 0.29181583793057486 1.0895849259032138 -0.3238888072057196
Ni 2.078305425487138 6.76553555489874 4.872175705170214 -0.3802808128422031 -0.05793003954756475 -0.5594895313973074
Ni 6.273653564072242 5.88489688611176 9.266090245294855 -1.3084721939948627 -0.41426642575902844 -3.377041158222571
Ni 8.836097188563983 2.4348497623186716 10.303531076012 0.23136071796831123 0.5565957547892801 0.2601413896454294
Ni 2.575255246937906 5.776465472103877 7.1167554620870535 -0.4914794819059212 -0.0026832032591179596 -0.3784933819244771
Ni 0.9580124372511923 0.21849589748637221 8.914956482062903 0.3012782688950553 0.24603786036451175 0.45127591310384213
Ni 1.7315576726291018 1.063373827282348 11.283282948718693 -0.14206039163958115 0.9587258022960908 -0.1420202824302651
Ni 4.256812767874393 6.5937700044635 1.4669591792629577 0.8926597639049528 1.6733958076547053 0.9177784133494516
Ni 5.925338724348473 8.523073878196566 7.7464457888909815 -0.3499543939445199 -0.61214855235392 0.6271771645522682
Ni 5.600016989572792 2.9595672633201398 4.950935108336758 0.13389533933028552 0.2913900632470659 -1.1182167307072937
Ni 1.0314364136737042 8.067289870785977 6.779986661790985 0.14651637052840571 -1.354898603778202 0.8215813599008882
Ni 5.574971092473101 4.517324921863753 7.177675734886141 0.6957497714153437 0.324343378244635 -0.8063773984669403
Ni 0.6311547740620804 7.439337085910371 10.968551422025122 1.1299849269868154 -0.3379707392200825 0.8524392258220094
Ni 4.535011925669974 0.753727543289332 10.409465231710454 1.787421661754573 -0.34021145562514316 0.9350289728997832
Ni 8.7015568243779 7.552405610760714 4.760942779730434 -0.5201758213993493 -0.5293274059916303 0.17182091073146538
Ni 7.39997662925352 6.787621399029825 7.1895196124608365 0.9385030474913127 -1.8958530524857995 -0.1545019598370436
Ni 2.617255007789675 5.382714277524539 2.6851767681058365 -0.5126671717271299 0.10046868424072374 0.026104924617167943
Ni 2.819830769000312 5.54829395875294 11.313488318949423 -1.2978311693412488 -0.22631852755871346 0.47155651772974916
Ni 1.2471262176028408 3.71141155309539 4.054839097933222 0.3515356223887107 0.008823768939217063 0.06750508483050956
Ni 2.183281916989868 1.339712642190539 2.7690067511718537 -1.7215471705489513 0.9701602693852777 -1.0534365010071147
Ni 1.2093420120623992 3.500203067747208 8.362483215036615 0.3715598880294375 0.25410392520209785 -0.7546583728260938
Ni 3.9070499765436906 2.945087747250798 7.063291223638609 -0.07340885190945422 -0.4616832244800952 0.2908149074698863
Ni 4.285900099522553 7.265527907574205 5.854060099009399 0.5230351452250153 -0.06888551011780394 -0.5397149198735415
Ni 8.234290010869282 7.347465472875464 12.814863841629096 0.4176908780595452 0.23748817102228775 1.2412884970595137
P 0.24935651164049213 6.1019429991410625 8.235034148024239 -0.25836270047845183 0.6347480349209907 1.1381690054595044
P 8.863434148332873 1.9444065588484305 7.753032135852398 0.1859990020040603 0.2273708800826278 1.5709820838724686
P 1.7778829598003196 3.30126551405526 10.636221784756891 1.4222735907887505 -0.4725445926746313 -0.6154570479018626
P 4.529540868015926 6.480298252583378 3.735681238162756 -0.22259891261528117 0.4267095366183877 -1.0001614437330582
P 6.897189180121631 4.097813018631935 10.31678258249065 2.0674006549512205 -0.19774817212018847 0.4130682916858693
P 6.468146456185942 8.4831269094964 10.357061297065316 0.11101560651863461 0.1239603396047607 -0.8154937589459117
P 2.7249716102447676 8.874678683913306 5.827810935795845 0.4090851386684051 0.6867632516460173 -0.15108162130158498
P 7.391096470347702 4.255117381499185 1.1838571473552895 0.15111658830457844 -0.05847845585186703 1.5274731048462402
Ni 2.4521793603484983 1.722668349472607 0.31134075394315613 0.4274168470980574 -0.0160789078397336 -0.2556368169068565
Ni 1.6288630795448946 1.4992347537215753 6.555348883501022 0.2696868672420194 0.5504089092522778 1.1129642240591027
Ni 7.140316750577103 1.1502600879490774 9.059224698342408 -0.4098274161510683 -0.20065737534718345 1.0330216847961886
Ni 3.032093143176326 1.9822549141436094 9.156400579669048 -0.9258735316527603 0.30018966381656687 0.02633400990883852
Ni 6.824754942772214 2.19870535087892 2.2826856276560368 -0.807488115032616 -0.40059946979489713 0.185888444568125
Ni 4.541683500162684 7.200828297796006 10.264392394221527 0.14649580170311546 0.08873056986818911 -0.019506188353727697
Ni 7.308077523466582 6.209063925302163 11.082036920281258 1.133669317816938 0.6617304770471055 1.328295656478693
Ni 7.971248523693127 4.158755285632646 7.810667024783852 -0.4620292949656043 -0.5237049175985303 1.393373619924949
Ni 3.042778659465473 8.596974395654271 12.534335131311476 1.1286386973715659 0.14520639346773057 0.5687478167707818
Ni 0.39401879069909945 4.9363786125617315 10.25079172979209 -0.6089943229956544 0.6550288966572139 0.11949973273024579
Ni 8.713305393745555 2.640339755244531 5.722748300336753 0.7446696370444981 0.5664819035547405 -1.0129704225722682
Ni 3.7802075829261184 3.0224890084670406 11.686511811347975 -0.6158108316968556 -1.059237423959608 -0.08410669794293256
Ni 1.4805580108422596 3.8830946252745386 12.965825626602937 -0.17511140855727908 -0.566720759038424 -0.48218262998502764
Ni 3.561392769516194 8.691082085854319 8.1292072140587 -0.9407831017747411 -0.19854058611449676 -0.28514356811672187
Ni 5.966018833102782 8.328901734856553 3.175187418944133 -0.34038114843378803 -0.1819230321624738 -0.1782018745571447
Ni 3.218439016438352 8.766274762657453 3.6673434208658677 1.673811297925569 -1.4646104038837486 0.09390748608343827
Ni 3.558909257582781 4.779679090239149 9.183588162151906 0.47802438484228 -0.2743238517933985 -0.269246180160175
Ni 5.223274644249594 4.886066876346106 11.536234595899693 0.19489784715558692 -0.48164218410052534 -0.281230863325877
Ni 8.298293137596046 9.09973435203413 2.2150177170836223 -0.31195297500008207 0.2844419140640069 0.8376692666016864
Ni 4.412531715374558 0.4788586741896997 1.33049707170995 0.11162624351944002 -0.8742920600310428 1.6503718359557062
Ni 6.213746857398008 5.862077901926531 0.22974959731748112 0.20730341990879136 -0.10753279017635675 -0.3273410274203782
Ni 8.391072011447957 0.07157463063593394 11.242869519659079 -0.6606441859614622 1.345631319543663 0.07416449912855615
Ni 0.13833619681641315 5.353132076339833 6.335137438287952 1.1366844504941778 -0.34597278358895256 -2.9031667909929224
Ni 7.6905658539641335 6.624213645211826 2.391114292388717 -0.44902311251392346 -0.9070134615234637 -0.29828524770500237
P 8.669262004992861 1.9049911166875189 3.542738020838502 2.021988545365008 -0.513791000918928 -0.7125809840400695
P 2.0367822056705625 3.433129917043718 1.8219016050761871 0.015610195733431182 0.04817347438143316 -0.9809005386209171
P 4.990640140819057 1.2809514668509052 8.175347383366248 -0.20619964532165133 -0.004569878758869549 -0.5911732356538335
P 9.180104830469656 1.6680310869375325 12.6193188935377 0.1777557881586616 1.17525074080315 -0.8516383271872687
P 6.708011553400474 7.895496827598708 0.7872173809626255 0.2844563122417101 0.9180306385695738 2.904686312961243
P 2.25301270038963 3.8872093738284215 6.091439851440383 -1.4878045826120245 -0.9380747017046425 -0.2938940606158422
P 7.228348542578432 4.234140411699993 5.629650510561289 -0.30130629391951336 0.7719868368022124 0.982883630489217
P 2.9040960539734773 8.6028486803381 10.357222587877228 -2.853776927705885 -0.2850885465090703 -1.2233743357832545
