# total energy = -381176.35098687623 ev
CRYSTAL
PRIMVEC
9.13500332253799 0.00000000000000 0.00000000000000

0.00000000000000 9.13500332253799 0.00000000000000

0.00000000000000 0.00000000000000 13.37000074282136

PRIMCOORD
 96 1
Ni 4.70997103385323 2.909580687246523 4.2236636653519275 0.07423057647980119 -0.08191097584319443 -0.3856659884135164
Ni 2.72504449058311 8.699345621916645 12.333918518421841 0.6997218686892143 0.5170794418622128 -1.2212176944515678
Ni 7.464101374155478 8.639940697066283 12.283982024235387 -0.48863121382384883 -1.0060973496015189 -0.06407163366892836
Ni 3.7700979747913723 7.314926774308264 5.387027314593944 0.35119700810236937 -0.22678543989280298 -0.3709376810644063
Ni 7.282177788365077 1.975864620242046 3.1424986005768547 0.2588095582078833 1.9151059871781406 0.0556381581895945
Ni 7.96514715658167 4.11964886659502 1.5328708687141408 0.14348066902587547 1.1752437988246147 0.4868689797171034
Ni 3.612391282093131 1.2008235562593745 8.567736719439072 0.8828913716642796 -0.3415898240299085 1.3319918743833576
Ni 1.2505271078679894 4.868746521908612 1.5029619552199733 0.0622759752210863 -0.7591737441979441 0.45063210887225613
Ni 6.050432246773013 1.2072454634052772 8.058099466642009 0.8772462575633603 -0.36536944294800944 -0.10883582525849644
Ni 2.1468444723755593 6.293770458085324 12.951131394165673 1.0482768111830463 -1.4396737885430688 -1.0726351854227527
Ni 8.229605494951345 8.693627110005785 1.8964138446932928 -1.3094690106904932 -0.17051864698027408 -1.6614522621395837
Ni 6.751178330929758 0.4680601999039464 10.20235325215188 -0.9552203602459935 -1.0030148540214532 -0.19267564269328752
Ni 6.915818490944841 4.866901251292008 7.96056503905054 -0.9495973576322614 -0.008676701838391507 0.7813577364941511
Ni 6.279108778186073 5.975516086739518 5.8234511719264965 0.36331770262530333 2.7567087845062783 -0.4914699688242245
Ni 4.975991457744881 3.2774107201582097 7.863311969553088 -0.174831415423015 0.3082582997573143 -0.6230132629825658
Ni 6.409556621775675 6.696532742669745 10.320142722011642 0.09177552734210001 -1.2959159545964067 -0.1555838800473127
Ni 3.324583875921284 3.7499370230545197 1.7167612206617424 -2.0311861527038766 0.659999867509244 -0.03195341297814496
Ni 7.655534498123522 6.940126734067525 3.771302881693996 0.1481701040817448 0.4510586548867135 -0.307498024552522
Ni 4.727565049732331 5.4399673977840575 12.263298550323931 -1.273434485664439 -0.717570466834861 -0.201940098714349
Ni 2.1719291907577056 2.4797787936267226 4.728380805504918 0.7101129821155513 -0.47588574123272237 1.1032035451279132
Ni 6.494320315099757 3.8972115422668137 11.37672092607093 -0.33477871464534603 0.822624713563738 -0.6668914524227547
Ni 4.8622332647321835 8.707731554718835 7.005826589521361 0.8930400300625071 -0.6677833681094048 -1.210427031593967
Ni 0.6437655891165144 3.6338311342573326 6.621412872068178 1.6014303730599966 1.246663388218182 0.4667457266046671
Ni 8.470669090503586 0.2882568483220301 4.173285037017734 0.39993715362054993 -0.16620330743437184 0.11818101391882227
P 8.358500388022023 0.7925108438202593 8.132102126370256 -0.8578434275567162 -0.6037886104249989 0.03936076118580963
Ni 5.266722064893526 4.933860823666782 1.2052010497221293 -0.4400821012705518 0.395242576358358 0.9474615422361811
P 6.202612262624496 8.169515444872046 4.812545242628759 -1.0671520508209942 0.3341979024412115 1.890843000865718
Ni 7.779478219539749 8.669117896815946 6.416129256471943 -1.329787410532871 0.3603365085097924 0.4156838749318454
P 5.950815038485575 4.023850089583526 5.753980387212592 -0.7758630319281671 -2.7102060129590484 0.15655935658670456
P 3.820596271665554 7.392446410211721 0.32062307763731834 1.0497186858358953 -0.15264999422996933 1.2407501080575407
P 6.490337453768871 1.0584271286771123 1.2020750516775662 0.91465580856007 0.5163263657462721 -1.5360171377615095
Ni 5.2015072781017775 2.7161104575977713 1.914958814390159 0.9376761807146431 -1.4060890106090882 0.8233808750034722
Ni 7.7374023954799656 2.5332002914777028 9.319812385747777 0.06514558345939749 0.6116556718779014 0.27570222019816387
Ni 2.558650409981948 1.7359885750866302 11.115189442679275 1.3154524819674376 -1.0748172806757361 0.15721344523093572
Ni 6.061924080613049 9.06639917956887 2.9099935893844955 -0.9989748796241246 0.19852284550268393 1.3582284394823834
Ni 1.960691380171855 5.866718200384325 6.760740852125108 -1.065457436727391 1.975984567831068 -1.4252087621576746
Ni 2.5914359359373456 4.709450338679237 8.558752443936946 0.2576235083195821 -0.8711717692345061 0.23695698110916608
Ni 0.07104565924015453 4.385605345465304 8.863040309115796 -0.5509498693574124 0.8707503654263714 -0.5386533113782466
Ni 4.666497554326415 7.953682727750792 9.322312636083243 -0.3700599064451433 0.3436029978051953 -0.9265327625033141
Ni 6.796935561219696 5.6886952608973385 13.113924456563542 1.9719001133490492 0.8454116295512666 -0.621976079967303
Ni 2.466560444209765 1.781508295297203 0.14091473008714797 -1.2405670455124571 0.025796906458445894 0.7445508520784467
Ni 5.44704702514974 6.727007112852862 3.0343483859380838 -0.7209666370006035 0.799278839748946 -0.3070195422542067
Ni 0.7059859219076552 8.097358055760404 7.593652160445323 -0.11830391264993173 1.0548446942085512 0.5052156005450912
Ni 5.010476094268042 7.727938532317582 11.871410573373199 1.033136870217814 0.9006821199887972 0.7700888484485512
Ni 8.652528731272618 7.095988156149163 9.529520996822638 -0.02960008225461999 -0.44194409417995495 -0.9975121790356691
Ni 3.282380161818766 6.571501955890272 10.747969627971495 0.5930845937439334 0.1393522486797987 -0.9097632563544589
Ni 0.7190553707748571 7.150341424311497 2.667929710998007 -0.30822873207095947 -0.4151966508827817 1.0267353375668447
Ni 7.643439754082022 2.758862271883439 6.962869237667012 -0.5428046145424588 0.14044368197176457 -0.8853727433252364
Ni 0.24409093556383643 4.1866906539972675 12.977496839975778 0.21260657728925964 -1.1000572861894473 -1.526664492902016
Ni 0.04633456248285547 0.35560283132592485 10.334048023658148 -0.9632972237168571 0.03742189229188394 -0.5242091109284585
Ni 1.185695991204446 1.5123728353646517 8.58166851259443 -0.08353668437207548 0.42042010406525016 0.06182757482975803
Ni 5.144340428999276 2.4638473483031746 10.264136018296808 -0.1925036358917975 -1.9162555274015514 -0.4509468118991975
Ni 8.72603810083603 1.9638794962371753 0.8345620033718008 -0.16083381559234236 -0.7526814516053811 -0.21143106892391977
Ni 2.120882793700374 8.700514902307365 10.063826411862655 1.0684645989848307 -0.23203563254814877 -1.047226258431345
Ni 8.605437790537017 6.106968780664893 7.084575796835683 -0.009975366045157015 0.330757766411411 1.1592831617303
Ni 0.22653437319725 7.467298625223849 5.308250702270465 0.8948788830434589 0.19699638155582846 0.2396622958554711
P 4.316042297220569 0.31738928655673576 10.72873039804264 -0.609159387818609 1.16366972083377 -0.025334879220362816
Ni 3.321012089727759 4.014815571564609 10.593024446696022 -0.06519829107420384 0.3171419754001893 0.880435196814303
P 2.544664720308581 2.6660049658548473 7.4052555114919265 0.49588840960689434 1.1508005781805857 -1.3769920932431317
Ni 0.6945443305844077 2.7822113396856114 2.8066173273409576 -1.1294079714374226 -1.0588389029696086 -0.2708124962060304
P 0.9117198931543784 0.46024337779192803 2.3170615517541893 0.06462364951765645 1.8887272400742958 1.3212901716951373
P 1.982140367339109 6.81450217208964 4.276742600588439 1.5066427983644504 -1.6451216433003604 0.8243653504039287
P 8.788905191843288 3.0007662877165084 4.832118813669335 -0.015616109270702136 -0.39002169427905087 -1.1116388203794598
Ni 8.682738186367212 5.347393276850092 5.00880347520913 0.298288333028796 -3.0600778744920913 -0.8646483662936916
Ni 2.779242463693551 1.5326708121472914 2.60709698517054 0.24319062072370376 0.2805904015284006 0.3607149748951336
Ni 1.3175963002793938 5.593033508931632 10.585670769238764 -0.9363340648644519 -0.1811146773285655 -0.10152309364716708
Ni 0.3917262873967036 0.3445531316336292 12.647792655803977 1.4039318550567694 -0.24279621349876251 0.3154147082964374
Ni 5.500459387997667 1.035059790868835 12.43149314002674 0.9692182171869824 -0.821938486129991 -0.32788558706993853
Ni 4.193213046176748 5.17077712783319 4.049118421527027 -0.7746615554208981 -0.20139451062352412 -0.2501320850385434
Ni 1.84217385056881 8.996461596198984 4.6012051200087205 0.3377604229814893 1.014333364358066 -1.1839526394525222
Ni 0.5156243337976674 1.2557705996201207 6.079286067414618 -0.59041038934588 -0.3984826805622105 0.6331341534666516
Ni 1.8090411944974172 8.331680019059904 0.9760029096347723 0.007633091065225565 -0.0947109558213401 -0.5217133410897983
Ni 2.7047921888157327 0.0709616172120716 6.7751540599413325 -1.548956728641313 -0.3542864456609705 -0.24629188535684676
Ni 4.244305118249341 1.747270303856459 6.179587487430687 -1.8745486345810685 1.5627735799197473 2.3531348054640895
Ni 6.507438179483137 7.345620384564642 7.9048122884205645 0.8979150987666212 -0.5440621410986436 0.9069250155747155
Ni 4.388208821335265 6.162874999346151 7.555173700587612 0.010850055340626476 0.15345320685755506 0.6045154612886944
Ni 8.225796198678456 5.315758761279308 11.242860245340918 0.522850540018035 0.3084480471706172 -0.6357083419517309
Ni 4.301590722391525 2.9367390513215845 12.551929933771115 1.1367451285287842 0.6806741080291439 0.5260605623149004
Ni 4.260455803646149 0.47490323069056894 1.0873257108336742 -0.03304150383600116 -0.1038990500785114 -0.47036249742164793
Ni 6.294820983436361 1.4011267681913906 5.507437616829466 1.458702780150062 -0.7644735591443028 -1.2135210971382584
Ni 3.649205344394679 4.382499444427457 6.118112570888629 -0.2826997345619196 -1.2624473905253162 0.14105946117889254
Ni 4.23935394659489 0.5486692938397559 4.385119363302912 0.4081214892035552 -1.028539223544803 -0.46175470114797895
Ni 6.017116890640572 7.982056047231835 0.8686492672621787 -0.1908283050719036 -1.0247391330724223 -1.4601791075852721
Ni 3.0535483353538138 6.250105143494408 2.2467613087631184 0.287279383512802 -2.1236180826830524 -1.214668066258508
Ni 0.9697445190435093 3.0337436487360088 10.468054864437 -1.4491218213298462 1.1921963675185532 0.4994822976057398
Ni 0.1716558423593977 6.5791022784299455 0.5093239221923629 -3.3420232473864897 0.8144982278018618 -1.076558688846875
Ni 6.473401158109548 4.482701292910254 3.366178285320201 0.27191395680032526 0.025980740334477833 0.8827319632682796
Ni 3.2980649620598967 8.30997525180718 2.7882331336978146 0.6267578176266625 0.9389758733626732 0.8643056382422922
P 2.1639451980898268 7.049006835450191 8.707293074572314 1.094490076514315 -1.6992076265114864 -0.003585917579045437
Ni 1.6866412885970623 4.523196761441955 3.751221404483701 0.821616841124514 2.3388973217084685 1.159716392612977
P 7.203872542199106 6.342332134312378 1.765374966406195 0.8389229365031293 -0.747052792564694 -0.2981134980138285
Ni 6.574251591809072 2.941973408070663 0.05188042283602402 0.7928251137038024 0.24943428764057046 -0.06563717838383534
P 2.5052654521431785 3.896243231943249 12.753589693656425 -1.7926623413282223 1.120190823714529 0.3956914909703185
P 0.03749553352926315 7.386033638068871 11.544287027563726 0.25726483942858275 0.12033996924335402 1.292589204216019
P 5.233470653782451 4.503912769998142 9.523103657178265 0.41054552526401555 1.9373403730963086 1.019262169118251
Ni 8.040976816920415 2.0034523294605755 11.52665190417089 -0.10563068805763744 0.540650030093301 2.030864507698399
