# total energy = -340859.2604916547 ev
CRYSTAL
PRIMVEC
9.36682917420639 0.00000000000000 0.00000000000000

0.00000000000000 9.36682917420639 0.00000000000000

0.00000000000000 0.00000000000000 13.70930131005293

PRIMCOORD
 96 1
Ni 5.967176032968397 4.318923192560285 0.044232977707520334 0.15030977613256694 -0.2194220575491963 -1.2919906514000716
Ni 8.653638859214734 2.696756971578181 12.248561416020651 -0.9572602734941579 0.6664014001602137 -2.4031957266762225
Ni 1.8114042720642105 6.39069721693501 4.745666565784544 1.5669948170899464 -2.6561367419184707 3.30489394663436
Ni 0.4568539824906325 1.8636618123793653 4.957104938842085 0.5650762814564655 -2.9385752523992035 0.8870814984862271
Ni 3.7312202257214664 2.6037537240805695 4.87336829550898 -0.8723809590512588 0.44619567036745744 -0.3205502297507899
Ni 1.7645794927067164 3.6267800797250556 5.759250220874861 -1.042084309219089 -0.5905852243608474 0.40518528939336673
Ni 3.487673298721226 1.4911430136101038 10.535104203925524 -0.03999788054917628 0.6441878401776518 0.4458560276398515
Ni 5.867587904516932 7.5188849644271825 4.990089291318475 1.9699239634592847 0.43043326532687803 0.5665981174176307
Ni 6.175428747402317 2.7134392944498944 5.932892501276786 -1.139401849425341 -0.04693060311326756 -0.746166790415315
Ni 3.219500977656002 4.620254089125714 3.695766777058111 0.0508466503382221 0.04811048235398165 -0.47141099329082037
Ni 5.806253906670789 3.424016327224221 3.5541496858186727 -1.4032484558364995 0.4191008710331944 -0.13807209641579446
Ni 5.8865370000640835 1.2363184242080982 10.098010484393997 -0.1538607267086189 0.1086843872822967 1.2033521270250567
Ni 1.4835933492448026 3.350149511858508 10.147953481204604 0.617501332025401 0.21481438357385585 -0.5559282964086103
Ni 7.836308073622373 5.9566945510518075 12.226859409360644 -0.31057974880163924 0.6026935775886072 0.7903481129182196
Ni 1.5164147188924642 8.527842342557173 12.974153476062446 0.4182922590889699 1.485653854817609 -1.026200290998981
Ni 9.154146012683096 0.869001025714335 13.77606552404721 -0.7043408555184644 -1.9117707521573208 1.0586710099331766
Ni 1.6907876119749023 7.042900169902193 6.765677618427846 -1.1496001301145815 -0.7155742623404386 3.5169654773557557
Ni 3.081977190793284 3.92008360363408 8.13316630922697 -2.116510010883361 -0.41982489368341247 -0.03819476590216648
Ni 7.8059033459179465 3.4111650375105818 2.4475627832307443 0.02306690912179253 1.4039601371915433 -2.3019454270744677
Ni 5.789412347702039 6.58779403774725 7.7670047774610955 -0.6422854809486164 -0.40032744708043316 -2.126767426945311
Ni -0.01577655048446234 4.6208629330261415 3.843704604666911 0.6182976026744513 -0.4420106857518323 0.41501050301390463
Ni 8.814336181610647 2.892223964103123 8.747041133637858 0.7106714257221826 0.24424374457856649 0.49141828965068274
Ni 6.178238796173521 5.086094607586657 5.627586322383027 -1.383640966018217 0.4769949151365011 -0.8368786523795909
Ni 6.450223416738345 2.372074569724047 8.211378396675888 1.2298794838916238 1.2061965384523874 -0.32713533916747534
P 3.4488290578739513 0.5577412901573181 12.704518992953272 -0.6611398946509582 -0.19870410827555457 -0.1820382175840994
P 8.049422172430475 8.533443706441107 4.320705700164152 1.0563336200492517 -2.0388503541173533 0.4250336915778615
P 5.857181357234239 0.3779356361172189 7.526790568303502 -2.297216654140231 3.103051806950456 -3.9117655668600566
P 7.970075761960914 2.797225581977957 4.419878878080403 -1.4568402730200265 0.5753591514397124 0.35007806400657776
P 4.790308873929736 2.541932651114084 1.262925839339704 0.5590964097239468 0.7519486872044147 -0.11468868449484763
P 3.344491946999151 7.175609406536916 8.397728654304121 0.4807633810399978 0.6151341173448052 -1.1175839822193012
P 8.642979407542635 4.0759757426312335 0.14156932041032794 -1.3552750132810143 1.3213598485908082 1.419653379557084
P 0.5373103622248184 6.437456428487843 10.85313334697237 -2.510076742201193 1.1487704351244346 4.74513749163797
Ni 3.49673102259374 9.283839130303393 8.746383582225395 0.7478979141738087 -1.1636506946703766 0.24448337139319828
Ni 0.6537644034010498 8.503881993368042 5.328366709127695 -1.1960951883523272 0.3377570805473796 -0.10419112739763348
Ni 8.52146353184654 0.4981307888908464 8.819673400910087 -0.34815256484909074 -0.10152283653685097 -0.012909508972816477
Ni 1.7787796058305332 2.260122226679284 12.210532089317025 1.484740084754088 -1.9296221785164442 -1.6717366747847273
Ni 6.971581132089039 2.339243833247148 0.30397234241036153 0.22466659377758727 -1.2112060758518366 0.9550727789245359
Ni 4.862049419058571 0.7529834787805639 5.271363933120901 -0.2658289269485099 -2.088856510832151 1.9513004348208265
Ni 6.913244519598847 0.8147371105765406 4.348727506510596 -0.16706231300055746 1.5358009079856452 -1.617946368437149
Ni 5.154153988825215 2.0720643960810827 12.31542184311683 -1.5259697808278365 1.4704398660813323 0.9152309643372496
Ni 9.094863350439931 1.572081785050013 2.692877230908072 0.41513468729659475 -0.9690017303008022 -0.453345136928045
Ni 2.0245652050185 0.9909636991650498 1.467553590858771 0.6210813360671755 0.5721676410856081 -1.2457174793651449
Ni 0.10057539225308194 6.128088792436769 0.763834013769106 -0.45384110272785716 -1.8609264158119436 -0.09104379138239804
Ni 6.2796628231555065 8.015186411567974 2.407709734874607 -0.18244959408990513 0.6339502216100437 0.2590826093636119
Ni 3.403240699975787 5.05053812380169 6.00012291812784 2.173776191594682 1.310772045772633 0.5121755768026922
Ni 1.5011561540648268 6.255842976404935 9.206577776022066 1.8008826723554856 -0.135915712194424 -2.8638607943044483
Ni 2.6723563814148936 8.372474745997312 11.078006563205038 2.760015737392324 -0.9019589298186917 -0.9786526231270047
Ni 6.989677846175592 5.642128324774006 1.6988561986799524 0.9198761764187449 0.15112018784900424 -1.4412691580546468
Ni 4.397716960104841 4.984258440118228 1.464934625404009 0.4851702518584419 -0.06524534226205538 2.2321114370004653
Ni 8.402935674677162 6.999531750533281 8.54940853019324 -1.1239806297742643 -1.291113391001441 1.4707607397558606
Ni 1.1938304867874956 6.874184841679113 2.996688463855551 -1.4211402485152556 0.24740568724631587 -6.233214354074775
Ni 7.569587611088938 4.7051175620160715 7.4035577528082035 0.0539492005229458 -0.622835856864437 1.6594576003070582
Ni 3.7213944218514907 7.772107826029602 6.205008257450933 0.9733952313828074 1.0109271668899946 0.6671429063119285
Ni 8.001838679904756 8.270563643894985 10.765928166772678 0.5693589679922194 -0.4654951420270177 0.375239907984186
Ni 4.129282367820972 1.8950875244706622 7.695702599940567 0.8880783151818576 0.17830394735264773 -1.3487811780265544
Ni 0.7489360718671068 4.767125971567304 12.274047621692548 -0.6920743794462856 -1.2538799605712792 -0.027016380687843792
P 0.25895442441275157 5.149657910791289 5.9441064692397365 -0.8836976696156587 1.1188304530318924 0.5661394326136572
P 0.9214121820289825 4.439286948260184 8.258935662079741 -0.8679710029090213 -0.5566212087105769 -0.6621755350043241
P 5.30302100589436 8.494702500715443 10.951881270841247 0.39073183297219805 0.1544417960230695 0.029615765983903836
P 3.3409325518889594 3.7162988667463743 11.471943553708417 0.8079527133738601 0.12404467178845088 -1.1600760899452407
P 2.9439007610055627 0.13164048141874088 4.342531348970092 1.4975277234370596 -0.3573663701378748 0.7948187470950635
P 0.23659861307197716 8.362826911882845 7.744027945341885 1.0278992759679588 1.9870534240507198 -2.002766721020919
P 7.372996599055514 0.6711220746607761 1.7681023571828822 -1.015085154922426 -1.1707009166489386 -1.3294498246877944
P 5.9466533101093715 6.532136338418939 13.63388642305353 0.3948193727780103 0.6285367639039562 -0.5295960862719847
Ni 6.321570017163394 6.4120067534499725 9.871546780556828 1.2638566121680168 0.17689806814405662 1.7453198474885165
Ni 2.925035966921547 4.184097052517922 13.489980078748484 0.07034409694120143 -0.1502627249447154 0.4979959428682004
Ni 2.391482639903828 6.324183362520613 12.351107589145272 0.2117102907272354 0.3240381882993903 0.5130119566610584
Ni 1.265102690454463 9.16246375704586 3.165944258125627 -1.3184318763107359 -0.2739998927950765 -0.07625634866057834
Ni 4.718540228313189 6.407988383707151 11.50682000569075 -0.41993416556776714 1.0719803254475733 1.6861011710365155
Ni 5.929305942361807 4.387685085991643 11.404657872564862 -0.09499454850002995 -0.6717230694834432 -0.7140537119308541
Ni 3.385069051255335 8.434464421890068 2.116908091054878 -0.34777384135343337 -0.6909814034924229 0.028459283781957438
Ni 2.0489283278648376 0.5402112692396246 6.6993108232324765 0.11970079299745838 -0.06760638629506421 -0.4448424987736726
Ni 6.263551876867272 8.623571337362852 8.996084516034573 1.4172843651042752 -3.3176831279792283 2.080629237826352
Ni 8.389372505941484 2.6292314996061514 6.483540291652662 0.32254463447299936 -0.06560658225621605 0.9917243687092984
Ni 3.929469166529901 7.111605862358129 3.9996473245419466 -0.49411357709465864 -0.8547848432360504 -1.289613923637779
Ni 1.5274207432463458 4.2507795098585905 1.9083481446219732 0.30985058394509857 1.7471939245827781 0.0745812749510006
Ni 8.123392022917798 6.55454179395467 3.495460880549156 -0.03734218809388408 0.7328340778621508 0.772205894791554
Ni 6.873369927535463 0.6621027547881354 12.27396519359526 1.206566005976664 -1.6775615089966205 -0.21132411103241025
Ni 4.070355645088826 7.806240551770491 13.595459006107319 -1.1768430249909345 -2.03737556934404 -0.9043528839721651
Ni 8.278366212649694 5.005764680047174 10.116518402284068 0.8680229391928793 -0.18651167997442072 -0.6978989565478626
Ni 4.651323861705992 0.9500962232025079 2.8434602510934983 -0.07167644259937979 0.7568389254171805 0.45107279595410055
Ni 5.096828993892656 0.19460992764972498 0.6288842315808106 1.565756059586839 2.416070011535729 0.07403208731574991
Ni 7.912938103613103 6.646552157553123 6.277502832333375 0.981285689874478 0.5393094569050066 -1.292058785633846
Ni 1.2537407265895621 0.47847168768750403 10.189986190724271 -0.6609902564469714 0.8971198565588356 -1.0292719879457695
Ni 7.6584788205513545 9.07591425489278 6.486596688032808 0.47671312223002416 0.12581873296973814 0.405773814906985
Ni 4.137749981451533 5.504023794498574 9.393626799111404 0.2863409308589327 -0.4689800152518246 0.8995896582555669
Ni 7.7767069391851384 8.196715562187746 0.2761968836728586 -0.39116506385487476 -0.7405077923573247 0.25493696262635446
Ni 0.9669658826589687 2.738120889490302 0.3373529117634924 -0.7662507056493836 1.3396439916119767 2.389664524959007
P 9.087538489976327 0.7245148746794975 11.6136018589965 -0.5099664849665153 -1.3007496285396245 -0.0130491198744743
P 5.915930110210876 5.809466729099198 3.4361267007451857 -1.4926621678146423 0.04475030763249713 1.4944596260346972
P 0.7103971896529692 8.046593390000798 1.0049558686797977 -1.3219925970788007 2.3823353382874455 2.624630958000706
P 2.1020288828113536 1.6985527134126623 8.509596695885747 -0.09261422119331146 0.6268043545938817 0.7744270708125888
P 5.143532004470064 4.218951024110088 7.7453027708010875 1.150004821752168 0.08976775288345186 -1.3541077324457904
P 2.744986775321277 6.2180197199445315 1.242217653261779 -0.8654232967865031 0.48779020597979217 -0.3330180232004974
P 7.2062951391184615 3.1626443241853104 10.141085722007782 -0.804860961822414 -1.0006874914398571 0.7806252292035007
P 1.4327314664860125 2.820474052145051 3.4857128213618496 2.702134548804824 1.0956118488235842 -1.153046179681653
