# total energy = -340863.75667296536 ev
CRYSTAL
PRIMVEC
9.34438644628546 0.00000000000000 0.00000000000000
0.00000000000000 9.34438644628546 0.00000000000000
0.00000000000000 0.00000000000000 13.67645410919544
PRIMCOORD
 96 1
Ni 8.928290125087074 6.666864540341752 4.956428825061578 0.8628267397039204 -0.7772308588099711 0.15020564645453488
Ni 2.8053155894976305 8.379513006298419 8.761273236504643 -0.8250122399593082 -1.1375506551492152 2.1257274157165713
Ni 5.6026136955474914 1.1180184435803577 7.368394342021669 0.39730100154928355 -1.282781731207294 3.2577396575460607
Ni 9.206631359887469 3.6601026709291604 8.451665685135202 0.573097094878413 -0.693745082280489 -0.8379153211742215
Ni 5.165034773761714 3.91042009120757 6.330557273989427 -1.0146521811500655 -0.9614090055552087 0.41051441491576396
Ni 8.687176925316885 7.839491577475455 7.097286596658242 0.8131136887495094 0.8821560361601517 -1.2166717269520984
Ni 4.205487777489911 6.11406933544291 10.035795199638192 -1.3752573699402122 -0.188725656906604 0.3127929544028742
Ni 6.747235606931814 5.5615638065194535 5.945523705261347 1.0673407697930328 1.7632131828291697 1.1563526183470665
Ni 5.212625733201685 5.937684699591959 7.9297854478804215 0.14141992984210483 -0.8898580327900997 -0.30356835048081265
Ni 2.306446837952033 7.63626986416297 11.245888553652824 -1.2718627703019452 -1.7694799896744882 -0.6008732365504168
Ni 8.638782348654876 7.953969654070602 12.676390750706611 0.24023513763980564 -0.39248789643135634 0.581480948066734
Ni 0.3507620975240677 0.07250309332313655 10.22197275233444 3.45977797240117 0.4767084942443338 1.0685293907844953
Ni 2.5549421029014043 2.012332279072574 11.476869635354927 -0.6149443699315023 -0.23574933395431014 0.10025528267833701
Ni 5.137478178554867 3.1464791334115008 9.009829239964981 0.9947341020698997 -0.05659486567590898 -1.6307352926717014
Ni 6.863255507266917 8.776397125735665 11.477813418371506 -0.006648358554453066 0.46751345800862704 -0.9085982895120803
Ni 8.099657980916977 9.014865864182172 4.524567733254462 0.4544609957000431 -0.0852814349773241 0.5016805908086392
Ni 7.988132730393503 7.305497277817772 2.5864093237759582 0.03786283648404447 0.10145778762687044 -0.7819616886267372
Ni 0.7871496100562417 8.145202519756642 3.0451448705898194 0.4919422804749528 0.6757255057746169 -0.01695899645184176
Ni 8.385558824236307 4.1343022426354645 0.022009767497527494 -0.5575159526107044 -0.16598502077597865 -0.17493837331452453
Ni 5.236995892679291 6.5883903841711495 3.217098398456 0.10788194598565937 -0.6066965281004132 -0.20632382960434145
Ni 8.094004627203805 1.7647153864356626 -0.06820280674660512 0.17953884820101337 -0.838832433671852 0.35829350993783454
Ni 2.442136671454452 2.764882429965576 4.726377509796599 0.9960147685545363 1.9962250632476586 0.5052814207860201
Ni 1.5574942757855947 0.37622928795361743 7.248561932075038 -1.0648802240676822 0.05887697684186634 -0.38405467806233856
Ni 6.912005170608431 2.076089026816325 5.944019259066602 0.7441320193734733 0.8513691326862822 -0.4722432593841286
P 4.454440917368117 2.71977707728214 10.968324771792819 1.283073808526416 1.263221035466547 0.5517965336284238
P 4.869172814643639 8.694325380838498 8.711559232496684 1.7118199159588585 -1.5519304665576563 -0.3404310278351169
P 8.637016259643655 9.126064061185048 0.7955576888514677 -0.06121822338053328 -0.4863195349715366 0.9099514611058652
P 3.2950829087843374 9.372793237123195 11.232115862681182 1.628995170052143 0.7319863851498748 -0.8955046895529158
P 7.874682536291659 0.5284960627571372 7.033430798419682 0.13525982377797993 -0.4159566689772578 0.9632805115463088
P 8.913927803339726 4.4051119020758325 5.0087003876006015 -0.2460645998373891 -0.09938136471381595 -0.3720483976300818
P 1.114458232399005 8.513464783948525 5.174418406486948 -0.34712823734963444 -0.09678815006534298 0.7730384179951784
P 3.331292405707543 0.22851977034995505 2.4076717714539715 0.8274391042332458 -0.22675381532391917 0.5555452020375788
Ni 3.1666723522117706 8.043825272757969 4.1077772676764415 0.10835760007049725 -2.0536264839852634 -0.9743964189538121
Ni 1.3595147631889595 4.599092017334885 6.279379939086455 -0.9740169241272063 0.7397164068042809 0.03569025431275789
Ni 1.0327135410224362 5.3961401358016445 10.061247439049659 1.7136029760012101 0.10373064282144716 0.45970527481811796
Ni 9.256735959242883 5.817908355963145 8.097609691439411 -0.557337260940995 1.32650205491338 -0.7402617377847897
Ni 7.891250133206458 8.76336170684331 9.115493691399362 -2.2135892098265617 0.6407122229242256 -1.2590352795199735
Ni 2.773684841862779 0.6510607712586952 4.994189490111042 -1.0347571794300565 0.1009872757483551 -0.5966270596795531
Ni 4.65044876445487 7.732012446221077 12.3116120737284 0.035521332835061405 -0.011339850492851439 -0.9645832895181323
Ni 2.2600332711862103 7.071962375339124 6.694733238051111 -0.7530254652083612 -0.10477193960176795 0.05388826537802332
Ni 0.27840103887273315 1.9199349873108555 5.7308037246033114 -0.4853438013218287 0.44328209626508824 0.27524893471082923
Ni 3.1609722765670853 5.607304577471478 4.88280814313663 0.2570804913319185 -1.5549080611287414 -1.2460609787474928
Ni 6.597622637838279 6.106883502376085 0.861535597219385 -0.45031174941835994 0.5336044361004294 -0.9377826243855205
Ni 6.381281406156714 6.89427886979209 9.834875008672078 -0.19435225906476206 1.5429632300620395 0.06099299474360463
Ni 5.344035837777438 9.03414333312477 4.783284822380425 0.42119246345490036 0.12140440595212641 -0.6951764154103769
Ni 5.177453463158086 4.880199190480899 12.284477844782437 1.1905452050683756 -0.08649011057344458 0.9154729051447266
Ni 3.323583287007764 1.4302330787282684 8.696583919007876 2.0747599235297685 -1.378896509354696 0.8613151881554005
Ni 0.8185205837518771 0.608850309451855 12.661059416099668 -0.243505066640329 0.35855807645313087 -0.21230241578527953
Ni 3.090039040142813 5.422164251654838 2.3332306524116424 0.8183528256612617 0.7471132134889843 0.8758984852862141
Ni 9.338676882731809 3.2435392739382976 2.1704533118947746 -0.32624702302525105 -0.15900447569308745 -0.7360322730844743
Ni 6.3766652793231495 8.42767397330286 0.06997824014413004 0.7301727289799037 0.40864239470403174 1.0929042200844337
Ni 1.806223150392535 4.806126240258899 0.5601847455870664 -0.5827847544798221 -0.44432956369299603 -1.1303911612862985
Ni 5.038764081652481 4.432547020260745 1.4666631031682194 0.17809568799658362 -0.956914717229281 -0.01619332193041082
Ni 0.5642598324537013 2.8116791165698123 10.550987659616085 -0.5071297868486685 -0.06988386947533126 1.6968594379942843
Ni 6.18144236068583 7.871038225633582 6.657437923439525 0.8144663461226619 0.6352918232396026 0.8878332890505871
Ni 1.4901960056330972 0.4766244399518707 1.313561874667863 -0.4119431769424906 -0.8465809672690194 -0.23529733401855604
P 7.012504045294644 6.127814927694274 12.3598767634208 0.612514677444087 0.251290881233335 -0.6231986395204945
P 3.6526645394321613 6.128534445439587 13.289301196007019 -0.849649321781698 -0.3863445025377798 1.223537086613364
P 0.8366057090022441 6.142803323323906 12.172153649230076 -0.580407255386581 -0.8266191794351119 0.29781962092249353
P 1.3729519906923324 2.090488726108882 8.828793903051146 -0.3831522208527272 -0.365604441776951 -1.633950200064573
P 8.303879543563857 1.3185770067965559 10.979744546293423 -1.1267764473518465 -0.17388293546681666 4.8745110318385025
P 4.455291256521669 3.8753412650269983 3.702927058916092 -0.339785423831318 0.8852812120526947 -0.10058746920677517
P 5.811180397825157 2.6983410551036022 0.21908567793868572 0.7704117790056086 2.0725523743554883 2.4144383894695776
P 4.491220421855791 6.735312170009489 5.909978594204268 0.48352603138679956 1.0120337696906119 0.6243342957868344
Ni 8.65773276407688 7.095519573208389 10.535847884928351 0.552692563080132 -1.1715524660159564 -0.0006905983091213913
Ni 5.262786398874916 1.2539699198992538 12.65193742619091 -2.310034631840505 -4.397763971046749 -0.6456559400827461
Ni 6.762532367309437 3.8991787944853464 4.562903078061546 -0.3153869403822956 -1.6291332382919037 -1.9054826051557634
Ni 6.341455631734339 8.968844761641064 2.500944632212259 -0.6716716474202175 0.5357888453462578 0.0905974478735988
Ni 3.90125324824456 8.910367592158375 6.75388413778623 0.026121379677400174 -0.7501270606146436 -0.03235990438794427
Ni 1.5545881716454357 7.57021439738874 0.057554878554606906 1.3529095983726314 0.34431802159434893 0.09190125428668688
Ni 8.47495656799484 4.5670314279301065 11.13903362740347 -0.5648695647622981 0.6102693330533361 1.047790615575247
Ni 0.7957118712254633 1.274406092743396 3.386262627010806 -0.6476009796242588 0.20984212717024506 1.4941541789791364
Ni 7.761045454463761 1.9340076330828162 9.23324790983226 -2.1150308552346733 1.246531233515692 -3.309222655916701
Ni 6.375964450350443 4.635077248986826 10.260895859039968 0.06833760803413391 0.01862558552098728 -0.5175892916190957
Ni 2.7883274951992076 3.1051769459532887 7.280317894486347 -0.17628228893692865 0.9874054296189705 -0.8247690136002506
Ni 3.0177882452498515 4.525850717493831 11.802300970489464 -1.8413338383919966 0.4206353053998498 0.3741934689975427
Ni 9.068455919628516 6.244722544728139 0.6423041468543762 -0.7195527873722124 -0.30327730160295513 0.09598288055522824
Ni 7.495562095215968 4.93313513888605 2.656213758334857 0.7871758858378249 0.3910069410104557 -0.45736865626514134
Ni 5.515682869772888 0.8102190309605026 10.037833210290826 0.21631256538593716 0.6502096208916995 0.8753117595448087
Ni 6.913154530123671 2.6911271888778696 2.141198841696715 -0.054149232348893836 -0.810335868894056 0.488107737220211
Ni 3.968009543991497 7.61645042081481 1.3407783342132897 0.1646074237021617 0.3178929946336009 -0.4123069880398124
Ni 4.706832791405741 1.6999214118123054 3.4419121851982792 -0.09970635215340247 -0.11284520352820565 -0.16433128722263957
Ni 3.3328902957653157 0.2639135023489297 -0.36933686861669957 -1.058835303425183 -0.8619134838610317 1.5476156412323863
Ni 3.3427579677010333 2.7848981054260937 -0.05133899278600909 0.7083327502866769 0.5557891997275848 -0.23309209883712115
Ni 2.9417436295179673 3.8311610065875366 9.618568351219833 -1.0845640756498547 -0.11205484641642638 -0.3886474396393435
Ni 6.64287750070256 2.6175681799025203 11.947052989828302 2.633486865729439 3.177685789516263 -3.2932144534139023
Ni 1.389519587607131 4.49780821419924 3.627473942837173 -1.4569801410320005 0.17384179781623607 0.817995956542475
Ni 2.502361241175758 2.60704640092561 2.1692357383595247 0.7826602573556586 0.2831751315364413 1.1511967851777398
P 4.111679483396475 1.7870297809266602 6.172429700096815 -0.20576718576992303 1.1317268493785864 -0.8496740043720464
P 0.7072093196747362 7.825325487840466 8.891636769814486 -0.4607581415626646 -1.6706768660616453 -1.1884453851165533
P 3.0027250945297976 5.369060104296238 8.032537254104232 -0.06426318085444416 -0.5446776631954555 0.06581689849480923
P 0.9247354195394909 6.1571282675260415 2.3856526595701415 0.19993618091044277 -0.604170676354766 -0.5071878937801135
P 1.2318424131343113 2.402030565442994 0.4038961469188375 -1.0936832643423036 1.2692137627148723 -0.7420494258128317
P 7.951717656971636 1.7467648203480552 4.165450819937094 0.5578352836233361 1.156249517110299 -2.7135170796101526
P 7.120067276025748 4.306416493946052 8.139705217294727 -0.756880063067761 0.15236177356558922 -0.16565257713722437
P 6.8635358388559995 7.211576851088703 4.426247969454052 -0.3106262857688586 0.5225746606488291 0.5223813136911004
