# total energy = -340862.4995794131 ev
CRYSTAL
PRIMVEC
9.25790457411637 0.00000000000000 0.00000000000000
0.00000000000000 9.25790457411637 0.00000000000000
0.00000000000000 0.00000000000000 13.54987914755331
PRIMCOORD
 96 1
Ni 9.098085254455185 5.333275085008537 4.57030618218933 -1.0115928254984514 0.21508589206768763 0.9504180537613438
Ni 0.470596873676213 8.389846305427037 8.71696232421471 0.11289302604700557 1.381357569300679 -1.1092224976284832
Ni 0.3300683645196924 1.75652998674472 11.89244392108721 0.4262760486253949 1.6369514487847423 -1.772053663938935
Ni 4.455690547613924 3.0042177707021014 5.403217627406843 2.574419884363953 -1.5809073134059806 -0.45882004399968723
Ni 0.7951197534248847 2.664443419147454 3.079129030423624 0.9361556303050587 0.39435168911297247 -1.2275135547626086
Ni 1.1501094709581177 5.9533880414901965 0.36733976208171676 -0.06295063269060772 1.3423271948710946 0.21272716202752395
Ni 8.910020183272355 7.854258016657263 0.9089827203677638 -0.5415540299648093 -0.18330371456008432 0.6682448811268555
Ni 5.022533521837731 1.838740178341823 9.267060526643284 -2.7638399962344207 -1.1972210744266543 1.4964889977599
Ni 6.40258156584734 0.054119857887200876 4.4554572484215536 0.724832547713913 -1.3044689863727406 -1.0829573932843672
Ni 2.048052140258365 5.802215719577012 5.776232484922009 -2.778372642632957 -1.4806057508707404 1.4478262424468742
Ni 4.9071522585635545 4.7347515617255755 1.2975554863265026 -1.7511328546258682 -1.7438031537336742 -0.653047861671443
Ni 7.793766868921287 3.567033556486187 3.5815175480125 2.362784155628395 0.12019958701074783 2.5314045571446924
Ni 3.4263226666118207 7.45847334312486 6.419471686742583 -1.0251795630439506 3.0349777369903537 1.93429927227714
Ni 2.670285156861167 0.15068905930041931 11.602178990999114 -0.6607030642238556 -0.6017785219735056 -0.8654919452409096
Ni 3.4229157577708595 2.0887406303562557 1.926305141878088 -0.29506211278201444 -3.6180864504684984 -0.8536790117663815
Ni 3.0380554115002334 5.295826861471343 12.540372251516336 0.32515738950549805 -1.3175831551571953 1.349212352026702
Ni 2.1450286894677855 3.632422135681044 0.5934057536979527 2.0896250135670593 0.02126456580573112 -0.41159324980223955
Ni 7.083833723377116 1.743754078591116 5.937570911721767 0.34208039051308187 0.07478696320390346 0.6008004743309524
Ni 3.189672112827458 3.330336713179528 7.1572627925947305 -1.61113037395658 -0.21012520562830264 2.3378174583807287
Ni 2.5714848004732973 7.809912654298015 9.308712764595372 1.3963782110792273 0.3261953438517092 0.6569240567973977
Ni 8.214288663168494 0.7919609564234285 2.9727621887213047 -1.995403595787628 0.4816923206121704 -1.4465903131572442
Ni 4.466170495461662 6.263055687743744 10.369329776308833 1.5538806483054917 0.8210149458744569 -0.2531685578720221
Ni 1.4840513427035116 5.3601230079400235 3.15820542136131 -0.21901890857350667 -1.0270713807500247 -1.3579921551018612
Ni 7.9815171713525075 7.069483971465459 8.127353237135448 1.9086442907131964 -1.638238800137598 -1.627539925662855
P 8.503829625127885 9.23156572094697 12.857521210363307 -0.9194917964961326 0.11632467743637386 -0.4108797686749827
P 5.6745214433721864 2.6949945038625938 7.455983892615799 -0.8190565365965055 -0.23411462656436455 -1.3181346567852912
P 8.396150938363707 6.533118018721118 2.746032405355349 0.19970478162592703 0.5449170328997712 -0.03728896625844546
P 1.7745273530132748 3.4850270387871842 8.987431077197842 0.35244707845938655 -0.007099072938626483 -0.7903442562634775
P 3.2916294146358918 0.2717500469602746 7.955147882081559 0.38113236220922103 -0.3341685918651729 0.6200642076565708
P 0.0005091847452523262 5.404847944382096 6.811686512315545 -1.0083450079851148 -0.3690952285390289 0.14941940310781365
P 5.231151140919838 5.481531167017096 12.52049460485213 0.6325371433126009 1.1073193670684993 0.24109260054409445
P 8.873562555512288 2.0420067286465513 4.775424313385885 0.6003389613135016 0.3428470934757773 1.3089910426128102
Ni 5.9917157659510085 5.694425937959323 8.33495063514616 0.49203072642370105 -1.303462399485097 0.2961203788431997
Ni 6.7643434404924285 5.206108509357883 10.925687247942225 -0.35356216590043626 0.6424826845610871 -0.37064946040002617
Ni 3.8708872387393973 7.425598524390477 12.294685982979859 0.8284536615406893 1.5395120382886454 0.6814809202011555
Ni 5.618529637203349 0.4260728337609037 12.977424034175325 -0.5919993310995547 -0.22508414093098011 1.2911447584600084
Ni 2.826808547551732 8.951921458854391 3.910318505411737 2.8256354322746624 0.7666096316506991 -0.3607568838766626
Ni 4.98858478618609 0.5001314404817399 6.145072953316551 -1.9092477286251508 0.26235613790856105 1.643151921168499
Ni 0.5624371374917062 1.7326075616223198 0.5089875518873466 1.8165021240602974 -2.4822586915476603 2.387669091795533
Ni 5.801104771041915 5.819342842826407 3.089250697368794 0.6209568946741694 0.7449126062932397 0.7173460095288807
Ni 1.6081350361692737 0.23688200139584123 6.52488959323784 -0.4358145842434494 -1.317264338365196 0.9115275473437334
Ni 4.294427109840282 5.340135192212754 6.206007554676119 1.9079068983265401 -1.2520364796046373 0.12842428891338525
Ni 2.356118169040482 5.306769704542039 10.394871408921135 -1.4905435788097425 1.1002287787703051 -1.2143708467330634
Ni 2.03336910378618 1.8916120707079325 5.057126607639728 1.4359217776998043 2.1834178284495045 0.39731617105793515
Ni 1.7558634176236623 1.3772706726718693 9.669708084751244 0.7986077818238504 -1.0385341299739856 -1.3535742285398236
Ni 5.878658236696074 0.8858509202861737 2.0077534079382047 -1.141665191538221 -1.0100352512033444 0.7822596794831302
Ni 6.622142028000144 3.472408515009386 9.277235889434317 2.0450521120526908 -0.42749089486910247 1.0319731889270163
Ni 9.0295767614576 4.358130750423578 9.451284493266023 0.7076989733574198 1.0568411558132895 -2.057273079598915
Ni 3.489711538443506 6.189807147663082 4.022579854883187 0.6865997294849595 -0.5743502505592237 2.022713853566807
Ni 7.422450836874372 3.7341294740690816 12.860257846921428 -2.122596069176441 1.2797118340327187 2.584989175239367
Ni 8.29027754296906 7.724804738605203 4.720398106652135 0.6236802071426032 0.6444755466213997 -0.27226131283741495
Ni 5.328479490498705 2.5499416567968947 0.5811668040029786 0.09280062617250469 0.63902172259568 -0.43663887991695766
Ni 6.560410321066644 7.670229391818613 12.204917638182321 -0.4032741884135829 -0.49773600433859444 -0.262829992221186
Ni 7.2979320218990305 9.288362964803751 10.387120691307949 -0.1469819973109146 -2.01053890876717 -0.33270974793145924
Ni 4.444331098842567 4.104093852064962 9.477354752222942 -1.7588929581872612 -0.0900469746867675 -0.2246372832015486
Ni 1.6867068713139373 5.907117035003449 8.199276045297564 -1.0433719176822611 -0.6908605616438425 -0.5040159238100351
P 6.1310842596788 4.436248948249744 4.622229139348379 -0.35382853218794547 0.396950045967768 2.6911186573102945
P 2.492153817162985 1.840776917322832 12.93772243669278 -0.23552873330307178 0.03702131441935559 0.4438762782056614
P 4.409947241681346 1.353616726778784 11.531069026848513 0.9586594678345296 0.40204648665406895 -1.5373029464524688
P 2.9584744647695245 5.530033328478495 1.5200118209941227 -0.5320129232435934 0.6111563636439796 0.583104599713086
P 2.685968047014939 3.9959615279822867 4.973916562361039 -1.6268351862863466 -0.2356056092875942 0.41644209325410864
P 8.332326945022443 3.547684536166598 11.148569446214966 -0.6651968383291511 -2.3345855817069925 -2.3054213014382103
P 8.436126569818244 8.865869236906748 6.897389711265079 -0.4147729330818018 0.4451574589109301 -0.29252417685150905
P 1.708157435945749 7.08101006251708 11.884747825110333 -0.66029965813785 -0.10928808230456663 -0.3568670619039531
Ni 8.686432532679827 1.5478290465224802 9.351083415933488 0.278593682813346 1.2416314822212293 0.021553557801059657
Ni 6.712008506584949 8.028658420858415 2.394467186681549 0.35009426195649385 -1.1846152127371856 -0.2602061814450938
Ni 7.183383970026176 1.5383026628340322 11.89037107627881 0.1267427874459043 2.2485117327353596 0.1546045468531789
Ni 0.527310796392863 4.620231283566098 12.145948489939427 1.6694131688578735 -0.8609436637485948 -0.39156846994088046
Ni 0.721334254885593 0.3417712815464827 4.117862207576585 -0.6820653319497156 -2.230826656750771 1.2172905914830197
Ni 4.904023086856367 3.4688719955059972 11.979543212029181 -0.1284407439736175 -0.45976646707335656 -1.103247510991971
Ni 4.820729720437546 8.698569645425751 10.002019639521384 -0.14061568877325462 0.8717929477582729 0.365524480468635
Ni 7.1208375675002715 5.862910541211089 5.861189496772135 -0.9464346436335636 1.2628222573662315 0.40375035671905307
Ni 7.439142838614189 3.928906525984785 7.146734703643805 1.1406742883798615 0.15601942492283455 -0.07862073512769686
Ni 7.586861962164119 1.7863311811986697 0.7436930199448456 -0.21833422380165624 -0.7613884924610758 -0.2601172212757133
Ni 2.1686085721251978 3.177090620667496 11.14600870984157 1.3302566368598057 -0.6045997934723845 1.0051684100293463
Ni 2.480016704417061 9.001654921608855 0.48626958013507965 0.6997838322754012 0.24749079076095443 -1.0833255752570632
Ni 4.009783579339773 7.363237279953756 2.4011199168258823 2.9514960742259295 1.9185612927165927 -3.2798105213031707
Ni 5.927410361577869 7.833344410484081 7.420008601678053 -1.454909631656217 0.5463828188120203 -1.2924053703399871
Ni 5.6461644820138615 2.873662802019405 3.41432534822323 -0.5703123330444242 -1.2688628071333565 -2.7859229441763893
Ni 0.5432177278345457 2.635669852088468 7.072752011739533 -0.012155147305295195 0.13277305280038423 0.1734751585054367
Ni 9.270587788242215 3.816941429456028 0.8833086997216958 -2.535131628287292 1.8652250431872974 1.254439432619175
Ni 8.316033033174369 6.167254892400633 12.577932495697485 -0.16409088907705935 0.7175509264508351 1.467200790318744
Ni 3.427276230771111 3.8527047143816597 3.050361943897759 -0.04884993162316748 1.8495857939881437 0.2534611494117764
Ni 6.538302445218233 5.99597440200221 0.7380105181878297 2.394786933787237 1.6991490053594092 -0.9496384952828418
Ni 1.8292971157935067 7.510604603134238 2.1911645305494303 -2.1891886694950107 0.24060640493629532 0.3897393871519417
Ni 6.656655495823792 0.6496364138018359 8.323730980732137 1.0212725146800605 -0.13995568659175253 -2.2748537130639983
Ni 8.777335896564058 6.913173512577454 10.460791391831945 0.1806109982192696 -0.9212887404955552 -0.6605467411516495
Ni 0.2786268183925188 8.998414655048158 10.93187986023494 1.264638484639364 -0.6842602827185055 0.7296785629523046
P 5.109992945263162 7.974999606613278 0.5870631633530006 0.5292304754024499 -0.32080836850818295 0.8543343859621931
P 6.586600932781531 7.4326160159705 9.590509489474698 -1.1536946118989293 -0.6812117257001687 1.8251076063411211
P 5.122852174556899 7.208833949384333 5.297446994751692 2.3944256937930763 0.8813471671056112 -1.3763333766132102
P 4.54212234364439 1.0922568259929943 3.9800333033603486 -0.3303070520272376 -0.004684807070179029 -0.0254876027481432
P 1.5697795379950847 0.5879778443135628 2.1595117552036536 -0.24363567868092234 0.32660132104087625 0.5393973886331226
P 3.89777219328872 6.0320061661571565 8.233624722421839 -1.256030431255379 0.36393168206021836 0.6011041216143003
P 7.246717294431106 3.6815723504545828 1.708423137803726 -2.0050562883860437 0.6235372538068358 -3.310225643259918
P 1.6094311427935524 7.584556743953795 4.856412461594383 -1.6633026850847612 0.6630281128126065 -0.08175645254320113
