# total energy = -381161.5103437024 ev
CRYSTAL
PRIMVEC
9.29439017899393 0.00000000000000 0.00000000000000

0.00000000000000 9.29439017899393 0.00000000000000

0.00000000000000 0.00000000000000 13.60327951832279

PRIMCOORD
 96 1
Ni 6.624437177312303 6.086013154805057 3.428420772308742 0.8383935463622207 -1.6995994626332662 -1.2047474647106864
Ni 4.838073975554188 8.204344090239873 3.235853090708175 2.2421150851803966 -0.7321537639656746 0.5148618653856036
Ni 5.387000658952737 0.5651063578052571 9.360824611346848 2.254120080061073 1.1152890155375372 0.20428597323870623
Ni 4.565227857744371 2.0709946063025977 4.8009373101937545 -0.05710960052879842 -0.08425890725008069 -0.1849376506190815
Ni 0.7881996050388392 7.634988337249215 0.7167694282707583 0.4072380581573373 0.4425465036506443 0.5545237027515998
Ni 5.2558939912246645 6.939749363805627 10.318550175317556 -2.0248342423439194 -0.4271682214223611 -0.5224052249505003
Ni 7.308299817188673 7.490404803775665 10.65763927074197 1.918902478106095 0.19111215486090957 0.9275815154828025
Ni 3.304304415426997 5.486366984252667 11.255598509478634 0.41948833627960014 -1.3457449623033921 2.2850309107073166
Ni 4.807523315067716 1.8221280151295611 7.356884382920628 1.8708017659441267 -2.2615996762675694 -0.5024195258571929
Ni 2.975394536115994 4.17356225601029 4.813574892506944 0.1613377518119544 -0.12040296127080556 0.45587355977685357
Ni 0.9655198395666786 2.191487080457335 -0.17066266284957352 1.9183566329049544 -1.5859016812967786 -0.2755626092965061
Ni 7.451972500425631 5.103558936349923 10.07253510304846 -1.6369514487847423 0.5776008962860376 0.013939750009543735
Ni 8.602292699728398 8.468639369093939 4.557847182510934 -0.636962011853174 0.15660435089202707 -0.5859032455041457
Ni 6.2147125754792825 0.4025298144029699 0.92886276473898 -0.4795235950956258 0.05395768516337803 0.6163703037447513
Ni 5.841775169936329 1.8188935673506466 12.117570477608217 -1.7376361056910141 -1.1374516676775057 -0.8130018457619934
Ni 2.535007741114469 2.6980685222445766 2.1368304896277803 0.4702863927680739 -0.28028624002442054 -0.5010301017088339
Ni 2.377876780912372 5.040924040999046 2.5302369306405703 1.6846454124265955 0.9801369209820151 0.35422576762636415
Ni 3.559639902157863 5.955993930726794 6.5917413715747575 -0.4609203781721417 -0.033840602698528816 2.579845940475531
Ni 6.160795818107203 2.750470294019061 0.698518963734331 0.16197769938879844 1.2789366464295908 0.31863732899879316
Ni 7.1615135132450005 3.738501146575771 12.156816040098063 -0.1345370866793425 1.0514883761418083 -0.3151681395032701
Ni 7.652229431013256 0.5614099788349285 10.915067854138961 0.37054687338389086 -0.20135620118642095 -0.18863078319995255
Ni 4.226233565099683 9.175013021960341 13.19839187442008 0.8167638839075869 -1.1788621123034921 -0.8889026108553659
Ni 4.950508213432148 3.6788497504692375 2.8155793560330045 -1.2325423754357676 -1.4145978194110478 3.029867669457298
Ni 7.906700539458377 1.1212659356335508 8.586607486878696 -0.07239095216790113 0.8531449936397824 0.9291702001261611
P 3.9343897137838275 1.008385567027466 11.290109509616242 -0.018035003124839907 1.3583559661991833 0.18525569608013256
Ni 8.500537716154959 8.565161611002067 2.2178245938800654 -1.4775332825930039 0.1360802627967463 -0.31456290181910346
P 5.079347049958911 4.389127047206743 12.175737559604713 -0.7698481931926547 0.5071141031193848 -0.17421666465715158
Ni 1.8708027364461577 4.366458029583834 13.0634745067226 -0.5551461668269472 0.8736163741202567 -0.13036290069699485
P 0.8403615815469553 6.907265470163942 5.155942119344069 1.3916674358671193 0.5294135379475334 0.5897928103665391
P 9.260679416150731 5.573948022817931 12.850664572772326 -0.35197913768403255 0.37264566489444856 0.14967651342394223
P 0.371572059627083 2.970384859814744 2.3210592443684566 0.4430566105178434 -1.761128018165367 -1.3653964179857325
Ni 1.298193946896246 9.11162528100575 5.428687857740058 -0.9839670933613828 -0.46197915845395915 0.3535343979862944
Ni 2.9168491724396066 1.8460424810351563 8.976001539655401 -0.6410922319714637 -1.8421470783219112 2.2565518294310167
Ni 2.324145911343679 4.036516472964038 9.634087117836248 -2.2198454751489187 1.1378974969656726 -1.6406785199273421
Ni 0.924210922459248 0.7382236690985413 7.574347088589651 -4.797902699155143 1.1834114222370715 0.3996576747069181
Ni 6.541401095539824 1.4751684301097876 3.341481976104176 -0.5233593613336535 -0.5305689917082153 1.5438374051368764
Ni 9.347925856669901 4.361420470112075 11.013242638619188 1.270913261904482 -0.39702203685628396 0.4177772671257644
Ni 3.1208331534851186 0.10146406916114013 2.899008590509645 -0.5018078604151228 2.2067490469762765 -0.8139680663300045
Ni 8.993474993173676 6.321179814868554 3.350283763594498 -1.3092571517900031 0.6638845472756308 0.5219036027237334
Ni 1.1454592332442253 9.042865382533307 9.553691572310866 -0.40308289833838323 -0.993786907665282 1.8229741049378863
Ni 0.7038056128626259 4.340331498817946 3.7437310999240334 -0.43352553109895664 -0.428191777590869 2.5043681218521905
Ni 7.675790710092419 8.241744716281115 13.479122423410512 1.0692163895491908 1.5718148641864091 -1.1038833448037568
Ni 3.409461145802398 0.010066753992363158 5.316936757539542 2.900536809569244 0.33704797029549693 -0.2394393812113876
Ni 9.152148822143877 3.5459027934876453 8.378872289960857 -0.45687886111291637 -1.920143806712364 0.7111591639918785
Ni 2.110514353302439 0.1611266185358771 0.28307459419112596 -0.26882863300678217 0.24664952580658167 -0.2149118283836686
Ni 0.12071553951880037 3.6438470770916735 5.992911248479232 -1.3094430425485641 -0.056711850869747484 -0.82712337276504
Ni 4.695237787432466 4.31378672049444 9.583183601757057 1.1510954837131855 0.5038994528368289 0.496793437919667
Ni 1.3597878705481623 7.881847340145684 3.1183747872853402 0.15995244142865356 -0.6341901055349917 -0.0895443240187361
Ni 0.5010066665636987 6.621146963192373 10.142523719901282 0.06578295993308025 0.1062338688592751 0.0452807262146704
Ni 3.0255284766891695 6.979464292999024 4.600656214191689 -1.4651300238326443 0.47664755909941137 -0.5637138538913001
Ni 9.645346342087333 7.996196222398517 12.1519318380641 -1.5051952672846465 -0.3486091927705351 -0.889522503827552
Ni 1.8460424810351563 1.9850958523579754 4.294392116528172 0.504297716716512 -0.008504695036901481 0.9804552235533824
Ni 6.697268018678896 6.19695099586576 12.647363729404255 -0.45104579937090705 -0.8858849070749646 -0.8915004534895291
Ni 2.8184959356681287 6.261435474860327 9.34548050261636 0.09629089871395029 2.166011717157915 -2.7092719311805538
Ni 3.553756553180699 8.84977442676621 9.855834537373317 -1.2370644316758372 -1.686062604489096 -1.2535819697148862
Ni 5.625392472404978 7.3920794501746965 0.9455777960194398 0.04739802966798934 0.4491046164841362 0.6307312004521137
P 6.402691616653268 3.553468427085451 8.147588826110091 -0.04282686535753915 0.29637157562205735 -0.6033885467731027
Ni 6.461785349349645 5.799504283446376 7.691416438845037 -0.8534311574216333 0.4178860247894867 0.0600645693920643
P 0.9673694232103683 0.7298661534583114 11.771312619046224 -0.3017292403895449 -0.39266838787327857 0.7829235383193742
Ni 0.5606469094020294 2.0168547835664556 10.196025018032795 -0.5127954697748781 0.8067280969381396 -0.6442130369886324
P 6.134464810757591 0.47206765333258255 5.359583137392334 -0.35569541019335515 -0.5350936190514461 -0.12272441031513057
P 4.455712058379571 7.405035830070693 8.088387278487751 -2.1509954462547407 -1.5441842469533342 1.580168635467743
P 5.950435885405554 4.78915760009319 1.5063046371769249 1.9642575092021268 2.4382930845999877 -2.221623135874632
Ni 5.437236837817776 3.921981702907819 6.274227344050328 -0.7136117392974292 1.1489707240606988 -0.9018704838699435
Ni 1.119908954668834 7.359865093847921 7.686927248393268 -0.17658619333059267 -0.1400652155864233 -0.8215096261226885
Ni 6.66927331548898 2.847884797383439 10.035710729197714 0.7158431997311091 -1.3657340038308092 0.4197762998336641
Ni 2.830253339232287 9.260196107861928 7.616176491546562 3.397167753769117 -2.3713870668060575 -0.511403731633674
Ni 7.714130069540759 6.49702967687161 1.1534644914970387 0.5327868252951404 -2.10569415121478 1.304758235478385
Ni 5.922264588802422 8.473072793204693 7.279046653569835 0.054577578135564075 0.9875000462153058 -0.2817376277589664
Ni 8.658384344400092 3.5436721398470143 0.28716784362168335 -0.20478605280357637 2.7058022274643982 0.7310924125806957
Ni 3.5222578648969596 3.442874478461013 7.722078632013541 -1.222320440597443 3.001444124009282 -2.219387561675894
Ni 6.471553753417573 7.585848896424153 4.88416206808667 -0.7991091469403012 2.3159710519295986 2.463814111689228
Ni 2.649421684098488 2.8510634788213376 11.367063342461936 0.38461415011023437 -1.6543339059272475 1.831701200398239
Ni 1.5615133147825357 4.7133060819215755 7.20771127958148 0.9231846719666875 1.344531144500949 0.9352907112016022
Ni 8.715786498085656 5.652197493653223 8.293388995256802 0.9198604926894609 0.37438321641084554 -1.1245573282133408
Ni 7.953042368842482 9.189094023066822 6.755198093726077 1.4447275489168925 0.2631848044574435 -2.278649175550689
Ni 4.516014061797955 6.009603973223285 2.5011259711913225 -1.0645914891826698 0.17984892324226445 0.10510309768894156
Ni 0.5765793530302344 5.6017940157651385 1.4293647459164862 -0.31136856325152185 -2.230641280212842 -1.2779992222169863
Ni 7.849251913821967 4.275419477875591 2.434919241698385 -0.2544952471032456 -0.6720416291651264 1.0511261077063834
Ni 7.12738451254335 2.2545866953166773 6.173603487760491 -0.6953296531587895 0.26659820101436665 0.9953416537469115
Ni 8.000462347486224 7.760852968921804 8.55072184643505 0.44839447779098907 0.8887583719680178 -0.23834126305120246
Ni 3.8298464131595997 2.123033896860479 0.012942438310742958 -0.6633281605515285 0.11467865719251862 -0.23591157056378725
Ni 8.069649787906453 1.6399858509818916 1.7953332177105013 1.7088250949965926 0.00436907560197312 -0.31529695177165057
Ni 8.266672270715164 6.196058734409507 5.795635958257916 -0.5262747352082355 -0.8691133440435806 0.7791789836752775
Ni 3.9987905432668707 6.69736096258059 13.144985379068295 -0.8211833531315212 -0.31956189769559157 0.0998359357527313
Ni 1.0187023401153832 0.7266753893131925 2.3582646882161433 -1.4502009133266378 1.3940925003688442 -0.32381321677277786
Ni 4.815321308419755 5.766704380538935 4.850426220089181 2.38133286516486 -1.043659624126009 -0.6535026898206745
Ni 7.909395912607473 1.5960419742614662 13.023480745824124 0.9622497562889492 -1.483038528681949 -0.23245420814280612
P 6.0625541140177575 8.608826656017412 12.142763851601106 0.2668823079136887 -0.17428145645681598 -0.3863650713630701
Ni 8.930505499776704 1.6081525646520571 5.089516971682153 0.5691211409498005 -1.5872288847486342 -1.1538326801386902
P 4.745074307520224 1.660842462521789 2.135891756220681 -1.1542188598335155 -1.307426783449484 -0.25997426793994577
Ni 3.7620531312647643 4.321333765311907 0.8030195101637797 1.4581805890980049 0.7596928499262078 -1.4526920551796079
P 3.1093638760162086 7.42234198456592 1.7433283163962463 -0.5603174266152414 0.7537042364429407 -0.8533689367251304
P 7.301394085292887 4.207802789393972 5.035634603553701 0.5512853983199603 0.7540883592552368 -0.5327315465771728
P 1.958374480621253 2.1308690677731943 6.553869519951933 1.1726688390085869 1.9152558824924435 -1.3653704498438035
Ni 2.496937918981038 7.995099484358541 11.599679621862977 0.4974282432901884 -0.40523928255975367 0.682967532049011
