# total energy = -381168.11969591276 ev
CRYSTAL
PRIMVEC
9.22829198156772 0.00000000000000 0.00000000000000

0.00000000000000 9.22829198156772 0.00000000000000

0.00000000000000 0.00000000000000 13.50653812507112

PRIMCOORD
 96 1
Ni 6.977732835301743 5.5029687666083325 5.800234190247674 1.7087908993245473 -0.20862059605831812 -0.9939995378967205
Ni 7.433407422990442 5.707080122485416 12.079558835550108 -1.8336341557548936 -0.26675760941036636 -0.3021442164397764
Ni 4.931359150260452 5.425617225557527 6.761751127807664 -1.1971064032256609 -0.344224176328962 -0.14679559233172138
Ni 4.505298150645248 9.107474907583905 4.910625947292323 1.1487146421858345 -0.8240069386232454 1.171159601452912
Ni 1.4506689990580426 2.3847197720237214 12.410157771648244 -0.7543830076775201 -0.5424415747760852 -0.5220678962157396
Ni 5.684175502479678 6.2479872123389 0.05812162680102396 -0.20561343380087815 0.04694294440844174 0.5389708426186652
Ni 8.63255010340368 1.6070885434163285 3.89217875539011 1.3580741732927062 0.07616018940234626 1.5319977321894713
Ni 5.304837343754504 8.033735483116669 10.592353183983313 0.6045972223692233 0.39024075226839244 -1.5241352987222592
Ni -0.07872747934365619 4.5070053846102205 11.682696150881783 1.9957949176887755 -1.9187482119164176 0.8772814816766699
Ni 2.0557034879525733 5.5144487614863085 10.92252115885894 -1.546943040645394 -0.27698905733038753 0.08950961412605875
Ni 5.0646618239038395 6.513540534371587 4.3647863355238234 0.42385458366809586 -0.15204192833232524 0.6871244916401779
Ni 2.80693257399896 4.405512632465534 5.734132859611452 0.5139691783680052 0.06523582918035861 -0.7373764458171946
Ni 1.3066338221645837 8.399554194497602 10.013922937238076 -1.4891114743489064 0.4212559697029842 -1.3003122838918897
Ni 0.594580680053878 0.03928299211943075 7.743662590030298 1.5462375299379372 0.6357767332958213 2.7792113364841686
Ni 7.376007448600557 4.026718942950811 3.632434642984181 0.3507650627712733 0.10413276335587227 -0.29455149169418304
Ni 4.771478996513708 8.362493375020147 12.64001237005877 0.2567058816013192 0.9245378435604722 2.61711742323248
Ni 7.0482277556175505 0.09847879207463196 7.871718057011615 -0.59471724425135 0.1798216695487548 0.4539632301280182
Ni 7.68870811294159 2.984134231271397 5.943957450881587 -0.344020287848272 -0.9894520277353539 -0.9224405947118115
Ni 4.994416067464001 2.825555266654714 6.764087731266751 0.5332843337568494 1.112305250318865 -0.2495821260723443
Ni 3.657651872890579 1.9772906933559742 4.436452326056687 -0.8229093346836924 0.14404631172135834 0.3552428960369688
Ni 1.4830603029340061 7.812579472464969 -0.06426674624575449 -1.13952809059056 -0.7589292322873058 1.618426393397361
Ni 4.651142072712408 0.8216104983742537 7.629005679771919 2.02980315631342 -0.8106703694153393 1.447556019504623
Ni 2.127075095980124 5.2119361311848955 1.9992512591205414 3.6517175082593814 0.14099801181333782 -2.1796197948596525
Ni 7.6441170074348515 6.437093365907632 2.0422421788460583 -0.4425040804484831 -0.3749110638898575 0.8232775166563885
P 5.67171730868123 6.066411344799453 10.001672380002935 1.3650626887953974 -1.0356982031870872 -0.005035762651694553
Ni 2.2389589045818856 4.398277651770732 13.03902247820628 -1.5166968401663428 0.36002823324075417 0.6039657594328114
P 7.629010293917771 3.9901472229335906 1.3278413593262224 0.18472476327732704 0.44100332753324045 0.29655823771156664
Ni 6.183306115795702 7.733659121824729 6.21221004823727 -0.7085232690309281 2.782347825230621 -4.351088678477397
P 5.241245185632206 2.942265471816911 11.084167607637553 0.45237223149181444 1.0020918279865516 -0.9872773886815385
P 1.9966516493479318 7.845579843593301 7.451948906679212 1.1396461042256631 -1.7724786672914958 0.22428838450256214
P 1.6348195599825024 1.111815356031972 4.746075355114918 -0.8197659039587043 -0.6443927570996064 -0.9699682079791293
Ni 3.6481928738954617 7.221885748876207 1.3362760179423565 0.23737041449750085 1.1583819900722694 2.402695647111352
Ni 4.1930312160142345 4.366126283479034 0.6749111136662677 0.15140043809358444 -0.04665240975121643 0.6792432891198882
Ni 5.5524600950091285 8.236665617655827 2.8312131322975493 -0.6090642570016414 0.05822674485237714 -1.6789964416709344
Ni 8.839208467790668 0.7132998843197209 6.073741376898791 -0.9386164331407255 -0.480851826988746 -2.5852002628089092
Ni 0.26821107004302186 6.909692640578815 11.596699546164025 -0.5871571725159049 0.09417256681936684 0.1854935231225515
Ni -0.026643000974442898 5.718375551529342 0.30987772990922224 0.2222996362073075 -0.4409210522320794 -0.21671185770688484
Ni 2.7658297627557857 0.8110357989122974 6.606628158433588 -1.2662713922570967 -0.7832901776301736 -0.41468088758862776
Ni 8.234543110564239 1.9923235805394341 12.685961880104125 -1.0467079240340293 1.8201852293388394 1.8556847077970302
Ni 2.7753810446679292 2.499648916887326 1.3226596735352387 -0.22728423390609243 1.715200145285001 -0.6707136543823222
Ni 8.758756220727804 2.2673912713174533 8.264312656767506 -2.9384924628774103 0.847411947810747 -1.7619561704936173
Ni 4.160796793097214 0.9923551199424138 2.0316665565549314 0.7993875974126684 -1.0243190148158683 0.18000396076289
Ni 4.296794127917749 7.690553771282101 7.584218011651915 -0.756368156428349 0.38952032916260015 0.9985352209835449
Ni 3.5085688204358236 9.055934898425141 9.624947673487924 0.10389133676902754 0.837146561328997 -0.8540024565440711
Ni 4.222257215836222 2.232203795055616 12.726778614304521 -1.3919183755356608 -0.6276502475339448 0.6754509119569916
Ni 0.9681308542232101 2.407873555905429 6.461001101221438 1.8390838660155555 1.6975734333421733 -0.11460692341431875
Ni 5.4920424692325085 3.020567526913079 2.1752283220840494 -0.3080014465515018 -0.43000800486400137 -0.4822155401054921
Ni 3.4424573386787287 3.9318151910817485 3.3053203098329287 0.6420782500338168 0.870005773950863 -0.7560819926464979
Ni 0.35206763391495743 6.310425833998379 8.926632689234811 0.9132586711022272 -0.2960206200405418 -0.23807438254306096
Ni 2.786058178167784 7.889423457472135 11.601278624506834 0.623793592792016 -0.4114114728087366 -0.13139339884403825
Ni -0.026222190872806445 4.546788550139929 7.0246559301217175 0.4998000859564747 -0.18464737307217233 1.3081837162201664
Ni 7.17462766706743 4.070248794911757 7.877972070298436 -1.7969514556218793 0.7325653975817964 0.5053282148635555
Ni 1.42789357513614 2.895957904053496 3.3796468168636373 1.5232570098823637 -2.49049522052484 -1.203960707143333
Ni 7.554150391626655 1.8043155936833069 2.0915683208253784 -0.0903976731579669 2.1643021906659756 -1.0068044029708725
Ni 3.5676668004989773 6.451655610214262 9.643046199174973 0.7667692971570149 0.8009225459999562 -0.8125796706229103
Ni 7.231492400538566 4.023166050645328 10.272140690196402 -1.2689042018942533 1.0990995502618686 0.5728081028830845
P 8.547280688072084 6.3364034751410685 4.224858671267172 -0.06978231090046047 -0.08326286188539854 0.07539477199123144
Ni 3.0308478438697244 3.4593727973695096 10.230243323037637 0.11399371531035206 -0.8046257058831562 0.192718580116081
P 0.40253716123622385 0.9104448027905466 0.4468034308750336 -0.20742220487484278 -1.0265769576121093 -2.0588316823352866
Ni 4.298907406717634 4.834951186843873 11.85227062506206 1.2635012857111272 0.2912810484730274 -1.332672188279834
P 3.2435322827384803 6.315067664724764 13.12615323997428 -0.3346280480000947 -0.2579214991759752 -1.7441955040760866
P 6.801730855950638 7.993860034669934 0.8982486924764517 -0.9410386694289729 0.7806383418296233 -0.6956407566413052
P 2.5572242288195586 1.3342910123971372 10.886552969119068 0.03224266208378964 -0.5622706936868703 0.5254085305531984
Ni 1.4611154252653333 0.6103924350570334 2.1973789906576893 -0.2769654031813037 0.7411400266246849 0.31133873845485094
Ni 2.6595659838008796 0.5632404786028351 13.35522435641926 0.34045596753578145 -0.3764169590114227 -0.06281153600958214
Ni 6.500205652861396 6.748695863536062 7.908374677312499 0.41074195754553783 -3.015228322277568 4.994092525649276
Ni 0.6592645450845878 4.124815683748957 4.791525614579165 -2.4809906234685144 2.1244984284054764 1.8817639213825852
Ni 8.500354824764598 7.558081643891942 7.1162162719069455 -0.2360172429037161 -0.7292545880410086 -0.4360207867169846
Ni 6.2235230110354305 2.079032609376629 9.445000599433978 0.3244408230544477 -0.587985067733839 -2.042099200071954
Ni 7.1637198262750115 7.8973690166280335 12.158314922598041 -0.9018846249373306 0.7191205849308002 1.4515574273545324
Ni 8.52580645328024 8.970324036300552 1.9788964161122184 -0.16201575171558552 -1.3786895355502127 -0.5045671683278149
Ni 0.782259216896224 6.3393473001941825 5.9263720182132005 1.1733535237804373 0.08679658607026987 -0.2679721985437578
Ni 0.44731744672286583 2.82236227772563 1.3451038017850194 -0.9556916434554573 1.1613896665503418 -1.0254950374018403
Ni 0.2187538863215256 4.89333858844593 2.6009404922728963 -3.932455233998924 -1.6869846020827335 1.2741531089980185
Ni 4.857255967888945 4.298898178425931 8.94090885649866 0.6356119255831827 -0.22871659547724482 0.005503446316732457
Ni 0.7550948174405869 8.222860093268805 4.337678228647572 -0.7207825460142554 1.0117110962438705 0.5164515784702266
Ni 5.860352819373131 1.478021655664412 3.8301028055945414 1.2326503617685418 -0.3053213286161774 0.8583699894841476
Ni 8.77868933080532 2.236448809238791 10.517027252961219 0.48838541636162985 -0.05581402164582645 1.1572193372227362
Ni 6.112091388727095 0.9851939655812321 11.51453914230702 0.6404196313844712 -0.4907014660893162 1.1927378418443202
Ni 2.871004603289791 8.719129936157039 3.3327790917938778 1.4638509000099047 -2.176491533643316 1.1337107125778345
Ni 8.912241168324678 0.019861129402236156 11.978880941562757 1.6540798809349126 -0.539088342033136 -1.0402701388284858
Ni 0.8213677943024765 6.995257361244892 2.362698299533918 0.3859341544732386 2.4231870821964847 -0.384785385580776
Ni 6.246639881750328 3.2182836766402936 13.27897928754359 0.5730574998897292 1.3189772072912447 -0.40292297572175123
Ni 1.5699077561467394 1.9239327107318085 8.961654979075172 2.18108969453696 -0.36991695310937583 0.6138051141207365
Ni 7.387828890271528 8.640578717184901 4.061348107564644 0.9134430191988914 -0.8292995544807523 0.9498146158493902
Ni 6.2159096703808245 0.9110455645803829 0.6611074349375877 -1.3568973793757857 -1.6400809955526592 -1.4069022505390028
Ni 5.2362065383626115 3.9233528475905066 4.629703828258204 0.9782255628919152 0.25330405500862185 0.6012072228510678
Ni 3.129821272379613 7.208495497615801 5.654835994669749 -0.7591261787894603 0.09055091090637954 -0.19408435011535607
P 8.547659048031887 0.41396640050983663 9.429737927787125 -0.19899464293277985 -0.8034630530336228 1.4756244956060651
Ni 2.6045745935453617 4.96279071179935 7.994641670977141 -0.8793828442903887 1.2722021559192347 0.5707414501620429
P 6.822955926866512 0.6850659258557579 5.742574900860948 -2.1297046551967647 0.6692519822351312 -0.4628139956504287
Ni 7.685865799097204 7.580829382938737 9.871928135640053 0.2837780552277629 0.3470063670597895 -0.1123942320337161
P 3.024526464053475 2.953034888233791 7.677453288381156 0.3101758284950013 -0.8416449634199826 -0.3305369086498565
P 3.011449974710956 6.065257808336634 3.878307710132001 -0.3483927058843548 -0.43540937838523075 -0.8583586766302379
P 0.16891465132354364 4.246813700056718 9.627298119384564 0.2578073421956141 -0.2991779347226009 -1.6503625799843253
Ni 5.451437985741272 5.247612706906969 2.4212490418991104 0.29001966526210055 1.2582775754183426 0.16742046767092456
