# total energy = -340870.952690775 ev
CRYSTAL
PRIMVEC
9.26568264574372 0.00000000000000 0.00000000000000

0.00000000000000 9.26568264574372 0.00000000000000

0.00000000000000 0.00000000000000 13.56126314160016

PRIMCOORD
 96 1
Ni 6.131704601250035 3.3281776802058207 7.311812543858647 -0.14994647925587723 -0.4950054927813088 -0.20711212983359167
Ni 4.366554958466665 6.341424066535586 12.543829534089184 -0.037151926459948914 -0.9104754519301352 -0.19797545763964616
Ni 6.953181510028264 8.680786605964544 4.023328122349335 -1.068884974351701 -0.7484514726844336 0.16124364943625133
Ni 3.9772943568888914 1.0730031350149358 0.02186793805869184 -0.7441124789894475 0.06932542586869996 0.5903931629546993
Ni 1.454313780720349 4.983677232320761 0.4827374428578516 1.278544553197495 1.210602895050199 3.3341261040266
Ni 0.9182634519669415 6.777745071231911 6.5917503868451695 0.03284969954016923 0.14812279578357718 0.3960784419960921
Ni 6.988307713655442 6.186705694558112 9.999180232042901 0.5687701853682849 0.8017823228970901 -0.3814874315557946
Ni 6.869373408786424 4.005184062221997 10.905845828805376 -0.024973382115886022 -0.8383750344194594 -2.393235787250033
Ni 7.654065556710027 4.086305115441711 12.929566396484839 1.9498374771220548 -0.5646348230436726 1.5712906162518228
Ni 1.6246077655433213 1.9586356317421436 7.04899515651931 -1.7791439951268135 1.224145923841956 -0.03525188122375864
Ni 7.40498547074174 4.922505194244628 3.3060734672348384 -1.0092418087677715 2.44484785499937 -0.1691392501342442
Ni 7.505796099985656 7.4050503305215845 0.10605129945534653 -2.8340521955834483 0.8059074008090573 -0.0642536677727474
Ni 8.695213274138512 6.159798151605508 11.945303485684772 -2.1414034316909314 -0.8330801045691071 -0.9516305860122062
Ni 4.760272353488034 3.304049842103692 1.636749516330199 -1.0430533580005779 -0.4926575613744225 0.539164189576394
Ni 2.1419015725340027 1.4620320945218364 9.625893667672528 1.5952180736016979 0.7800143350923793 -2.5877209723482335
Ni 6.066696570480245 2.673381139944944 3.62899363285116 -0.008547375349378827 1.181384878725346 1.050379459348346
Ni 1.526511981370036 6.553913970988779 12.437387222818204 2.035516918868746 0.6832562669340233 -2.2176705789847873
Ni 2.3530942813903066 2.884592380166918 0.2825607043239825 0.07730253053690558 -0.8596781667726098 -1.051117365955635
Ni 5.4921130465212595 1.1587477639692743 5.414740888576554 -0.7637593066860976 0.14239052128549026 1.1376064480878152
Ni 5.275286802501324 9.423940697739205 7.992236109704342 2.077896926496854 1.37643699207061 -0.28807282594837486
Ni 1.9931225032537114 0.14880408662394531 11.379676170754019 0.09788626822552819 -1.49168206328956 1.0153137259934644
Ni 4.251113816026411 6.122309198855427 10.051364557769164 0.1605077997114913 -0.26902172285419473 0.9893044464138963
Ni 3.248511339191189 7.165347115582235 5.57354357354766 0.5234316093324857 -0.28442083101808435 0.14489683264711173
Ni 1.4887079954035674 0.052477121303846075 0.0960147118085625 1.4559488715540085 -0.30115279906078457 1.0535781687913017
P 6.004042023150523 1.6539521830815092 0.6605662809621801 0.8362315057138953 -0.46655315097788685 -0.4028198744849837
P 3.377730552006966 8.774907412201648 2.178345356260305 -0.17584057341381973 -0.2596644500090109 0.21626345731555657
P 5.356417121403875 8.250173261894528 5.737688851241381 -1.4213783326679907 0.958196155044866 0.4501711100754376
P 8.594597224234128 6.063296064879829 8.13787040623046 0.1694650089047791 0.4057661015975012 0.00419038393226375
P 6.120650641627977 9.116032791452017 10.63532587932537 0.8627853449430237 0.22524817731267013 -2.2828274752980944
P 6.378440469461086 4.3131104998748535 5.062948855246625 -0.5416208786470027 -0.8265117073229701 1.3623262637008409
P 6.815354477858848 7.0386759655460605 2.2877174764436865 -0.0468365007375645 0.14508837983262754 0.16978665391025596
P 9.312567190063481 9.706821994689275 3.84563548978268 -0.03697580589340083 -0.9135862296449749 -0.14543110788402694
Ni 6.993255588289288 3.3996809546428888 1.5403428661377192 2.269551841235111 -0.5249578161690249 -0.19004360438707915
Ni 4.332540636779678 1.4135262448810362 11.157570340654747 0.3691993582170609 -0.11427422266524835 -0.2214390879792251
Ni 1.5978855362474154 8.106527380904781 3.4173163287825896 1.4832637573188778 0.163510333983241 0.5039760717110353
Ni 0.18085593668649638 1.8606417700800424 12.308040143579307 2.0360362817073256 1.745972393470851 -1.4272761862096643
Ni 6.3166939590491875 6.467733854941199 5.303199672041519 0.9889102962992711 0.5921823936446383 -1.7501275532898053
Ni 1.3391228117166383 9.081842421791167 5.762573695631122 -0.6900493785964568 -0.17342065111841748 -0.7033090718198404
Ni 7.739643403373337 1.4870494381761168 5.110074118145023 1.5496570971424473 0.46787984020911033 0.8926021711941402
Ni 6.036203208270526 5.510292316243371 0.6562623712853604 -0.7909356099905734 0.38053663760675105 1.9704772648595934
Ni 3.220566039761074 4.204461102952595 11.61152023351279 0.020389876510261657 1.7800773055743602 0.16125804761395454
Ni 9.026025948393617 7.990104076084027 2.00006898567505 -0.8861774986147191 0.3453428633144375 -0.20735432775138482
Ni 7.762001496053996 8.351752942813743 9.014199230823127 -1.6537407524279388 0.4296899594029503 0.518687409779281
Ni 5.167925335493122 3.7131390049481916 12.868865981665001 0.18107971032557202 -0.703330154865763 -0.6134379605893048
Ni 9.141939640658451 3.543993964796749 3.4103457555858805 -0.003914761673373904 -0.04203290870133406 -0.9584717773037557
Ni 8.546860426268628 5.639363278133789 1.0768428339817262 0.2678485284817 -0.7499144303832053 1.7233507994165933
Ni 9.508999666163758 0.6902766929723472 8.874558904522917 -1.6521273851942317 -0.18563724778926738 -0.1213542694404813
Ni 8.377354024486623 5.060563868484918 5.921390279126481 -0.5113831628083838 0.3437027566078532 0.40916021488071463
Ni 8.688532716814535 7.328191491405933 4.598380489859766 1.5837242140294852 -0.8171348940937605 -0.9221785992996764
Ni 3.073334339514214 1.6726781280908798 2.2257013346612915 -0.47606700400559304 -1.570932975802088 0.4416533024124136
Ni 0.5174633689865603 7.311420605474729 9.904197717302148 0.3043782479766178 0.08476515746253789 -0.42485140036372643
Ni 7.644308792684857 1.122027862894491 2.605023564830331 0.4807093878736109 0.8001794971863445 -1.112967309382896
Ni 4.99396214026752 5.264714658386683 6.653779500583534 -1.7660380538724745 -0.6571865664301649 -0.45644794422308493
Ni 2.5629249348698777 3.972466936131899 2.7150869049531976 -1.424117843086341 0.5479157105167789 -0.5164032417307945
Ni 8.467194085253995 0.6145742110744936 0.16560647587678706 -2.7797031885189223 -1.6522662247649416 1.5995359842507613
Ni 4.1686214417471295 4.738257091072267 4.23990233979616 0.739940864110261 0.5939037472111192 1.1977185828883632
P 2.354530462229719 2.353900395796945 11.453829430481875 -0.7618754593998235 -0.2512500006930705 2.356184905144323
P 3.671165461706009 8.337233617811425 12.478884509962672 -0.6722766279940681 1.1275408363216968 -0.4010836085201673
P 5.669662061003973 5.103890201420998 8.713355481129282 -0.15487039892005589 -0.7866984319807742 -0.21621692034833734
P 3.838364708462119 2.624977212815329 4.0063357865983775 0.2899597585584425 -0.9713717731948754 0.6704485736463938
P 3.707264562030853 5.027401989618744 1.1056174120255664 -0.4248496005915135 1.2913604740152407 -0.8832765229178402
P 0.9191362792899909 6.095586969559521 2.8439188122264754 -0.5932825686873525 -0.7999437270264546 -0.564259441982125
P 0.053136837921692284 7.983942396998805 12.937079012127391 0.931189544549035 0.14518428198054348 0.9132543002268529
P 1.6704450985276647 8.632920088439352 7.946141190737187 0.26142488434354333 -0.24046139471799877 -0.23716986845092056
Ni 1.4515155445042032 4.988977202902335 4.852030410602235 -2.637852598897302 -0.07645406649368124 -3.586862973677842
Ni 4.465299340438395 7.147714521147385 3.2891219004883543 0.6465653392708929 0.4108008358079312 0.27903514122613876
Ni 2.6336776889973175 3.828237317123553 8.559448782968149 3.0887467031816933 0.09059384832917301 2.783840350615747
Ni 7.90645349145038 7.74560123743619 6.760940828842503 -0.5711610541979647 0.26260244959141227 0.17453908099357685
Ni 8.49628832935564 8.990501320404539 11.36180266856546 -1.2033546981282177 0.49246395730637765 -1.3828678352976185
Ni 4.8912335146767765 7.126801874988972 7.9776843548121015 1.5112363312724038 0.6643542878231977 -0.47618321786848306
Ni 3.3339316692463052 0.5889462589213917 6.87443525131914 0.4593468630374347 -0.9715918596254817 0.4878128316876115
Ni 3.7733752090579986 3.164953411385891 6.52413406635735 -0.24322790171954237 -1.0854793883752725 -0.9104258296391224
Ni 0.6498838752218021 1.4726413013678181 1.7600896533872206 0.3059095970194796 0.9521844016331471 1.498750282990251
Ni 4.688055621472677 3.5184855399522177 10.060789610348843 1.2246066655284586 0.9814278718792969 -0.6327993958350521
Ni 1.489551172541545 2.139214524511876 4.179798634950892 1.257236535748338 -1.1223749758500412 1.0359198322795902
Ni 2.7014746903004183 6.679084080405697 8.337559769847212 -1.5287751114871155 -0.17222534525873565 -0.1951780974001671
Ni 5.76659036914006 9.18043855283754 12.664660524234511 1.0627138125439826 -0.39681660571369726 0.4540853575281793
Ni 0.9583866383469903 4.339489898905867 7.58679484619195 -4.2773029028444975 1.3944696812026047 -2.6587057881972274
Ni 8.289913775573494 2.693496937379553 7.912604051716198 1.2591468653971734 -0.15155161895946803 0.28948539002518536
Ni 6.490481106300925 1.892858549297055 9.65852184320741 0.4817720248101703 -0.7793317072030579 -0.5306528096712732
Ni 0.9746942401364473 4.186772914420735 12.091710540159323 -1.7174033235839068 -0.6633407589570189 -1.821595736533121
Ni 5.337487331372135 0.7301441465061521 2.6180557477376447 -0.9525813799612498 -0.8231538465943307 -0.6023382511317176
Ni 2.7926953378101937 7.134242218305412 0.5750847974003532 -0.3071437265368968 0.1641335693895367 2.629284654722633
Ni 4.994527346920451 7.864442885476858 0.9117589426168284 0.9917909602811759 -0.09007062883585133 1.091753137199126
Ni 9.236431074208953 4.683079949790326 9.900413612432368 0.3854513012995491 1.8117039313407057 -0.7951504194028692
Ni 3.9415936809259495 8.680805137330212 9.698717301913572 -0.3633873795209742 -0.5854926403292884 0.9485928276271469
Ni 3.5031323034947572 0.2098584505280757 4.530370377851462 -0.13011556057287912 -0.06434597037623757 -1.3704177824597237
Ni 7.070225615598959 1.9021798262289835 12.140829778003793 -1.0302513211399031 -0.21237697777695683 -0.3308235866523399
P 2.0449176703009075 5.804107118938646 10.376061881353223 0.0762532633367848 -1.0284399789627772 -0.26127833146335
P 2.6335016410234537 5.081217075523951 6.348583659662128 3.5128666246960343 1.1330548241613905 3.5135711069622264
P 3.983242925268909 2.134544620363077 8.632612467769233 0.7768745039118169 -1.4789921265267174 -1.5103421015929084
P 0.12916083901391748 3.1373972706348425 5.6535008570033085 0.2077389647843132 -0.5115651969122028 0.7677314039599682
P 0.02514057723598516 3.3933432275838045 0.8321935975450973 -0.23952474183634231 -0.3172039389863763 -0.05893379822173076
P 6.363457860317022 5.691556869542887 12.127607648598365 0.5763009465276914 1.0198722918984244 -0.5258525600691525
P 8.798377386822498 2.7283637018873526 10.381025507647887 -1.2618202984642786 -1.4762130211196836 -0.42010077305261845
P 7.349085606198675 0.7829325947532516 7.371603995192379 0.22821934412585212 -0.017136916790602745 -0.12489724959673329
