# total energy = -340867.393101487 ev
CRYSTAL
PRIMVEC
9.30746148029593 0.00000000000000 0.00000000000000

0.00000000000000 9.30746148029593 0.00000000000000

0.00000000000000 0.00000000000000 13.62241068903597

PRIMCOORD
 96 1
Ni 3.8784936148694817 1.4836744954872463 2.139086379882357 0.12171550943464199 -0.4311238636359994 1.0577299861761462
Ni 4.925973932993062 0.23715597734048152 8.40835129918186 -0.43264081450115816 -0.011238806138612901 -0.05385612658850724
Ni 6.157928135579416 3.781128261420185 1.65218049921418 -0.6454250550188626 -2.699039197708952 -1.0850970653351892
Ni 2.660854287878675 0.7418149098363219 11.630187691324187 1.1807392747215473 0.7403761518754668 0.08619237682736769
Ni 4.6292427568801635 8.619342141103486 1.883734315552737 -0.39745706751117355 -0.26952308797064556 -0.1336765384512601
Ni 0.5801163833594424 2.7540592060931153 7.146738870922418 1.9844722935871049 1.7093727399699465 1.5801228698314722
Ni 0.6396515600479452 9.244431247083295 12.591766656174697 -1.479137136745014 0.37261326899461633 0.6236043595993453
Ni 6.33413699434073 7.6518594535024835 4.629276263741115 -0.3103228955958268 -0.5205200921126455 0.49294398226658975
Ni 2.9601264009470905 0.9835194435510193 4.993090036971925 1.2761994500040859 0.9891576364233866 -1.8066213746114756
Ni 8.736988452890037 0.9151142561716475 7.636532856855418 -1.3933530510996586 -1.529291903222534 0.6162026678186355
Ni 3.6180336157369775 5.995345400271863 4.216354462800796 -0.8768983873056381 1.0313319557985914 -0.9258843302860378
Ni 1.4674795126938445 3.4885202906966404 0.07075159839213994 -0.3815092859326656 -1.2441568197462445 -0.49636997722900317
Ni 2.764902398595594 5.2820680977590175 13.07564761189583 0.5310114785622726 1.082877174865735 0.1758518862677294
Ni 4.440999350560306 1.910803205471157 10.134787655996062 -0.9438612264794325 -0.44957178592854186 0.42434617859253365
Ni 3.160934880123898 2.992404676997388 11.981699792854975 0.3399988253937048 1.005475913967436 0.32415517349322887
Ni 8.101474990169647 8.521046041516636 3.23154872808768 0.2828041213502678 -1.0256228212289562 -0.720627765603946
Ni 8.355782757332934 5.12975149234866 10.833725883513784 -0.39470470157701704 -2.3477432021348728 -1.6145841368331353
Ni 5.668876885064183 0.9587429813693895 11.982762704944058 -0.35024569993269355 0.40268206335553874 0.1699576322704815
Ni 3.702731514254194 3.6276203009537613 3.308352037866182 -0.5962280244689215 1.2300003257402041 1.0523561234587424
Ni 7.651719841581851 6.665156858161038 6.542135487430125 0.5889530880740632 -0.5341173711811059 0.7559171849338594
Ni 1.26097486715522 4.625147473874936 3.7391199652479203 0.060964969719146625 -1.1989815087611868 -1.8062812176632375
Ni 3.7809048823471723 5.363806223558819 6.472170369524215 1.0899027142539488 0.03062260998186339 1.2617737614970592
Ni 0.44453738574067997 2.470023407296423 5.0862679635483765 -0.8811075402909794 -1.1240827025697673 -3.420041573043497
Ni 0.8274063246455883 0.1361355838090185 3.7525106099288785 0.8626048535011015 1.4344948154452906 0.45031046386677925
P 8.438619163575046 9.106159600888594 5.491996958337695 -0.2387284711872921 -0.13070562874839428 -0.23040503892326125
P 6.89641935095854 1.974084635363306 7.870525228074361 -1.1914535758152578 0.33638873944494324 -0.07010061347182765
P 1.9095373907240865 2.372174065855599 3.50131339635729 0.07714826434722842 -1.1204245369918897 -0.9318973692493371
P 7.586400077648464 8.852829117169739 11.283047304401482 -0.20287109516905064 1.2426018165542987 -0.13851098372542597
P 9.04081191457108 4.813362957810667 2.1067057217569283 -0.0664200792964469 -0.7358679795924682 -1.0371745306222977
P 9.145800078886927 9.258662355526463 1.2914642491291428 -0.5586444097881927 0.7874538220895599 -0.22913131441716023
P 7.53253779866834 5.934707289410361 12.586698743455727 -1.533331106288914 1.1642608174505498 0.4564435733477107
P 3.205312855962369 1.726078019551245 7.229713027592888 0.09675009773855595 -0.5586518659873604 -0.0786032516262001
Ni 6.870228154647832 1.5695544415991538 5.709138170736263 1.7716147766293038 0.2954462355943105 1.2950001276503569
Ni 0.876794506942501 6.984067714731796 3.83127593256534 0.26746363433845544 -0.16096211364009053 0.5792289188077637
Ni 4.959806555093072 2.7193237602396807 6.345441836927433 -0.8477670171573205 -0.006725491649291644 0.2632673368689208
Ni 2.0939833528027325 8.118898557864616 5.455189671582071 2.26946288106573 -1.2590306515342833 -0.9522995870547728
Ni 7.27208710699721 8.078318026267358 13.329515136136056 0.397209984497374 -1.869172714981136 0.3187957089535284
Ni 1.88608258805778 8.202675017705657 10.668799529431876 -0.10936290140656003 -0.19793174888590429 -2.3226831738424516
Ni 2.1205375401070863 1.1473679936056433 9.222739277601512 0.4313886872616119 0.7266865702035163 -0.5355227361690649
Ni 5.730380589833608 5.4413746066623885 3.2598564411151814 0.32993141385537367 0.1885369379345656 0.7094498946102555
Ni 5.116506974811298 5.426799122148327 8.76265656987144 -0.094764691877411 0.9149939086257789 0.3914170319646807
Ni 6.033887597827884 3.3863802095617026 9.351553612292546 0.4489812035323945 -0.049232768883882956 0.8549198261520179
Ni 3.861116584481389 6.812428819505864 11.017110794995622 -1.7582015885471913 -1.0106967960467432 0.2459851527497054
Ni 8.90312663844304 2.600225484478549 1.4085297753258619 -0.7614275732291275 -0.43246417971397777 0.5778947733773725
Ni 2.0417498795633238 7.936453699981707 2.1365119360658884 1.2261575549553463 -0.020802538567648046 -0.7673382822866075
Ni 4.8949242418443335 8.147314237444075 12.920311666015255 0.8275782009142715 0.8897801283643129 -1.3498988365707656
Ni 3.6774617566196617 3.403589705645036 1.0424701116651396 -0.06720400865032299 1.5295685539226884 -2.451824286317203
Ni 0.31156075432251235 6.27228891350041 8.83820616460266 -1.5531286006308154 -0.6739997813327617 1.2126618344617568
Ni 2.7685416159934215 8.560444525519205 -0.009715128183766006 -0.6136693598738205 -0.5746335861275974 0.7413716830195167
Ni 0.6497585323556205 7.15992288996084 6.783565451034243 -0.32084307840086035 -0.2698092517524966 -0.4723445608486833
Ni 6.669196296398013 8.726610633456334 6.928875399521111 0.125824389396693 0.44931467561241334 -0.1003882087117755
Ni 8.974719631343525 7.186886605565715 11.27360767707443 -0.34617024431173926 1.9277869250799184 0.4592589313093187
Ni 6.0870797395889715 6.7296761804161305 10.916659087354203 2.308449803851889 -0.074396155523388 0.28653247804444854
Ni 4.573947128848209 6.567642585329732 0.7346705024844741 -0.5120724755659245 -1.8294396580575718 1.8748900770808874
Ni 6.314051492692361 1.016793617968497 1.5623402282869896 0.3861102750397866 0.5885553384150122 0.15065404684586314
Ni 8.188825515178886 6.000101513034752 3.7289711093640547 -1.3274302231546042 -0.16641208101106822 -0.06447709663746315
P 6.362515444074685 5.391309771923476 5.484068862738029 -0.8387108204923234 -0.09239619164523442 -1.7763466348873342
P 4.058192771646613 0.9981600802947096 13.529437544989912 -0.16339951943698955 0.8731214367617092 0.3228703932435343
P 7.521182695790207 5.624722288298724 8.689000112784 -0.9430371879162404 -0.374164158421504 0.41681078944743705
P 4.656011015796155 7.310815453780743 7.785806853142119 -0.27651880256218825 0.44645278068358596 -1.0669072818000398
P 4.260360140184247 4.597290241978009 10.88374790393037 0.126988070687491 -0.29716244695446886 -0.48708263838980626
P 6.823020710551203 2.8989856871713107 13.202976475751335 -0.7469800303452296 1.0939262335910451 0.5411007444774746
P 0.6446710739677624 8.484812094381743 8.576629270105094 0.7641709403022194 0.4076075256816141 0.2854605851365084
P 3.3876739466928996 8.508117977666041 3.709518515089222 0.6451471187671276 0.1393152247942762 0.8509965798382119
Ni 7.165628363784032 5.635556173339827 1.1882230953134811 0.09739133086698067 3.2089907702771314 -0.06696283917379435
Ni 2.582327236253427 6.3802833878405485 8.657900161343845 1.356472118912909 -0.6485579442208895 -0.07635276502912657
Ni 7.99468117834695 1.4045796887180917 3.689943062324232 -0.20366016672924925 1.087534214021772 -0.6096142159678405
Ni 3.4964595552499573 3.4580104323076912 8.578631305046969 -0.26624133189558025 0.4659900793855652 -0.035774843606764195
Ni 9.32747241747567 7.063162521500951 1.3297625911971254 -0.6891464071662131 -0.5187889683541518 -0.14445434579305447
Ni 2.683313192177801 3.350388256422573 5.441390429346727 -0.1232049494959749 0.6528360027709531 1.5006025057076413
Ni 2.8875561246021744 8.635602276126516 7.817683046860994 -1.0972756096792522 -0.721555419624538 -0.14355960189292696
Ni 1.5479239013624493 5.795411822464354 10.888570099669026 0.6666824217357421 -0.6786635053570182 -0.057947265938745364
Ni 5.518412464467554 0.8695477175155225 4.098343298528325 -1.0543813814188874 -1.8058436159051867 -1.0591083545809115
Ni 7.653832635314093 3.7401754313679043 4.4938694541577995 -2.2685907628734223 -0.8840825637589032 -1.3019557330325835
Ni 7.893806911959082 2.5222103432289544 11.265978350984918 0.5125478725404464 0.731444910824108 -0.03512512583790725
Ni 4.559176187645262 8.823119700459083 5.968400299589737 -0.37446574882232286 -0.7069186435479696 0.0658202409289189
Ni 6.627917705197588 0.9139452390228824 9.750294565081127 1.4991752863428116 -0.006022294934679951 0.506552831299276
Ni 1.6485840961386797 1.1605287439906262 1.3055594686362277 -0.35180044601432314 0.24195212033091235 0.2460617716239117
Ni 5.320265919244145 4.899680354607224 12.862293605530962 0.8264060349830414 -0.7693131466247912 -0.5649775510950722
Ni 1.3984367642102498 0.6622389073140531 6.518310247801073 -1.1916546360824702 0.06309435735732359 0.9174259151060394
Ni 8.597562681484773 3.278162356148551 8.871186223240672 -1.0192747675237415 0.7302061533210005 1.1983796135111298
Ni 7.657899995935195 1.0039213988861553 13.149100235579146 2.2834939052374996 -0.280249216138898 0.8607341188409497
Ni 1.2693329674704352 3.5994093855245652 10.379759108653568 0.21592818546332487 -0.5185400855681391 0.01054640805727861
Ni 6.846894348979408 4.089400689638726 7.165837781664981 0.37569267925088845 0.8070021765351327 -0.42224147354470504
Ni 9.284928011528175 0.6684395380824233 10.088866503061531 -0.8057076260934253 0.008959266075816827 0.9652180948886537
Ni 7.613801243937989 8.060671079499375 9.03188978209651 1.0962422833187315 -1.0870906987264504 0.493996077680188
Ni 9.12861850518772 4.65145035972215 5.7774688984246305 1.0843277912693325 1.555754725399753 1.8411217223811904
Ni 8.572897908839648 4.313701201327342 13.40906973149716 0.39753291505443145 -0.7556955558413566 -0.003300782238458831
P 6.401290328165094 7.553358589765374 2.446025979631924 -0.5813979014346244 -1.5876880837732397 -0.8257141511223393
P 1.8311964883263487 5.540545607618537 5.558842215190531 0.08414809270382928 1.404241415877388 0.7388918540204565
P 1.4344007949652524 4.303909751960297 8.40393770099759 0.05709725923362425 1.0451246387073096 -0.677239114205666
P 5.58757620994903 2.8169590300688676 3.469968658682957 1.9021404281564076 0.010349975775756368 0.20944180640803287
P 0.8572237079081987 2.1408650357512182 11.810575600243109 -0.1718167969664073 -0.9394471565721368 1.4872224848563098
P 4.767505095613488 8.701089574364662 10.568920230665052 -0.16021777927489825 1.2265751021087392 -0.1859331817631314
P 1.4835162686438625 7.149005237767357 12.525874483366715 0.6544521982181374 -0.5321363361953351 1.0888950989250408
P 2.831124986282407 5.296234053972555 2.036495817616844 0.5843906655143613 0.4598304875420726 -0.701147031171515
