# total energy = -340870.2412564909 ev
CRYSTAL
PRIMVEC
9.22572766935438 0.00000000000000 0.00000000000000
0.00000000000000 9.22572766935438 0.00000000000000
0.00000000000000 0.00000000000000 13.50278499494529
PRIMCOORD
 96 1
Ni 8.105761382238539 5.60972226394702 4.636288965045585 2.419907897224581 1.7168117127464948 -0.04211466978186295
Ni 6.774212083238661 0.49951227267699 6.765678284987605 2.255886942153509 -0.8850971210663465 0.6439366433987942
Ni 6.643151393558123 6.74846307684007 12.816370965609373 -0.6836763851905775 0.30720800411592897 0.9280150034757954
Ni 1.085286945794004 1.7132453368819667 12.25707228624466 1.0506645946889324 -0.7421910935970185 -0.09891496660035867
Ni 1.359226482516815 7.054914078467445 5.467170007670249 0.2632989614378046 0.5022506043794963 -0.15180358706927405
Ni 3.919615052485214 2.79998072194669 12.766600009063648 3.4798060946966394 -0.9322460108380074 1.2085231297030348
Ni 6.790477041418782 6.526399807755839 7.734098323381339 1.5289424903029154 0.9463387414856476 -1.1454434276337304
Ni 0.8349680400573312 4.563284858082958 10.878815894914384 -0.35939342787023265 0.47588162746766427 0.23293089066890849
Ni 6.094700324986483 0.931724705914194 2.131239078373736 0.15642000279536286 -0.4280231132234887 0.38852736912171154
Ni 7.45933308401694 4.325344111387844 6.339909100073145 -1.1488403691304214 0.04266308608616524 0.9602787486055074
Ni 1.6451594654302997 4.245910594694233 8.289427172056937 -1.4734575698617334 -0.6352105763797061 0.7427001720229532
Ni 3.129800492190199 0.5856325969082936 0.2320464291787904 -2.347607447887957 2.0898080761121425 -1.3123769283659075
Ni 0.863901767705938 0.4118115812668692 10.302111957408655 -1.0281440449889132 -0.2511042191438256 -0.4379195464015942
Ni 6.876331664688323 7.211336293977338 1.799394260869571 0.1709019984616218 0.8961397520337535 0.33259970471615624
Ni 8.664176236876276 1.350803392999827 0.6125200581222148 -0.0232402014748632 0.37212013140828176 0.2655697597498523
Ni 3.0062034163313935 0.453850455310746 11.125579205141914 0.8482370148152037 -0.493634323465395 -0.4982242568289226
Ni 8.211654286374342 1.9460289017150916 5.592461849733074 -1.1705443364664163 -1.6532345022154817 1.8594014945269846
Ni 8.92623303614248 7.616899289778866 0.4650467986161312 0.8661966846174178 0.1870459552113359 0.22232534723892033
Ni 5.912298459882024 5.156351546483902 1.3726388456491232 -1.9410414760969796 -0.23500782780259527 -0.9117466053330749
Ni 5.814228972953673 5.405806001522063 4.67142330437477 -0.2514816570879024 0.0897502693819551 0.3674720911133091
Ni 2.1755650103488957 2.9080324463968155 3.0133219879319504 0.37879497232529596 -0.5332326545833075 1.6910523443942038
Ni 8.256011585824155 8.020441851183659 11.507208817783562 0.05047204060762276 0.8460618615407558 -0.6104742499752905
Ni 5.238109946592936 1.4569084888759276 8.07149241618065 -2.750647665913863 -1.2404755142399153 -0.10751839199865355
Ni 7.118488569005851 0.7465984833788843 9.72876987512745 1.024886457283564 0.19552493921662456 -0.22483911479970956
P 4.883389936912022 4.453221924963936 10.447132095882353 -0.683379936996081 -0.41524627317379453 0.40747999896481435
P 4.5638291760254575 2.3719346274015694 1.9024751631600543 -0.9272742686550288 1.944571600737425 -0.010040929175769804
P 4.986505896968293 5.873412017040726 6.839052343636576 -1.6581705060645184 0.05103099843488631 -0.9779535401774512
P 7.289801109247856 4.878574106980074 2.9061503979176635 -0.5569346261859376 -0.9304274695720297 -0.6387774677953579
P 0.7186426828812095 6.081562888543776 1.7253587175345462 0.03195418430909335 -1.0292449913625756 -0.7842273447324623
P 7.940141116073183 9.126947971007315 2.2260417350743027 1.556332966500726 0.06754313715729657 -1.327505813587546
P 6.187732564514749 8.240715329067127 8.96599776827405 -1.0183928791394203 -0.6021662443302275 0.25176730664912117
P 9.09670603515114 3.2544954296618425 7.459155027469647 -0.019575608139082417 -0.05144186072005979 0.39003197869169604
Ni 6.367661934558362 2.3623859990882257 12.575711396920111 -0.46666113731066083 -2.2120856286978423 -0.83926823565769
Ni 3.710799928577757 0.44343184086218673 2.4182542391627324 0.8026588119647725 -0.21993859217429862 -0.6597674397834636
Ni 1.6761486852414311 2.5702970016674622 0.8904331158252745 0.08727506836858519 0.6668138051072838 -1.4774594919322748
Ni 4.2835146613659125 8.281410014564864 7.368455974511858 -2.7298147883289117 0.9970275260897667 1.3638817811134187
Ni 3.155226598114426 4.602503427126459 1.5682537981645683 0.0038661678236256002 -0.4216979423364092 -0.7675915359479941
Ni 4.6596199081775795 8.28904891721554 0.4822740002098572 2.807435107216552 -1.3140409463318916 -0.2065662846324507
Ni 7.571296517070792 2.6231880993683303 3.572134471439547 -1.0725433970398948 0.2667686651539599 -1.3213927587112726
Ni 3.576833134627939 3.1816306311895843 5.7613544815629165 -0.4988927436508569 -0.3209911739429504 0.3422593392931073
Ni 9.097001258441988 3.7865985085028107 2.156057208833374 1.0598166935018458 0.3109972959550321 0.02009214276418475
Ni 5.270529154219108 2.6983962327116897 4.278114842861758 0.8334182046348163 -0.8106369450742427 -0.4294595885596991
Ni 5.870099980746533 4.602355815481036 12.458600930304893 -0.6642653276538173 0.17052558895880957 -0.3355721570809188
Ni 3.583586367406072 7.1162743943244955 11.786662572035732 0.49463191149197394 0.43561223842465624 0.9372131250352955
Ni 9.002234582079993 2.366270030508436 9.685898840432497 0.5688164652251881 1.048766349224955 -0.644327965299942
Ni 5.820382533422272 4.676327701293971 8.511210901587647 -1.7146057062341116 -1.1988668375601934 -1.0127891597993977
Ni 6.570600269832388 6.068102551626706 10.146559728033978 0.19420879150836232 1.554020002096833 1.9178416409417487
Ni 1.803740501254514 1.9012010901454912 7.257098671777027 -0.4119169516902454 -0.7071700974371434 0.20765308993872628
Ni 6.972196202663157 3.6426125741198616 10.449292761342242 -1.1414841858756664 -1.1248491484221466 1.4457698741384777
Ni 1.2905778416669706 5.163704451571568 3.8174936258899845 0.5262161140561582 0.6051374111434095 -1.1926051729211977
Ni 4.124140212947545 7.713778657815987 9.51560205282556 -0.7036926804115042 0.04510280587590942 0.7829307374082258
Ni 1.361007047989738 7.400888098157006 10.776006229022368 0.5093170243079744 -1.3027152369064274 0.8362214784115662
Ni 6.898418057134839 9.1259977210399 13.418879263880727 -0.3640718071825085 0.39538655813539003 -0.427999716184721
Ni 2.674695337893352 6.220410092520414 7.5898614492011705 0.9786235696612825 0.40142453679935386 -1.0571622865981343
Ni 8.27277473330758 4.784554714573037 9.056453262016891 1.206765780692296 0.4952446053753084 -1.0553468306559504
Ni 2.689604114081142 2.8844514860403843 10.33761071298748 0.20472357499675706 -0.08728303878838516 -0.3641139732743536
P 8.375124957953217 5.892758368319066 11.85239403774289 0.34175334619096626 -1.0604178174209544 -0.422231446242376
P 5.9134516758618965 2.9403686224724375 6.5680521238032625 -3.4641820150061373 -1.0363417503083572 -2.7844921252671333
P 2.2129937881916346 3.5664541908090874 12.364703317505331 -4.0091481559762885 2.5014329504832666 -0.06995303215036985
P 4.75081622786589 0.7915508422743108 12.350714346383086 2.010147586866022 -0.8464547261038003 0.19404886889173031
P 4.06498484604401 6.140690578263794 0.2786206710283094 0.7535466278191538 -0.2456856192314156 -0.7167258594463786
P 3.117327308151899 0.8680192100404743 8.83414366599936 0.5747294882755134 0.5439765233633729 0.4406870818444023
P 8.22777163290904 7.520914817342126 5.738021693285353 -0.701458905984979 -0.2944990411896928 -0.04304669467782909
P 2.078787125318003 7.254485023080244 3.307560893618868 2.511130380276688 0.3795742736934818 -0.183968858947909
Ni 8.033403998797425 5.05947217844678 0.390627465003005 1.143772467689211 0.9843604721450595 -0.10069648398081368
Ni 4.784730003401978 0.564108973859955 5.581740631411396 -1.6555590365836006 2.003634725448169 -1.097119543717362
Ni 3.9467940466988467 4.499885656373493 3.792284324569974 -1.436472765107268 0.11456192910899624 -0.3740116920040398
Ni 7.122778532450975 9.102259923310205 4.276048279825826 -0.14116359085692465 -0.16868210799216757 0.2992792361871555
Ni 0.09462552272605863 5.727387196805362 6.983991295705291 -0.12114935251852683 0.519027566727519 -0.12477435086562381
Ni 1.318882374676959 0.4011614010495515 1.8846916501776378 -1.0194210632936185 -0.12840063476430147 0.9581609309315563
Ni 4.436311165835087 6.614616217352159 2.4297587217779393 -0.798962851170424 1.2620658388161814 1.2874742515869568
Ni 7.0516020421732515 2.7762152470334795 8.180257289392728 2.884056552526033 -1.3484615899036068 1.7563565649186526
Ni 5.072369745965673 1.7980113242665081 10.336678914475742 -0.6282914806623696 0.888021236691677 1.0965585290075697
Ni 2.3993073618998206 0.6690036542435814 4.114987368358494 -1.768093907960239 -0.04619809582261721 2.0877118557047463
Ni 3.72469387470326 6.6845656858273 4.903063801528645 -0.3221291442021355 0.0937935862133933 -0.18041070928300543
Ni 0.2494295455729951 3.6576689619530756 5.331426338538644 1.8503362990009231 1.0948173779467467 -0.8253637097614559
Ni 2.450334862577215 7.6477593494002525 0.8392146425816134 -1.8992067994493809 -0.7393572236926493 0.7593519216470213
Ni 0.3588466777432892 -0.026198299344349422 6.031977369127614 0.06383509217809005 0.6239985097139704 0.07282032639583588
Ni 3.709941935888732 3.433631387111303 8.097390879370232 1.2103565833673477 -0.668609463555126 0.5381727721974022
Ni 5.690041450513174 7.771531714087998 5.927574420037805 3.3900969629652646 -2.1936973559986415 -3.1235779519282656
Ni 6.921943663124237 3.1029628499066084 1.1377462794320077 -0.16841265638086478 -0.7562336877330137 0.5145597607641526
Ni 3.0879341392569106 5.665565594556362 9.953766925664475 -0.39674949992118763 -1.090569144193354 0.3579052733604804
Ni 5.658194238013017 8.247394756022548 11.25157404766607 0.3608684697538624 1.0853634316226985 0.051942197395246026
Ni 9.310420020541095 7.791763735238879 3.38239353983918 -1.7237673181287216 0.12763161780876084 0.1420886737743553
Ni 8.419306968574087 7.762444372166604 8.849657649933386 0.5430442413570905 -0.04736589087847326 0.7899102540498525
Ni 8.489035019581094 3.2373540273370196 12.338980143144687 0.39528885621526116 0.7103436100691186 0.19324154249908654
Ni 1.6132107699239142 8.26771903445182 8.641066711212417 0.8522947298243452 0.1551521918265328 -2.1261184805074027
Ni 1.9780514030441885 5.701545933128381 12.896239936656984 -0.6589963659453941 -0.8113421986713834 0.46585869601402347
P 8.3967777411913 1.1629767999260483 11.501726890301642 -1.7295062774950278 0.04676219585620334 1.2446288742866565
P 1.474132922751302 8.617613988472948 12.513246761440735 -0.09059770498391494 0.2752023977436099 1.1281144494369797
P 8.976162675207037 0.49950396952193493 8.080268851073871 0.1705495002182095 0.7667096475636732 0.553860101025672
P 0.36305084191951204 1.9637884278051265 3.8845213063585207 1.4082615927803748 -0.41728952885606846 -0.6982753660506749
P 2.5715517006535635 9.115997032062447 6.162550017805471 0.39433600538368857 -0.2413911056211198 0.15477141144834636
P 0.7654706322463003 6.112192304969187 9.150027051769305 0.9138875629354776 0.27279224564022053 -0.8344103933447565
P 2.0119744043081154 4.737604985600472 5.857454275597643 1.4372476956000797 1.0952603790214364 0.7504677317835139
P 4.915329406690567 8.521445001479426 3.7892324538008393 0.9730049379229243 -0.7488037138175297 0.19203389534423057
