# total energy = -381166.7560288395 ev
CRYSTAL
PRIMVEC
9.28160883674194 0.00000000000000 0.00000000000000

0.00000000000000 9.28160883674194 0.00000000000000

0.00000000000000 0.00000000000000 13.58457273196840

PRIMCOORD
 96 1
Ni 5.389459054173651 2.9100999812132424 11.708883348345747 -2.783645460996122 -0.873736958858521 -0.49247192772617765
Ni 3.499983356560179 7.7419849408025 3.061446824948408 -0.6895156175801738 -2.0931204283148275 -1.4306371322620974
Ni 4.307798910104335 4.1369894605573405 4.443935053088666 -2.874247279745095 1.1235034330275295 1.0843473316533585
Ni 7.617110173959852 2.556368582436657 12.090894881438732 1.1083130984403364 0.16954908397815316 -1.938456746088939
Ni 5.0529264767854585 5.711475195160632 3.11851572575179 0.016148070514772187 2.9669589457482193 -1.372947747970429
Ni 8.551183454080531 0.8679510979453392 3.959849025544064 -1.1568568116769946 -2.094913001438876 3.0136167548160744
Ni 2.477233584510359 0.5560008618669984 2.2147199821940218 -2.0928820870517764 0.09318860563954273 -0.33898992451321613
Ni 8.742932213423646 5.1724643184806025 12.577915753734015 -0.08247970386247086 1.3337093712950967 3.4314359309233677
Ni 5.854903898298692 8.136276970700118 2.6219580002581426 -3.214349206375567 0.7757938692531284 1.2197310826037122
Ni 7.176456507346088 2.255690860430741 5.705398525779639 0.8919766217949994 1.725249816211519 -1.9040366167378562
Ni 7.3209618771226 6.615819481807475 2.160721437632021 -0.42980051683888565 0.3329504031873556 1.4257504935937575
Ni 6.706175944956962 4.324097415424366 10.445340795249484 1.328675151305299 1.2046302224065317 -0.27563897106039625
Ni 5.248759144067534 2.2051153732503046 4.567051883195771 1.0246373173872354 -1.5261602995720875 -0.6827433318533468
Ni 4.686135854213154 4.155896097992934 9.36826112519807 -0.8375934190584284 0.42440248575176587 -0.3963468651661303
Ni 4.642855711669132 1.1423618666165822 1.6777222864957195 0.6348069131833842 0.7344564439569222 -0.15436389159728253
Ni 3.641342260901902 6.0919376277195 10.019981363867124 -0.04177142750983129 1.1553033511469457 0.9506988182265561
Ni 4.307102789432921 0.5418575461456644 12.630352203509362 -1.4443197719555125 0.7363405483535125 -0.33060709976615965
Ni 6.510770231686687 4.597923442731621 12.833658422319735 -0.0886575505384086 1.7314294626596698 0.2997433203077677
Ni 5.476808276022631 6.526409742771111 0.34188713759270656 -1.1151656025857954 0.03653768991471772 0.8309941685743559
Ni 2.8524983160560047 6.348824718689025 0.7945112952720991 -0.17475402521786032 0.5915568442454974 -0.2599169323394492
Ni 1.6043632338203635 5.994406480849978 11.605939167135311 -0.6354412043332734 1.9171916660625756 -0.42776523157641166
Ni 2.709190273834324 4.0595437154603395 11.554915378242484 1.4183907107945766 0.732498548899603 -1.3242034886871903
Ni 3.8758235478608607 0.20057928210022088 4.12456138617037 0.6833830223198747 2.3078412237336123 0.11455473002014464
Ni 0.8197275704733855 2.8170054434228633 8.838517006895897 0.011516742390347907 -0.16440482077305235 0.07688755448667403
P 8.21542125023537 6.140582540237883 10.879042536758064 -0.6415262341850887 1.3701419030905178 -1.7515889683266799
Ni 2.6703467403694447 1.0775019832587387 7.736319446698089 -0.7399020404525257 -0.7715857447090518 0.5522693594997844
P 8.617602647742341 7.973848814036945 4.19923564283425 0.6749896560498568 -0.21224148064035706 -0.769806541321442
Ni 3.241258507018123 2.006758108333236 5.66363963894288 -0.5819272915755332 0.1120075381182587 -0.4282889652903656
P 1.8558020203349577 2.2491751709463097 11.253446863153842 -0.5229986355601252 -2.2549587739122843 -1.0418991897914767
P 4.228413308736328 4.558782897780272 12.985588151097097 1.0157839807616635 1.2597569881773465 0.5791080769591833
P 3.3173212923812496 2.3963072360562894 3.087175444963855 0.2511805809077158 0.42421325255909526 0.8053718400205614
Ni 7.670442298999086 7.333826187130324 13.532380728722636 0.9642752713594102 0.13539840623837326 -0.6618911709946859
Ni 0.8736936294040538 2.222471981990884 6.364902321715993 -1.3168992417162932 0.3936821738497736 -0.16283927605814538
Ni 6.994035764999915 5.274608424999358 6.773376650092544 2.291606764152621 1.556440695723184 -0.3407842974094776
Ni 7.5997628468282254 0.86408252333407 7.240251790157116 0.08148982914537578 -1.7652433258853213 1.1205572059150122
Ni 3.8879267659345054 8.156891424182914 8.342789057242573 0.3938102147872056 0.46970172390919745 2.573935745638683
Ni 6.263276128976769 0.4444999653635481 11.728757129434157 2.035439785773907 -0.1685916051608903 -0.43629229521081636
Ni 6.047961364504065 6.399381642651557 8.549396744357237 -0.8039662179222864 0.6722218634967326 0.4638444937974721
Ni 0.5507029194770933 7.959527291423728 2.275823598408918 0.2371410720955142 0.08112653226868609 0.26184525971041356
Ni 1.591944441042345 0.07541214457557864 5.115162449292519 -0.3871312601051332 1.4325202082174233 0.9396523306044076
Ni 8.56427980431206 5.134836675788459 8.93866278300725 -1.4824500031683308 -0.23429897466102872 -0.636360116603117
Ni 0.7702185401615547 5.995984354371849 6.607088272266157 0.6072014927612897 0.16209622724453374 1.030415100411277
Ni 8.298612311273772 7.570906324595893 7.273085481825459 -0.3314077412905841 0.013480808095254202 -0.27568165137287365
Ni 1.5113893569463626 9.127849818279563 12.89184111619738 0.40412419511870407 -0.0539042062176233 0.22480620467924511
Ni 9.17733007560364 1.4159001640463202 2.0206368981994327 1.379011951886638 0.7769156415623976 -2.1174253236087788
Ni 6.122149264858851 9.256353694222513 4.95404949661787 0.7450861557566265 0.4834782088679996 -0.2987421327367629
Ni 0.18857352092057425 7.287408860760464 9.237944551026755 0.1683334664034972 0.6254223866446906 0.6348673341076744
Ni 1.4853822886623502 5.324088682323438 8.991289505766117 1.645047338418999 -0.5337471323258808 0.9121317565866355
Ni 8.87041511238186 8.304459724913645 11.544319493462675 -0.15067924365684374 -1.5733642109513999 -0.5276464187447817
Ni 6.27319816894665 2.6943675443376907 0.29085128260824195 -0.869012299689342 -1.8088137542771041 2.6620528502925898
Ni 8.373264292076167 0.6194657193993292 13.210060150962024 0.33966766730653114 0.5181503063288883 0.24102035254526233
Ni 3.446558415431423 4.181587591572573 1.4722692315347081 0.676005756019197 0.358156470139338 1.8991762033217616
Ni 7.6216860071732775 8.999577982560414 1.6799090335648537 1.9347461300065714 0.5859832068124619 0.8577156437296002
Ni 6.715039881506294 1.6655011919883822 2.650146246645918 1.0182972341018204 0.16201189506084357 0.34093907781978705
Ni 1.574402200122722 4.2374443142468 4.657525294618054 0.8792720297441372 -0.49357750208553064 1.5704724912259018
Ni 8.544175839321634 3.2454445126555562 3.7438947582145543 -2.530202823527107 0.8298595407492804 0.5428619501429554
P 8.851777641605878 4.306954283689687 6.019174454338874 -0.8079072048479053 -1.8745926004451265 -0.32564409933392946
Ni 1.9374430526783453 8.43399385945029 10.483201406326327 0.5044149590206668 0.2158022014084219 0.009000146616081275
P 5.110658084468025 8.30034797214783 10.45153534106417 -1.5587400332803218 0.18533488605750018 -0.9332461699677477
Ni 8.697786467480237 3.2107962664370633 0.4416356608409049 0.5844372024815805 -0.7116877828018389 -0.2905778517584157
P 2.839763948573612 5.532683561914762 5.6851033596448 0.7763302013725727 0.7683312423274962 0.0057353598218804445
P 8.025268927632029 2.7040296992569113 9.72565783134987 0.5467137197888777 -0.1385374660879872 0.7297055595354982
P 1.2391319215520256 8.260678375486206 7.1557687291525705 0.4269476207711228 0.5878968788954068 0.1359553071831078
Ni 3.8952778002246333 8.488913139620347 6.157981844379642 0.034932550211126935 -0.11872428801680199 -0.4675008596031368
Ni 7.439775753319474 4.416254510710575 1.9470764346098142 -1.0924095398362024 -1.30681537511773 -0.04789939478444009
Ni 6.0850321106590775 6.81003714913187 11.597394517933933 0.8943538637779243 -0.5886784942564379 -0.750087979846592
Ni 5.422315949864374 3.584195394583321 2.5412386316837066 -0.1109955519139766 -1.4049176160088062 -0.6931102769099676
Ni 3.6587545592961943 7.262079349929961 12.22731132901342 0.16638611286913924 0.32703223793070774 -0.7285593617461968
Ni 3.9250717649611353 0.9227933407610934 10.124623151354912 -0.2955395666390652 0.042517304536920326 0.1842946177184439
Ni 6.802361258528417 4.793598322661509 4.335353222600676 -0.3019578114605832 -1.974475587385709 0.3479993271006781
Ni 1.1260355164696951 2.2385198838692055 3.904192785623203 3.4719120366605427 -3.2386268479760094 0.1382857550884973
Ni 9.1967286383137 5.693348212877022 1.6193901587139452 2.3397714967833063 1.1354981434955604 -1.73669662459588
Ni 1.6562381462541054 7.218604293597943 4.676720590092061 0.13869404627050952 -0.31641923830155183 0.40174129670882425
Ni 9.179204960611981 1.1990353708786017 10.72464018735584 0.8163383663343942 0.12687699903092342 0.7237087185221149
Ni 5.910742057755015 2.115501438816993 9.363044860966943 0.20789811606999678 -1.1605232047849885 0.6386802800958613
Ni 7.10097846334695 8.724935173665367 9.548039393475557 0.3774230316784339 -0.10177814708076666 -0.21311051350887167
Ni 7.2855989470147895 3.277345402624204 7.868592584036521 0.9114640410956496 0.04977012944459171 -0.6160530296146487
Ni 9.178759443382276 5.616700686149908 4.249878885760038 -1.883361347776692 1.5272841287638856 -1.0944911049555794
Ni 3.4199573241744714 5.975787573291902 7.760174109866091 0.04759600461140835 -0.3243078970210092 -0.3891848002000523
Ni 6.830011171596965 6.945483668571054 4.865776754678149 0.8398971274909407 1.2248216097527422 -0.386388725512154
Ni 4.903409038174768 6.109563403119693 5.889292259466523 0.17434033471920943 0.5151724546474868 -0.2927643178867732
Ni 1.554084758126397 4.447802699539039 0.1797634177031637 -0.5934005823224555 -0.17428685577345465 -1.4218398456854415
Ni 2.117032904294103 5.816951399293222 2.977710933464513 0.5426477772496202 -0.519727421008021 -0.8477567327446754
Ni 5.336665262453644 1.1261933038218823 7.056668990370131 -0.7660550446988097 -0.5723887559574786 -0.39117174872309407
Ni 0.22856333309104782 3.9777077693289558 11.007240119605592 1.0318608317188682 -2.0393941424359654 -1.9389439701380027
Ni 5.3770773878314415 3.839764497081636 6.595323832919268 -1.7922903027007842 -1.3594548556903168 -0.34982275346266206
Ni 2.5541595595060382 3.7828775158137162 7.211112178851742 -0.6165309976923318 0.3456611658858047 -0.08543004474004642
Ni 0.04751719703069267 0.4241556067012617 8.530813106913179 1.8157883858227246 -0.8307038910274469 -0.30947623132481544
P 4.172927850420187 2.6385293848813673 7.955777521407047 -0.3382903273430303 -0.6160152343981778 0.9687538759560541
Ni 3.77642679759195 8.471500841226053 0.6936183496400968 -0.2079675358553515 -0.8181198837148491 1.2127821620897048
P 6.299474403890277 8.037947605460708 6.7714070926728915 -1.7540957939089337 0.08828062681496408 0.43478665719956733
Ni 3.315140114277487 2.5991753629241177 13.445738765475813 -0.046578104869855266 -1.810221176147592 -0.8642359613466212
P 1.4247548189867012 1.7224438629100152 0.4957762140198742 -0.9545693569255561 0.03489835453908183 0.3740854826647686
P 0.8689293795288991 6.924015307064659 13.502494876057508 -0.3207456335910476 0.14426125594564188 0.1285358747905851
P 5.9777088663450035 8.911421260732595 0.4275201899464274 -0.9994921855801754 -0.3224286777204254 -1.1445234869226224
Ni 0.9130615737747312 3.8626900711935237 2.2957790576561075 0.9500033348214285 -0.8898094389403515 0.0020332283799448852
