# total energy = -340890.61379481765 ev
CRYSTAL
PRIMVEC
9.12034966810765 0.00000000000000 0.00000000000000
0.00000000000000 9.12034966810765 0.00000000000000
0.00000000000000 0.00000000000000 13.34855363834780
PRIMCOORD
 96 1
Ni 6.4733596604959 2.006960291940787 11.552838961978903 0.9630424273935736 -0.4523591188656919 0.22192502647670814
Ni 4.5600379979641925 0.3333724910235025 5.960756795111981 0.2256994059174758 -0.6420060020349846 0.06967175346452517
Ni 2.908579813331917 1.7686364363755154 4.992706471257634 -0.8473237589723149 0.6585389666930014 -0.4153177498416783
Ni 3.388820942207388 4.5408852637907176 4.898291700097049 -0.49759947876073 -0.545068470875971 0.2937603632514554
Ni 5.104130694434185 4.3963186021794085 2.3484644866733704 -0.05518384426099528 1.9125179147359903 1.6425986197681903
Ni 7.40575124145908 6.198216953569524 2.6310530470184244 -0.3299077597062899 -0.04448548400688467 -0.21317479108790385
Ni 5.229161567188551 4.178205441341956 11.964909125686253 0.29021044111666794 1.7366161490669318 -1.4832059074977488
Ni 5.920748557493513 8.168084783661016 12.649636701052229 -1.488193076299695 -0.9284634038671236 -0.11660672745316691
Ni 2.0697174175825395 6.30306449264489 0.17672775042841593 -1.1381492079651625 0.7058390373305458 1.2551318307005093
Ni 2.833619659916779 1.5509063302215325 0.4226096397125249 0.6983046766267135 -0.5931321591524172 0.5703994934415919
Ni 0.5830520938837235 9.013039572947479 4.751817973383038 -0.015587312915295738 -0.24473688216490108 0.32636015156434767
Ni 8.56371642923776 2.404488970235666 1.5112300733287385 0.9846355801833171 0.003570490960077722 -0.36757210702628307
Ni 6.752305553208151 0.7309914607794854 4.738296143056565 0.8662136538982823 0.18314122084029105 -0.4393498510902175
Ni 0.5534602075507441 7.430604194136564 2.1309760697839577 0.5419700344563053 0.43034790470192336 0.05847331364554445
Ni 7.78233047670802 4.234651285056068 3.9425219269877414 -0.7222640156557885 -0.3601223356164572 0.02259639724327721
Ni 7.735971739658605 3.8034320353150854 12.716499808086791 0.6666034888686907 -0.0598226285845873 0.09684522855552355
Ni 7.672138412763295 8.847614671786294 7.171176761617006 1.8516146514927145 -0.14012615073134577 0.30982718690633093
Ni 6.8744452751372815 0.8357578287433532 0.6147279801017688 0.08477209944107335 0.5809957809001994 -1.8647961831799948
Ni 2.2404230011658384 6.520365942367372 9.359418594544692 -0.9030735030391092 0.30502205220820366 -0.13942192557546956
Ni 0.11052586874031993 4.851569973133298 1.1543362006702873 0.3437150979030274 0.17844664357809914 0.5345002084418214
Ni 6.432755864048134 1.820668030880122 6.715536863769883 0.3714814693830183 1.4595057356673318 1.4169992297636886
Ni 3.549959279053556 4.149184488894338 0.49486196132951765 -1.69182830332828 0.5879827537409937 -0.05900141823487258
Ni 5.686738627292077 5.666646497109141 4.796882532823303 1.6719423630376302 0.5674841195670097 -0.029640191463936046
Ni 5.350024440172783 2.6175859387895897 9.511098216814046 0.9983578148654161 -0.7133916528668229 -0.12930129220169992
P 0.25404733828673376 5.69719054794103 12.420601921561092 -0.48516382410053865 -0.6821465788096124 -0.48892663357708055
P 4.15337984971329 6.054261355381846 12.771442618185764 -0.3695107188098926 -0.2592898402784115 -0.825979488968584
P 2.3415311969025727 8.523723696213624 1.400903940244799 0.6694368445524277 0.05159227025499503 0.15611404151916985
P 6.3065211051457215 7.962265854093012 5.88270757928515 -0.4872847270982834 -1.4129158037229343 0.017118147737525357
P 4.906912254545033 1.1205717543923728 12.755223900480674 -0.7724714897481147 -0.29153790167883986 0.9619052284653369
P 4.049070411264704 6.250339751570195 8.230878390701193 0.16395796304362087 0.38014505859528724 0.46094943163786417
P 4.712885937018127 1.1220583713782186 3.790669018075866 0.7796165854333283 0.6847050835654079 0.7001494431449361
P 0.36637082793447834 5.780641746839741 3.448385033451934 -2.1913995611034 -1.9019887330698921 -0.20524756582102716
Ni 1.2755720959534225 1.0462409051000776 2.6299586050656543 0.5143499587461916 0.24048427753613422 -0.9360196189478267
Ni 1.7818153415567874 6.674855544350461 4.543046786647438 1.7932331262300276 1.1301641328771568 1.2274860439587827
Ni 5.968375023138221 5.75555166507249 9.381803580618682 0.04312691309646121 0.0532028092752245 0.12837209551921117
Ni 8.604967770507582 2.135438656846377 10.082188972188954 0.500990249609834 0.962416877994433 0.20460299025849277
Ni 2.3224331848267363 5.272647394111945 7.086320116843945 0.16263487335682314 0.18673073796376227 0.6192964762526109
Ni 0.6333663265574417 9.270744171426385 9.229697125987748 0.4709942174683759 -0.5853139486595791 -0.6612144566426355
Ni 1.4883407319215147 0.9215657259803629 11.435425405215815 0.3292590703786975 0.5746927215003069 -0.27090865546426246
Ni 3.9509172088004485 6.887441773326425 1.428389025818696 1.014603073079685 0.7377824230063617 1.5642537640096994
Ni 5.635974761382761 7.820043122330552 8.19695981051493 -0.5960704158451348 1.1989977067111028 -0.6224656180092117
Ni 5.343229779716003 3.0853139480050573 4.6872778193932305 0.10742146140947306 0.18153376714385508 0.7416164520404712
Ni 0.8288327472872011 7.393849185222706 6.87263670981033 -0.3633408425537549 0.6721462730637908 0.27050139272351476
Ni 4.94082171438169 4.7750319992362495 6.974392450369119 1.1096367023477665 0.11130819805838894 0.110030616897546
Ni 8.568194520894512 7.12018397493257 9.513007105986668 -0.10420758245786568 -0.3725747024471971 -0.2985246174093181
Ni 4.853786218087658 0.21569170801694884 10.7107862679372 -0.010281070211033907 1.3186105679804452 -0.8973682251242159
Ni 8.097338231764041 7.099252772585844 4.833898383735906 -0.3013644008509584 0.4980612488884971 0.06545797249349372
Ni 7.404136939578744 6.236212330029856 7.192467305738225 0.06061427124794723 -0.1557800552185188 0.0940938910626315
Ni 2.280114762652963 5.062459817082469 2.647004538480047 0.4336594855736596 0.2812920555811156 -0.7052965345635144
Ni 2.3569993098350555 5.162637737159348 11.533937949454565 0.3459645560588364 -0.43237316266206827 -1.0188538779362388
Ni 0.8201419661472468 3.2987118880959923 3.7033024530911196 1.0039448220348903 -0.06655531932273054 0.10615596443348815
Ni 3.5271492846879084 2.7873247653146085 2.973350712166766 -0.7604515824691033 -0.06639539670609856 -1.4977994890412076
Ni 0.9411927183333714 3.3741371793410573 8.18709524038063 -0.2823405514502879 0.3023499046926793 0.8557279238756101
Ni 3.778132185506886 2.872317303296805 7.134588655100944 -0.38670419987004373 -0.4522048526760148 -0.337122018066542
Ni 3.7799562554281696 6.879096653436554 6.027085449659606 1.180674997142515 0.3241407753155256 -0.24057118082298568
Ni 1.0859782683352346 7.500931209951643 11.455221124036544 -0.13091671631793583 0.25325211872476383 -0.13206985608577254
P 0.39725141966684424 5.613538701350977 8.117162223668549 -0.8793810445181758 0.40781372815514927 0.7482352429085695
P 8.689914706741746 1.5987790453056132 7.868411984433222 -0.568862230861459 -0.5065638870428695 0.24898125926355183
P 1.798003962108177 3.362308085901535 10.433897014061197 1.1976939002980147 -1.1546996561246758 -0.6635888704120829
P 4.038764416209452 6.244986106351229 3.6722804959398543 -1.6079499193460696 0.009087821233881122 -1.134875165199581
P 6.888435891433525 3.9358503912506477 10.393650735318001 -0.029584655635652275 0.5588472698276182 1.324524619472035
P 6.560805572522222 7.807821853857954 10.2767843995313 -0.9719135046309585 -1.1886114783807724 0.24028321726892166
P 2.4463331342299055 8.576092743653668 5.843983486891266 -1.239167594061769 0.8401064152882693 -1.2765311223118918
P 7.136710048419396 4.120373304487668 1.6369467963735058 0.024122089859184265 0.22631235691112636 -0.12602390700200877
Ni 5.495676423387256 3.062950850770124 0.5624410158081826 1.0560919363520909 -2.312548913621927 -0.468547041479464
Ni 1.8876296376904322 1.3409467619322164 7.029214871853289 -1.83986522426627 -0.31632565014648106 0.7790738255559808
Ni 7.028770710827457 0.5908408724476032 9.391214869377542 -0.5680461627180668 0.05177867523418825 -0.8736971067595211
Ni 3.15718230290362 1.7558953079753514 9.288831648765832 -1.7539422990502052 -0.8893219577809717 0.2034989585610366
Ni 6.423298061506279 2.1705884842295067 2.6645712438569658 0.19925535279333426 -0.1105450946401193 0.6144481470213741
Ni 4.1221335319617065 7.164390309474871 10.88912284803619 0.4312652743098702 -2.1134431990325795 -0.7307219166151544
Ni 8.08886542697968 7.0771815265383164 0.3241189843128323 1.824103333446323 0.654469424609318 -1.016314913564469
Ni 7.117575554945136 3.856466868276398 8.25903017383132 0.8600365785532931 -0.3457989770152496 -1.1186957272262412
Ni 3.232361344709312 8.501834857158224 12.659380882571725 0.18645948658024664 0.024325978339874234 0.556977306498415
Ni -0.040657606510444456 4.491471209623152 10.412178725543436 0.014768930779058434 1.5967190836272567 -0.07758175234022123
Ni 8.737732699728188 2.537801120432657 5.835640191071316 -0.014082446234995102 0.03064677835157948 0.07506412812469009
Ni 3.6100441422606284 2.5926326622664337 11.55839234285425 -0.5285622456908317 -0.2318163174484911 0.09150607573079723
Ni 1.2086834519399632 2.947751714891476 12.704592279640654 -0.16323214062118985 1.6872905633589264 -0.17025793711971968
Ni 3.068623708225315 8.530226505482998 7.84499822292363 0.8363006683889339 -0.2792151184474288 2.1050701444775357
Ni 5.4517436993331465 8.000051462512396 3.8811456222764007 -0.049413774546437486 -0.6296256260927607 -0.8741632477626623
Ni 3.057989380584233 8.837618768617663 3.5945121868809013 -0.3799152019726683 -1.2880175256849367 0.031695274220751864
Ni 3.928517630167089 4.286473111519727 9.304608941549972 -1.8113732874741644 1.1008414726536397 0.48848594649523613
Ni 7.188486273135024 5.971667469346137 11.544202902936588 0.5444429214768302 0.3226526208057734 -0.4196035217012258
Ni 0.6188129846904827 8.997990996096892 0.16465149551455974 -0.4858541652993439 0.5010617262777177 0.04887332866193519
Ni 4.7846083663229875 0.270582532123167 1.854528240828904 -0.17629514445273506 -0.2875020410465694 -1.6678602225484567
Ni 6.085452951035791 5.866509838384154 0.41936644339248313 -0.4364473327314419 -1.2466402482897305 0.35004926765117134
Ni 7.919427571991674 8.76417259323719 11.641994027521466 1.7200124790719795 0.5734135976775673 -0.15250138446724704
Ni 0.1157819262184978 5.232645540738202 5.8165522113800465 -0.05039927838815836 -1.1461088291318713 -0.1004861677422205
Ni 7.816923962765158 9.04317320804708 2.489304573435498 1.151304257289882 -0.47160099781443937 1.1068539973963067
P 8.591579097285363 1.4811630167812648 3.767896417143605 -0.4256800669126088 1.498512198837516 0.16421970134543978
P 1.7398890944160903 3.149046951054696 1.5103216865079392 -0.07984638000468183 0.012100125697643677 0.8526094328512864
P 4.837707041731544 1.1259162792617328 8.02325454394608 0.2583701566776196 -0.9835760285705512 0.43411714193636847
P 8.68400472019679 1.662420844859188 12.312719130136712 -1.6239447521124293 -1.0293802313888594 1.069626737613732
P 6.475247572864428 7.789727080238824 1.4420440132494228 -2.1325953464809984 0.5564702849550093 0.5005747593389701
P 1.7077398620534718 3.470375108387965 6.1550576351620405 0.7081064932084837 -1.1885461723604756 -2.0914258142212243
P 6.8716544481577175 4.2825604815385745 5.990843916428589 0.8931500732778102 -0.9705983853639608 0.40632917318982276
P 2.6689152663745017 8.695697008392214 10.205143141337937 -0.40119365173547034 -0.012790209786132812 -0.1853870794516743
