# total energy = -340894.6058890518 ev
CRYSTAL
PRIMVEC
9.06515245992497 0.00000000000000 0.00000000000000
0.00000000000000 9.06515245992497 0.00000000000000
0.00000000000000 0.00000000000000 13.26776694475840
PRIMCOORD
 96 1
Ni 6.487965683111736 2.07602863337467 11.491730258736085 -1.6777707967939495 -1.0031295252224466 -0.25900599048940554
Ni 4.824401474389694 0.36364767359335565 6.023114650467349 -0.8378392165206473 -0.3738785088602851 0.3622252408920729
Ni 2.7827388329679486 1.537576723583093 4.8067389318623714 0.03542491646651318 1.3463951942928813 0.924655342974943
Ni 3.2902332480301033 4.18552580863544 4.775666309700133 0.7032026281489631 0.2259439178281141 -0.4120475637308388
Ni 4.864687010722799 4.5762701286404255 1.9835840243697787 0.13843899283690997 1.1890796762664426 2.6694347445789575
Ni 7.091305952280533 5.985103560818757 2.674980462368207 0.8241743174390451 -1.5006320733939964 -0.3269959853761336
Ni 5.068961150176035 4.632927329828973 11.368114217410085 -0.599522121839161 0.013504205134021905 0.4407996961628667
Ni 5.520423859550764 7.904332256760098 12.702811928462006 -0.43167433682283074 -0.09611452103708608 -0.396304184853653
Ni 1.9311312407670307 6.576541285161864 0.2932839622932744 -0.23066394901160273 -0.3262899604480445 0.9389409063596798
Ni 2.687708842558421 1.4440968741980844 0.40974487899557704 1.085196309917215 0.37124904165723804 -0.7811654179776869
Ni 0.538932362857656 0.13522759476638765 4.821983798300576 0.0173307779689637 -0.8008677815026207 -0.7439911229202348
Ni 8.533381297540211 2.3559424027026665 1.3040393663447756 0.19992743915969438 0.12577733820884143 -0.17139822137174998
Ni 6.89858081671757 0.7457320537110742 4.754132947187609 0.09043675392601844 -0.5559830609059457 0.13854955027284524
Ni 0.8700733072122895 7.460112603985314 2.7138681522335886 0.30846090268642357 0.8247384174726311 -0.9644670756552421
Ni 7.831820104390948 3.913997305083348 3.874029049076899 -0.6171159236615242 -0.43703945778948605 -0.8296600231439647
Ni 7.607947105902567 3.895604111289498 12.346240512668297 1.1407380517382613 0.9115530012650301 0.9145982158492572
Ni 8.001093691237948 8.82816191646008 6.871535841673424 -0.3293459736655489 0.38928095945828445 0.187346002950258
Ni 6.7329786165075864 0.6731319693656787 0.4100349638656624 -0.17841476189889918 0.41565816390023247 0.43634988792162915
Ni 1.7223698509796603 6.593420598539956 9.31256557586344 0.46111989577745743 -0.5294150806094301 -0.5211494981665282
Ni 9.357956605910049 4.781423587856109 1.3262988475477322 -1.4215228286656552 0.4467029490211791 -0.18268382158789828
Ni 6.481076167447209 2.151396308683724 7.0751953638081675 0.2011767381857632 -0.6912727094805966 -0.00013832535007718113
Ni 3.4629515927093673 3.99682560064491 0.1811797577335664 -0.8401732639704627 1.1983675293262717 -0.4116528993955814
Ni 5.857293980089583 5.365201258598524 4.8786636623696 -0.06339414798592953 0.8421231886079819 -1.195251095184477
Ni 5.083619501267537 2.891384681967108 9.346146525636698 0.742313735217812 0.09033648090272829 0.2296545339104819
P 0.25311536642342264 5.6560022757069115 12.324415252255248 0.5011784543612402 -0.9441072810519675 1.2557653505194502
P 3.921738945053751 6.169379974540486 12.716530223271388 0.44777921280449334 -0.4505830008018757 -0.9841622400913244
P 2.5465462926531313 8.51490651737665 1.3550371930210015 -1.1005853907787755 0.17770153788195847 0.6464079877574223
P 6.330250165307199 7.707863213342595 5.920687495870646 0.1402444214767649 0.14897743047438858 -1.6960194585914918
P 4.7515901719982665 1.0555916467840702 12.571447901559068 0.11798046787224198 -0.2744002135572887 0.9095609105356658
P 3.8370250978366345 6.103032125660648 8.278555336898503 0.6668323170500452 1.2565734482430424 -0.1746018159107122
P 4.833675125080235 1.1326907661614458 3.9113511871590383 -0.4254946903746801 -0.7764872957757272 0.03179786123688718
P 0.1766916008842144 5.638660639567121 3.476194873543983 0.30943869321866063 -0.5905338022976218 1.0463996487649914
Ni 1.6053024755958354 1.3250079698758521 2.5234763868443735 -1.4345806902908778 -0.8139264144587919 0.40346470715783417
Ni 1.9906439648954812 6.547850078479984 4.844340276631967 0.06403486689372198 0.012453652382320489 -0.6198518345354486
Ni 5.972892800818602 5.587360943322962 9.159986373289854 -0.44257530000605066 0.9926247690363807 0.23769077395139707
Ni 8.6117586033764 2.2322212056112583 10.3659734274849 0.9282816268736208 1.3628060315507369 -0.6224036544230249
Ni 2.4803706816649074 5.016337941712113 6.9269420518597284 -1.105386668822161 0.8289084896899208 0.09109032834961732
Ni 0.5568197211592948 9.313990617787736 9.26334270598605 -1.5854026301731727 -0.33941004276977027 -0.06869961935924297
Ni 1.4903382155201295 0.9771962106435005 11.543646385329177 -0.3902600355421021 1.2224453962110817 -0.25808682110924586
Ni 4.155728653386358 6.9516119570300505 1.5134144669354204 0.4793719000091099 0.23939695800922642 0.5955042589290196
Ni 5.767975035559862 7.808903399654203 7.9368181361487835 -0.8107343898840553 0.5408986557689975 1.4443850779758094
Ni 5.428077154189527 2.9341359396959388 4.865899928085843 -0.454604720366759 0.08528040653605957 0.15716356582960675
Ni 0.8549653245721561 7.508656493963661 6.871416181664513 -0.08939391448380088 -0.5119302935611054 0.46725943301629197
Ni 5.158814938684977 4.635429311833459 7.114096651401834 0.21838127498950777 -0.36642668056793026 -0.16310127147028042
Ni 8.227949124796892 7.356434458386366 9.413069105165393 -0.43830495476547093 -0.3318689971977188 -0.4571251727957676
Ni 4.569199309932094 0.3547076205034123 10.491101536196222 0.23625378439455444 -0.4336528007054402 -0.6552065598856587
Ni 8.03862342130524 7.264976137939764 4.524122840666486 0.26834243739898295 0.1302024638597306 0.768924910047437
Ni 7.28147471492587 6.060933558889509 7.017162072517152 0.48464831791670077 -0.32137478253461427 -0.14390695793001668
Ni 2.271663682790678 5.243039267683825 2.557215976780958 0.9121196724017776 0.38671268451047597 0.09926566507155807
Ni 2.3076523369856434 5.14545290435667 11.414047343557664 0.22103825299638064 0.7022927147401841 0.1801029482345995
Ni 1.1547281511357432 3.4048258368660127 3.7738174176754717 -0.13204723037795324 -0.0072600239965229805 0.03403420676657364
Ni 3.6923180734249885 2.61191510509643 2.563903339551645 0.38098375244649874 0.2916150347736784 0.630230092445979
Ni 1.0316143192410767 3.127114899520227 8.235130538361943 -0.08545704132323992 0.7394850075197652 0.12158695427657769
Ni 3.750525415638055 2.786192655952403 7.030085353479456 -0.614260199380284 -0.7735061016602162 -0.2766051916284075
Ni 4.176777936771928 6.6223112385700205 6.031327678351641 0.04060800332934942 1.35364287699423 0.3016744758922095
Ni 0.7938870486604637 7.630374292421042 11.656091439611235 -0.20769551314088747 -0.12847905341072066 -0.965164101722267
P 0.14606045163363796 5.805812980801622 8.035543082591023 -0.1722088901985034 -1.1840711673082576 0.19810684101118786
P 8.506203971274088 1.5716073049049823 7.994214147240829 -0.9744247010885865 0.9614241750638605 -0.04747130610808598
P 1.728470698403643 3.291447978423586 10.492269127798314 -0.19916999216837955 -1.2805600409656268 -0.5510740536401025
P 3.9642273133690673 6.086751112327106 3.691928271880812 -0.2423069325671698 -0.35142120829803347 0.16100839349699367
P 6.801647144348107 3.9866635650397315 10.284310003979774 1.0170674754597775 -0.9864464081398107 0.675022051949689
P 6.184691016589678 7.484253104267729 10.340393381034684 -0.033589148809355054 1.8835284694821757 -0.4912136298390444
P 2.405383742747841 8.567756354645326 5.806372300691756 1.0726652673297399 -0.30186499463646077 0.1543669769210761
P 7.057511064915588 4.10658646336346 1.4962722641438133 0.09963616103709937 -0.47511235340180763 0.2210973883690902
Ni 5.4952952576796195 2.9942650941733207 0.501783369182349 0.4585377368725781 -1.6258928769777352 -1.5330755386346824
Ni 1.5262815439541442 0.9986806213341978 7.155054822027449 -0.1192649910116204 0.5068436230668174 -1.0283764727146933
Ni 6.92401763376318 0.6765105515869542 9.419291425628723 -0.6075395928269989 -0.5207993139159611 -0.8725046291133166
Ni 2.7635841663901246 1.6389613856779277 9.275999471473963 0.05812055829181604 -0.3771877757391762 -0.0027927322537887383
Ni 6.388765722694732 2.0011414111316954 2.617318842316989 0.35852130967792445 0.7300554866757492 -0.2564253742464229
Ni 4.0411632600070195 6.944178532234113 10.434341898787926 -0.2336310020597267 -0.25439060320458123 -0.3395684227245055
Ni 8.386172291124078 7.113733138799009 0.600095851199936 -0.5176098604443861 -0.6058166965986211 0.05651593280885751
Ni 7.716937430684952 3.8828766376145025 8.327977640124077 0.22827796527792943 0.19074140178505214 -0.8265569587386088
Ni 3.0643749812120764 8.381503737746142 12.327386809143185 0.7258980128639498 -0.10193189904981155 0.1635869528574473
Ni 9.065134059863254 4.885047342541915 10.24579398535419 -0.25551957460270186 -0.2445563907229788 -0.34336851319688605
Ni 8.845150011664456 2.240452363799931 5.578366499319878 -0.5773162751660832 0.9567925898291199 1.4163130023299413
Ni 3.6328234796009187 2.5898142640568014 11.490230882563832 -0.12216930914260894 0.2289963315011927 -0.3073262748613481
Ni 1.0989230742530713 3.3181448516236296 12.720550618267728 -0.7125228771086245 -0.28615683987258456 -0.7882732326670618
Ni 3.2654581870943753 8.433764340122458 8.035224895749147 0.04571087177355353 -0.5260927011044166 0.07097273166413584
Ni 5.594721846901379 7.557998117334743 3.7397451366535077 -0.5345678284549632 1.3190425133115413 0.03629574910724072
Ni 2.9205019508019263 8.635744996071583 3.6527749730562586 0.9920007622991368 -1.5315976685375752 -0.5696345902511093
Ni 3.1676995858756074 4.273067983335888 9.093355691661683 0.05209080715796835 -0.2853608263338505 1.080869914627719
Ni 7.39988373283384 6.3950025474015675 11.68321074890334 0.0961209487949893 -1.1031626645876484 -0.4711667384904982
Ni 0.535905508541359 9.069503463218915 0.46682632930662465 0.3821983415798902 0.7381480338758966 -0.04275487446902314
Ni 4.546491103695724 0.36798806846200793 1.942188913408597 0.6341723649231789 -0.4982857061944773 -1.3069290178774589
Ni 6.0289154413538375 5.624455546085128 0.19807176232472476 0.1046708952475294 0.19548791533110202 0.5476503726705342
Ni 7.7037385690960685 8.75181520471449 11.664622654337402 -0.050954893781312245 -0.03083909686804366 -0.7050368531442245
Ni 0.20707799102565633 5.029563998757567 5.719985932895553 -0.3805628628589962 -0.4625139479115067 0.422797088937859
Ni 7.932960007376647 8.92112505217025 2.4315439589382266 0.861206173381362 0.14658116232807014 0.6747885957826444
P 8.493549018816614 1.666392536205375 3.4787947591921236 0.6325268588999557 0.3997756883420212 0.19668682073520966
P 1.9126111348425183 3.3113641177853843 1.522436106395075 -0.5092645738034842 -0.8058066135651349 0.1929669486814612
P 4.717931261916174 1.1491893431475508 8.170755266598688 0.37572687492293355 -1.1086355147767617 0.18237091833316976
P 8.455112773530303 1.5278316849786628 12.426536911223144 0.6884709783657433 0.6012151932708678 0.9971149435972504
P 6.484221775257197 7.660488727996779 1.5835479233698713 -2.130441276252473 0.7420106021550963 -1.5968530381019597
P 1.7503811712472783 3.172322813492593 6.0510035911804 0.15454823969394674 -0.41737000438501665 -0.34464712279899357
P 7.042680475932475 3.9621241980609483 5.937245902861206 0.8376109025599251 0.02857986852022175 1.1356223277782507
P 2.199677309248557 8.506702554644548 10.10969341643189 2.676048136130417 0.2524936432921845 1.4568780682364972
