# total energy = -340872.5891885708 ev
CRYSTAL
PRIMVEC
9.20866753864489 0.00000000000000 0.00000000000000
0.00000000000000 9.20866753864489 0.00000000000000
0.00000000000000 0.00000000000000 13.47781576918644
PRIMCOORD
 96 1
Ni 5.592672525176458 3.6998585064806897 11.81447846467222 -0.49936402686032066 -0.1982546794429618 2.6175609385278014
Ni 8.675752886784174 1.4145618619580658 7.333724016792224 1.2555020695557346 -1.5123357349841695 0.6676116184182309
Ni 1.7628520915168109 2.165731303171274 6.03759022572518 1.564402887993054 -1.2413653730440362 0.46999560100053256
Ni 7.46812820526723 6.9804647901452785 9.653148904659135 0.8643125802208276 0.6817382876276001 -0.9564987127377849
Ni 7.102212585740333 7.878171760388371 0.2631883270557801 0.9434143687500011 2.3774903514903185 -0.44797744485822844
Ni 0.18641934794998363 -0.07753882372509507 3.738247600367435 -0.37115288239900596 1.849500947583821 -0.36538204135349983
Ni 9.088374868859903 2.3233929027766695 10.295609102866582 -0.3351145007182099 -0.5740640867773726 0.8217366545318299
Ni 6.182358769690864 5.746070511639089 5.059504478639866 -0.627664645711648 -0.20568002537275545 -2.2748125754134176
Ni 8.065945703356284 0.9530418544221029 12.155143917379538 0.4571051181911095 -0.085795141388949 1.3460128712527981
Ni 6.459244989942896 9.149723013043722 8.335489852855124 -1.5772018395299352 0.3347892561683073 -1.420775151866353
Ni 1.5105069706718453 7.510653832682552 8.575894094300038 -0.282388631079404 0.13851561171111626 -0.6519888242793094
Ni 4.153357764454343 2.032003030905077 0.2601218407133587 -1.1390202977162063 1.7083754090536836 -0.7053646687972885
Ni 3.327966461619764 8.1998213143056 2.3930804164250428 0.285637734144321 0.41235455344829625 -0.9518761263641091
Ni 8.924009359172578 2.1043094896458965 5.1117443296066 -1.0007245153253796 0.27747242472470923 -1.9658569924787626
Ni 4.405629215957749 7.776462025697548 8.335800184956446 0.8525037605113576 1.7551324627035645 0.4679718857022843
Ni 8.660503333081321 5.628807337211478 12.879711359355548 0.693980595330063 -0.16352910303631837 -0.248803596035107
Ni -0.24864968249897862 5.28921929862447 3.472666861444505 0.7043868782650514 -0.42901658748500954 2.1194151003452983
Ni 3.0174501869457413 7.666731541444414 10.473058287614906 0.3147832453600256 -0.21858259236703645 0.14268774081093488
Ni 2.990376703922561 3.577558190823937 2.18217982540801 -0.03796799460334106 -0.14377017524183627 0.14753401315964268
Ni 3.589547876162774 5.728684547031006 7.749999998209313 0.06337820714632957 -1.132846050584694 0.952679853212327
Ni 5.5781320388861175 0.368168059645084 3.5576987780729876 -1.3080217367210054 -0.13473866116718733 -0.2660027335222129
Ni 0.7701798148026819 4.047504129300787 6.927072013983135 -0.7638744921077231 -0.4049778013682509 -0.7093642768749848
Ni 2.438722256988338 6.00615091334782 3.3820959311975036 0.579823357858653 -1.312499569986701 1.5378845299875514
Ni 6.492046264272339 5.151255039218592 8.639994709257877 -0.9918827486640336 -1.1339233428092728 0.2213087330489479
P 7.3688403501801805 0.444819167804385 4.792940254007114 1.6330629123636133 -0.8788588534661186 -0.18310008318971047
P 2.3746023038283375 7.926747482479281 12.516672527616555 0.11433207248637729 0.7001697548599103 0.0850502928031245
P 7.992746003849054 3.8444714239623283 11.53833170043609 0.327950635979919 0.2023730724867095 0.3269689887929401
P 1.4819416834820818 4.170485886366967 4.617176255446968 0.39100616967950724 -0.4770697342384946 0.1912301684960126
P 3.4542817563915187 3.8826597688933235 12.503989429600288 -0.07127715027843208 0.34885601867401855 0.013935636244485676
P 3.842003501020079 1.327521534905312 2.41378242227008 -1.6960503118294274 0.7429896782389139 1.1263771550308987
P 2.0320859089143317 8.135636900471734 4.096069721857233 0.8013573195445295 -0.3602776302473989 1.8466879036150583
P 4.213333817151612 1.7464790803551735 6.29206439054122 1.1752186020136342 -0.15379207825421257 0.4143821254012863
Ni 5.175842181964132 0.25667503639513556 1.1695035598601213 1.564622460203028 -2.099860061031506 -0.7962868470001576
Ni 4.420335458266599 7.6368586234419675 4.328872208119956 0.4471562345085137 -2.2766059198684148 -0.014206116297052953
Ni 3.627128449025902 0.6256276745278301 11.88228556837728 -1.7857648428774406 -0.4178574855443965 -1.0857912631887363
Ni 7.119616967683807 6.977711398504486 6.932099025677814 -0.5615489850294975 1.0659328337019127 1.457776925901683
Ni 6.745100452529818 5.6560005329146925 11.451736152033003 0.18278460883182068 0.6664201692132911 -0.7757378192042124
Ni 7.601000071437796 0.8788540648712033 2.6647932071660465 -0.2846044077838002 0.691857378339473 -0.7897251346222399
Ni 6.609944836770902 5.733058664186111 0.4649640492538777 -1.645422462370231 -1.007085424546401 -0.8880171229266189
Ni 1.523831912826451 2.7292188880935195 8.735821947025162 0.5629047277264435 -0.7263320150775748 -0.937569994154082
Ni 2.1971604860141696 0.3803907242766033 0.7983122946107821 1.5571176671855507 -0.08536448160943363 0.18487260170910094
Ni 4.319224286975947 2.907581572677184 4.386638180570435 0.43677669104640254 -0.08048247092678397 -0.1877596934489089
Ni 9.121424777217113 0.4081889294473765 1.0164951000409883 -0.35981380323710294 0.8528400608048538 0.37697900216247976
Ni 7.929491665452379 4.388786562743668 5.812914388703258 0.001255726783972031 -1.1423082244388585 1.6922299096420728
Ni 1.781960076983851 2.1114646244448796 3.5512692862883672 -0.750185938877037 -0.06497871886423003 -0.20274356845225083
Ni 0.9209680648405602 4.707268334973831 1.2403578117054455 0.0627590855050919 0.5767819999291679 0.1659731937014367
Ni 6.640158475478063 4.823813233321235 2.5946139506627626 0.4550348659256422 -1.55041402991313 1.202507262526258
Ni 4.418742358755371 6.024807674097807 12.059909717811808 -1.1845535062613148 -0.9882402668154401 0.3139900600347689
Ni 2.144928922848361 4.451285790389356 10.602417967926613 -0.11720965114448846 0.7598941673037364 -0.6538850128607577
Ni 3.5812969099080902 4.902777558805509 5.485201847975668 -0.6886890079138204 0.44733878283296513 -1.0170980715873967
Ni 0.6327643919914234 8.58303081176363 5.916518346338934 -0.14484103970851187 -0.145487157932943 1.3508174917302929
Ni 5.588722006735322 2.6555771725369315 2.2555931660057635 1.2249249680998258 -0.6049849447259452 -0.014838350564413154
Ni 3.4811250227223245 3.274887701026019 7.493180385731367 -1.5439222515411992 1.3526344903343737 0.04399723151655648
Ni 5.960963980968656 6.992021668102453 2.5554209400862473 -0.7993860547507717 1.7572515659290964 -0.8469735747217477
Ni 0.3477377094970476 7.710214870300011 13.250054506310182 0.8391504791329032 0.4500520679990701 0.14994647925587723
Ni 0.5923364990770137 6.523724081142999 10.860396951667354 -0.06161005950231325 -1.1701946664364813 -0.9075935023966498
P 8.18162498694036 6.313195520300844 1.8458673099200984 -0.08954946622505869 1.1819371516843902 -1.284103278232195
P 8.16480075106167 7.823214431584855 11.593429000988571 -0.7253575669794476 -0.02939079445729132 0.2916014079269236
P 4.995214165127509 6.805251469913291 6.3830395813000305 -0.9656166158786531 0.37460098884860643 0.555177791395831
P 7.110988446053629 3.360132337878256 4.2379513485005464 -0.6545519570207954 -0.6054526283909831 -2.2060268240982714
P 8.688737108234067 6.312431200882162 5.75834290307616 0.6659848814480852 0.5577584076388136 -0.7313052999224502
P 4.991189977344812 7.246401904508004 0.2855828860231513 -0.189029561300268 0.7417154395121807 1.144790881651396
P 4.68405328371484 6.267787579897 9.8471884251267 0.7836524460655988 -1.7621734287107458 -0.49521683746116646
P 8.512971267940381 8.452194061153651 8.072065783906353 0.27662036113705907 -0.9294489077088444 0.3567318218776695
Ni 5.610813600535528 9.014125381235448 5.850274874408476 -0.7932208064803242 -0.47648737937246316 1.6668592920877678
Ni 6.725062391625586 2.7601692202162775 10.142043518651905 0.6860564553869798 -0.51801403786134 -1.2538725043721115
Ni 3.1292157867594605 7.960230198218152 6.233179564965804 -1.2074468659197204 0.5989395098628136 0.8069823790407908
Ni 7.83919147003561 0.13564459601351786 10.05926220040807 -0.1625651964611523 0.6230947669527785 0.05872065376966016
Ni 8.665033997587242 3.258109508485804 2.318534409700809 -0.13886065375536083 -2.213027166675505 1.3424644917799073
Ni 4.664457238859966 4.366077988207899 0.7860831839118764 1.571658541114203 -0.03100416169099822 -0.6431072055189634
Ni 1.12838409600182 0.9708974610826286 12.32050304231115 0.6637482788080827 1.00880292145814 0.02927483770471732
Ni 6.539157808199751 2.0193595301598983 5.979379474625035 0.03324256410321372 0.8837336650599168 0.2809873798565032
Ni 7.733079992186595 7.4084928732746755 4.257534501220647 -0.1429163118819732 1.4296606272814412 -0.5749968830042871
Ni 0.8564088582315099 7.3580938349801635 2.4800258942005384 -1.0344283353357282 -0.28504946574101875 -2.5133487280842455
Ni 0.8623125350907482 8.778871547632328 10.541579063066328 0.286321647585223 1.0281124204200294 -0.11702658859940492
Ni 4.308284389754336 3.771326976461267 9.878241894327639 0.02478800557795731 0.8595658095644616 -0.6799385154147
Ni 3.3426174519224436 0.670810002573147 4.707801516833369 -0.148988229107666 -0.7018939366398685 -0.9804346547280921
Ni 1.853916606352262 5.766283537229524 12.773290470271982 1.232085490404007 0.10388953699681462 -0.7311003830004957
Ni 5.78293280842201 0.9490729186455754 12.324788756256384 0.5920345552128642 0.3658741504985699 0.3290394981687236
Ni 3.1938974686488533 5.958293467337118 1.1784221545226892 0.08817572580598362 1.6242021195388736 -0.1506064814373793
Ni 0.8786109560440565 3.539876322616164 12.435347099735294 -0.39909665999712557 -0.4031798289275637 0.5318131485279615
Ni 1.4237521123176349 6.239581430747339 6.397555204187594 1.6019782751436669 0.1467022612869667 -0.38818978327663467
Ni 3.476115507496267 1.1462673286654308 9.083765009811808 -0.6785292937719991 -0.645299842294908 0.4965617815248351
Ni 5.3998338149763185 2.339821165944477 8.22486428610204 1.5144070156909015 -1.0487856324986646 0.1305405639254397
Ni 5.5286814933641875 7.903956029934257 10.980794756578328 0.5485746842570166 1.3008678992850435 0.106233611748959
Ni 7.734654674362433 3.7156882062483243 0.2955963912746499 -0.7596267725749628 -1.1874138585282454 -0.6728340431594347
Ni 5.5368311642742265 4.0586650345470785 6.624386790316906 0.11361782002817207 0.5971461654078167 0.156732134719143
Ni 8.959932371850613 4.5415031077968715 9.32709300324987 -0.7392312396377463 0.3093785294046866 0.46875787193868945
P 7.167796717063833 1.6238472526614025 0.6145874028283435 -0.8206722178230575 -0.6678702713962562 0.30421498292587607
P 4.58253693104561 5.333466946898748 3.247884203877321 -0.7823362983573365 -0.2983698369990087 0.342102759110585
P 7.815479150721091 3.1293999601133597 8.031888366753247 -1.572184588821002 1.7836657942565668 0.3706569165991939
P 1.5561819624388427 5.300619629230829 8.437881028955376 0.5630744205350883 0.2300437989291006 1.082982847205664
P 2.041045942581527 2.2970929478398663 10.745565786377984 0.79302848796386 -1.6809571649417308 0.641558887195237
P 5.451107676701851 0.9545704932594661 10.177988632132408 -0.3110852276831481 -0.5039598737611192 -0.49749560619301414
P 1.6067467567518634 0.3458968968248253 7.713219658568876 0.5616996516747488 0.9030117965632384 -0.03847887280148857
P 1.143955953073996 2.404917237880143 0.9628297473150749 -0.012844460062835942 0.3058864570910281 0.2732028508150779
