# total energy = -340861.29940758593 ev
CRYSTAL
PRIMVEC
9.37263147622519 0.00000000000000 0.00000000000000

0.00000000000000 9.37263147622519 0.00000000000000

0.00000000000000 0.00000000000000 13.71779356556755

PRIMCOORD
 96 1
Ni 7.877247028478914 6.058572207486071 4.540987555166356 -1.6325777451970789 0.7401910324478543 -1.2892313434873797
Ni 5.731261164465718 6.7092765334906215 12.349841553119418 -0.6862456885796504 1.9238433670511383 -0.7193874654389417
Ni 7.713591506968738 8.221541280077036 0.06254263384028706 0.8021877858656249 -0.2436847867513029 -1.1188116839788151
Ni 5.397164336119592 4.200569824025059 2.183255196567634 -0.16802313425192997 -1.6691131211189512 0.5928287689793855
Ni 2.3051612675872923 1.9031972133517436 7.084815390008641 -0.10654291545926167 -0.8511549597929471 0.808814290043207
Ni 8.489476701496852 4.022358605538461 5.634254426728457 -0.3094042404362994 1.9456254959232364 -1.2869032095748354
Ni 8.852909866955793 6.103073462633561 1.1887693019170607 -1.028753653548454 -1.1744500992787257 0.009638808641344691
Ni 6.048384156865742 8.839685083675862 1.448200934626826 0.028927224557311473 -0.06372710584531605 1.0088078065541466
Ni 5.6022187716959975 4.458420293772866 9.088683102815665 -0.034996056459210695 -0.5616891101517876 0.1209143536895853
Ni 8.490826360456673 0.6414732210772635 2.041605676944735 0.06693789947312988 -0.23278330934745073 0.006172704469615175
Ni 7.348574366758338 2.7616646654840125 1.0752208065534714 -2.1938611352700157 0.7391577060873334 -0.23294374618471494
Ni 5.709938427426853 1.0060676555995525 5.3983218561302735 -0.20090985767762176 0.6396783823430725 -1.2124713157175053
Ni 4.413337935462119 0.061294199302451 13.545964621841179 0.004429239415947211 -0.9527744698086623 -2.3973747491190713
Ni 5.842645519177759 0.7384265348140319 7.6563397237035895 0.18311808091183945 -0.2825616663221585 0.15463128632605627
Ni 6.493349845182311 3.8942066127769563 4.410819509333616 -1.2151365212544942 -0.033650341064593664 2.599398408686162
Ni 8.046151223721735 4.577077810657284 8.19395387603299 -0.20507915856396294 -0.5440485142518888 0.7852493582390734
Ni 6.591256355559453 2.316980156117407 12.16384261498201 0.8197193669914851 0.12350859677932276 0.0007625891976373964
Ni 4.362950667628735 1.1283055177801673 1.816112343495513 0.32188103274707147 0.29758307943165524 3.302477109662751
Ni 2.0264004565938984 3.684653314001141 13.08547223190765 2.0225493029644843 0.1956853760538888 0.3890968684719363
Ni 6.424817162444643 4.611981490979367 12.77128006142941 -1.9516416202103293 -0.7301562739196715 -0.5496242085674534
Ni 0.15108494792049326 1.1540521369651195 9.066734273981547 0.3444928566093164 -1.312691888503165 -1.6337090305880442
Ni 0.5768639219547477 8.175437304914757 1.14732165016617 0.34420540727588467 -0.4243124971411209 0.3685766370313975
Ni 3.871074957826661 5.96199661080542 1.8113801017676343 0.5661332619660702 0.28352377312511173 0.6424279200637516
Ni 0.9143714509639271 5.04995519607352 8.008846275166967 -0.32646762367648935 -0.8093411090809545 -1.3634714330488775
P 3.048607783921331 4.681901323203518 7.974400916533322 0.3151383147065992 -0.2460388888057763 -1.1124523174196908
P 8.233894408612079 4.177597503813075 13.462368245490824 2.643268113485919 0.875472453492389 1.5930040966695145
P 5.026579852699923 8.71750345728524 11.292268474728795 -1.7546388108965973 -2.2431409553417496 1.7003108868779944
P 1.598680410541732 8.809805133926453 8.775190130659665 0.009528508315725525 -1.239165280068924 0.014433401816510625
P 2.3687264555422787 5.402609835117211 11.099107908735828 -0.8420486266163045 0.20368459220928145 0.8751811475042154
P 2.620128554704265 6.459589625923409 5.180333188855566 1.2931201370188246 -1.9934243605740702 -0.6309939671951972
P 3.7825504517466184 0.18946025101145392 6.240594338007835 0.38783188571658367 0.07081332326813611 0.6989945036048865
P 9.220523226137518 8.263408825726538 11.965935748313663 0.1809221017017852 0.16848516149001305 0.8606513293191564
Ni 6.034090893575953 6.0805135382148565 1.084875554432037 2.147057801763231 1.6597689608998898 -0.9071114205539088
Ni 2.4673171680309984 7.3127334232697105 3.0956124689866593 0.5366414231545403 -1.65217932147809 -0.9584236976746398
Ni 2.1257878427741805 4.807382115940373 3.625722892404713 0.6307368568790686 -0.29110389946521475 0.5542748199655874
Ni 1.7074966641774427 0.07053092780873807 2.8751400543206107 -1.2694333349248461 1.9128871251499506 0.5859919485632101
Ni 3.898677358081369 4.454615005316699 5.903712900793906 -1.4320810637974757 -0.19557173329415997 -0.6128311802432413
Ni 2.7752830992938904 1.729091207534607 4.671224021210254 0.45294687304836184 -0.048208441384426655 -0.43259787707836467
Ni 8.22204740218697 6.1374897661090415 12.417251394583566 -1.0023401965519319 0.3682323663181013 -0.4485412877814985
Ni 2.1701297631833576 6.446477314223466 9.191690199345139 0.7390417493347594 0.7707640201387048 -1.111163423404938
Ni 1.7563468204176944 5.502269027615791 1.3395674473085915 -1.2652774037749435 0.03335672108357481 -0.7745466271095887
Ni 8.766391104052154 2.1081016868215032 4.048107099249746 0.5184207863814556 0.060475174566921655 -0.030549076431450613
Ni 9.213100101858494 2.849383125240826 7.2301689736657195 1.1146650088002932 -2.7291424448522354 1.7214551250557772
Ni 2.3761683250846346 3.634012985112791 9.703309357750454 -0.31347866761598914 -0.14758106434749424 0.5406693133670107
Ni 0.49519362141163914 8.650732829300674 6.923946351892599 -1.5547090577440579 1.3459712193815851 1.1711989393312796
Ni 4.38768504259382 4.658441626144932 11.334697441015058 0.09094506102100466 -0.35982922985607063 0.33091563214551395
Ni 7.019520014248215 6.514503874851199 8.79351737461826 0.27178463031131256 2.5754377841055067 -1.2811123139246712
Ni 7.639313401020158 4.207749259880782 2.6819251270639834 1.3283365370189575 1.1065855742262685 -1.3397036412053185
Ni 0.44416057925650737 6.876549890823656 5.411875618781661 -0.7593861173190664 -1.516993288360839 0.5520914391610233
Ni 4.842801291004056 6.87664361714031 9.761472160813481 0.862355970715089 0.33302702206156193 1.3166447025033259
Ni 1.8704304930493798 8.455903934871259 4.907883908025677 0.6099744275207366 3.448648181036596 0.6680793020832688
Ni 3.6557856084715983 9.151390694973264 8.756781344805582 1.164677593272994 0.2492419691241062 -0.17597452788852272
Ni 8.680228501151802 8.110016335890014 9.846604711493802 0.7774486312477321 0.445179313287801 1.0193729836645025
Ni 2.5534703982996847 7.692709283618147 6.957541612834187 1.7767053037783336 -0.6000106314398053 1.482552590184466
Ni 1.0884437153070683 6.401179385384414 12.653128666654924 1.1051033332537872 0.01405570676211773 0.07543925207592168
Ni 3.4111318041087255 7.014561892097199 13.411695112391644 -0.0791282708917347 -0.13744886100949877 -0.10201211746844367
P 4.904192028412661 2.7161980292749823 3.845152133166398 -3.0353626311335984 -0.4467158045369855 -0.11062402750717078
P 0.039395982679326626 4.883084861902099 3.3910387563443645 0.6612545658519515 0.756943826426161 0.26587957768078724
P 3.0208647941916413 8.518813038609665 1.3302210590118189 0.3581258740117187 -1.4109082863746023 -0.1666365383170485
P 7.889365841222322 8.981914769198852 8.159138298448562 -1.7582995475776366 1.0691503121979458 -1.7820799378266858
P 6.859894724354176 2.7498832674805596 6.534402909140087 -0.14135436671149204 -0.14286180449495398 0.34318905019622825
P 9.025488133811463 8.207313625208904 3.3451662851842214 1.5772604606820126 -0.32933620347353604 -0.5633749824946426
P 2.8283509397835886 1.5848182883085524 12.429336465852979 -1.705970656266933 0.33590151539587954 1.1557124136599064
P 1.452523592350925 2.4359844603734464 2.929448831242812 2.307623194185535 -1.092962841236511 1.5356116747929747
Ni 7.048303366092769 8.739472905909022 3.831283450091053 -2.4850915330107655 -1.1518174494808744 -2.7677586145625366
Ni 8.003824419120624 0.008931180713993847 5.515581913633375 1.7715538414843814 1.1821796067124997 3.3039634644002907
Ni 5.231428090379689 5.93587508635385 4.862395714763816 -0.1498156101049678 1.8819225584476367 -2.1470002090524183
Ni 2.3081511370885663 1.0453952180677215 0.8957114785812109 -1.7825103404958849 3.5280944973893815 -0.7777121693217638
Ni 4.668236026235313 6.13671183768081 7.662979295975384 -2.4992418563692187 1.6543665589373961 -0.32343603593901715
Ni 4.440743510451854 2.91934044799164 7.5817701289102155 0.5554369585944886 -0.7295777757083822 0.7635255934087367
Ni 0.12626059569141979 2.9297159512452775 1.5376683274524108 0.7900575782609942 1.2063266362723482 -1.8750800816045063
Ni 4.824665248731438 2.492885707214308 0.1426673874217653 0.4082369317354969 1.3511270525509116 -1.5232750076044927
Ni 8.3535547970847 1.0908149911184237 11.22732832170849 -0.08140626829263399 -0.691775360148628 -1.515163691351268
Ni 7.288495797782894 2.3315639709888254 8.925674292890404 -0.3039938680540055 -0.7048681887768441 -1.6638644711255022
Ni 1.7990485302854204 0.2868643883313297 10.672512578483515 -0.18229429945896347 1.3876631998037328 0.6220205600519932
Ni 6.300301750769327 9.363680802195386 9.894343273618533 1.1241606069955543 0.9237958231881251 -1.1229789279826274
Ni 3.264281411174676 3.551486963298628 1.63004404788378 -1.816603425524852 -0.6918375808451311 0.2616069184473624
Ni 5.914936627213266 7.830252653308419 6.273160483992558 0.664766692770268 0.4754085444859876 0.1640692918105045
Ni 4.581426711750046 1.546362380585269 11.293544089898463 -1.1303088859851371 -1.8497966244473691 1.4827932454403623
Ni 2.99470577921341 7.671630235002581 10.867428638387418 0.6330608770265549 0.6006611205396107 2.2926226070116456
Ni 0.036421109388717274 5.989167870003518 10.15367743095898 -0.09517786815542963 -1.5239725478921495 0.2876203117919885
Ni 4.51989538486646 8.795024493790061 3.792860346578598 -0.731290901744747 0.36889622515434534 0.251454917615025
Ni 1.7666098520913467 8.99255270613912 12.933958954720046 0.5246575113197868 -1.779009526431478 -0.7277445791543854
Ni 6.470265053390341 1.6503985920716073 3.0658449908172347 0.6801719715817447 -0.6962017713510977 -0.5389245627617621
Ni 6.132466035536367 4.939667439266336 6.715642424917786 2.416471360739206 -1.9418400607388753 -0.8353123363337356
Ni 1.5272797025144418 3.7395769355605952 5.804396746614282 0.01848854572249074 0.4470762732001978 -0.2770188821270584
Ni 0.121222806171248 3.1501883659113252 12.186216024030571 -0.817140036300083 -0.48067622064283017 -1.617808300197388
Ni 9.243364329506186 0.9534028382714683 13.25805612234232 0.059140257805582026 -0.21722350723598075 1.6020050146165443
P 7.990899560053989 6.300845363405923 6.742323495479782 0.13985618489941073 -0.2438413669338252 -0.1418763006532331
P 6.671476709983919 5.495961246504952 10.563812545480456 0.06300822540142052 0.6606123042822623 2.6870545145432496
P 4.431352133523086 4.789930275779333 13.664308155564806 -0.6809648997966853 0.052837712626321906 0.5914002640629751
P 8.91897754756545 2.9010638162440396 10.00390652599798 1.593316999924243 1.9709606322539153 1.2981263319841645
P 7.090442718060568 1.0507657360120162 0.11842320109278232 -0.960359481244772 -3.2983427757794033 -0.8694702131623671
P 5.657357963783758 7.183719148394987 2.932672079272556 0.17104649445928607 -0.8998688800588825 0.48444005856063665
P 0.6206809749906604 1.2195387144115202 5.797894014764803 -0.09692056187814921 0.4370543701878215 -0.41555531977378113
P 5.409358129916324 2.4265087297596906 9.773324790817593 -0.19266047318463592 0.787549724237476 -2.4595167698654543
