# total energy = -340888.8927799601 ev
CRYSTAL
PRIMVEC
9.12077904283180 0.00000000000000 0.00000000000000

0.00000000000000 9.12077904283180 0.00000000000000

0.00000000000000 0.00000000000000 13.34918207166037

PRIMCOORD
 96 1
Ni 5.335217782561624 2.794506286295753 9.52582890595822 -0.11743282289888808 0.1427209080417155 -0.35260417286254114
Ni 4.627764577333857 0.5744494488268908 5.9242732465094035 -0.38610307595093507 -1.36400390851358 -0.31497222144238013
Ni 2.675644297376417 1.8333768611621029 5.093020062736692 0.0586445491160861 0.3664259092369819 -0.4744824331272925
Ni 3.6677752495463487 2.729703153141066 2.550534575000226 -0.30617004976971784 0.5407472177927978 0.07765657144221465
Ni 5.215215696296147 3.322927725064216 0.38247164898268127 2.048053103662544 -2.040542397107796 -0.26790560697188054
Ni 5.014367027021078 4.833273964559952 2.79489118315981 -0.6303064542098693 -0.041702264834792696 0.16667819018826133
Ni 4.928449291015849 4.873323304135212 11.76875883242431 0.1308202999493876 -0.6624825247217817 -0.816172015959859
Ni 5.451617161213292 7.97595685958857 12.517193520817544 1.5081350666392608 0.3070167140407293 1.080563953351526
Ni 2.5014374228859855 5.308192915068683 11.679879579552745 -1.0772477444940998 0.44671606164730165 0.22907552147856033
Ni 0.7789591986998885 7.590339454008415 11.550432926871832 -0.6144959695401739 0.2157852321275574 0.8909849473056912
Ni 8.167584421528044 8.97630563342949 7.30232258995887 -1.300543426066089 0.6731034947707376 -0.4230935371323552
Ni 8.459239564228596 2.8150736424201463 1.6327653321350326 0.9554802987755996 -0.22715850696150555 0.23034590355055168
Ni 1.4677522026438865 1.5046913566588733 2.8224578249116363 -0.1320963384483338 -0.9165306569852795 -0.5122159431223243
Ni 1.5297370151589111 7.268850243954031 0.5328669063405386 0.7082651302735351 -0.7767014686690623 0.10117856582355478
Ni 7.782459538001423 3.9582902949007583 4.051249272115758 0.1750054791070341 0.5487477194997711 -1.2027018950355675
Ni 7.451803945284061 4.232634199497497 12.82991219000753 1.5714351122494872 -1.9004635546746174 0.4125792678645927
Ni 7.134437327233324 0.8074744014437044 9.387171178798358 -1.6823219064997412 -0.42430221272847574 -1.0152062538813225
Ni 6.864507879560847 1.1032129167991966 0.7090867367053177 0.47572607572640646 -0.7041526507670582 0.04733323786832493
Ni 1.9347725587385496 6.8809435229028235 9.53373206076167 0.14531875067587877 -1.2691116899193693 -0.2708754882334819
Ni 8.931440522664127 5.220596955769935 1.4720280237308556 0.49897990404802456 0.31279449706477097 0.3688319475753132
Ni 5.944823273154134 2.2605941387082713 6.997814445816858 1.7722778641345995 0.2171198917785809 0.863967538176583
Ni 3.462046963629795 4.495504164402665 0.5747814451740872 -1.8080923027300475 1.321665295646369 0.504851275227137
Ni 5.909398168414824 5.998927732812629 5.047499167977829 1.7444333311185054 -0.05218722352651657 -0.464801972614735
Ni 6.520307930371322 1.9756427684030324 11.571377883237268 -0.0986686549175075 0.5374400077964356 0.7660002802014744
P 0.1376006289005182 5.738848726210815 12.586262442202553 0.9946191737585902 0.5008370118614213 0.9123796109313835
P 3.797445361307106 6.440938913522331 13.045500949851393 0.3075656445656638 0.8920090176948315 -0.12568940648072546
P 2.378507566635617 8.997465840173877 1.571785629440366 -0.2992836070625297 -0.0616645668893325 0.1155723726513816
P 6.5757713860664175 8.079295283042843 5.860798098743501 0.48162367215776414 0.0005445596495603525 -0.2819890816481402
P 5.042431663293699 1.1503491014780738 13.059504081495643 -1.269651364472923 0.09936439543295145 -0.8305766214209631
P 4.13249716939119 6.466030175916214 8.52956624100587 -0.2861858933383071 -0.7986427488268439 -0.21196765815368013
P 4.83286352951534 1.4229144542148309 3.8484888876106793 -0.05080936934238347 -0.8526300016765769 0.9637829051040242
P 0.20952252988451292 5.667305337545739 3.720163178640492 0.19703057722787357 0.7889617740936542 -0.022333630500193793
Ni 0.3043704203825992 0.4478384462653004 5.245173806241239 0.17463729713433793 -0.40470654998473526 -1.373215399809519
Ni 2.0104750225223498 6.749786724202697 5.0759331957906 -0.2532510902834993 0.08727918213364323 0.039309339122583914
Ni 8.302216236939211 7.417300039200432 9.681787838365246 -0.5188265064603066 1.011315917687981 -0.7571204612133412
Ni 8.603676216816579 2.4449159568536714 10.223337726093998 0.8895870385169002 1.1347226987821168 0.8923581735041342
Ni 3.706739216448083 4.734286152578556 5.510048518319864 -0.20940838206693613 -0.3279154118666095 -1.2553974256570704
Ni 1.4658824429962143 1.1266259558995597 7.241944858662967 0.7709905343272142 0.4303826145946007 -0.041601734701186416
Ni 1.2868233142006038 1.246974631758264 11.748747843804834 0.8573181511808654 1.0348129723686565 -0.6199834750173064
Ni 4.421607614815153 7.129457382025378 1.8163301256425943 -0.7923800557465838 -0.3974208149565994 -0.11054278064727413
Ni 5.840189699114647 7.919800224707021 7.920910223483224 -1.3260112313198904 1.7392484444834562 0.8368974214326683
Ni 7.00326228697566 1.033666978684561 4.948234996399729 -0.269822107268303 0.12152473358007457 -0.2806513366733231
Ni 0.8554405769905725 7.625153466570194 7.263676938236179 1.0544446305566548 -0.6862485167931278 -0.1753201821339755
Ni 5.276598537412408 4.599079728104934 7.441688089551216 -0.16359980837325372 0.956176553511676 0.4598847378187757
Ni 0.5880065743893294 0.3456592737925854 9.302310541052472 0.3793343897685338 -0.6199587924269581 0.608135831650101
Ni 4.740798388619717 0.4340295872088337 10.560698003284552 -0.6732233081780534 0.038170083311818134 0.11763156917325548
Ni 8.588763743529048 7.147133451279958 5.107797548498441 -1.0605713122796832 1.7735364191320486 -0.4278901871900502
Ni 7.3253808307651145 6.335712488862849 7.398343412606667 1.6432100280999442 -1.3661474372191438 -1.0323791661161832
Ni 2.2400359033626467 5.740353654707722 2.7241677525060792 0.4991010030069211 -0.5162124658762272 -0.520613166047084
Ni 3.438798098547276 4.570577294451396 9.567986057507026 0.6989541372852544 -0.2381219479515448 -0.6361533999089496
Ni 1.4373708885639058 3.653783974914499 3.849450217692946 -0.8102132272732626 0.5679829135802992 1.2561355893746755
Ni 0.055706068410353964 0.2768402617458495 0.4057725025041842 1.717141328171772 1.192749926029178 0.4783789399682213
Ni 2.488704815724277 5.421728369186845 7.3729128572425715 -0.8434185103806378 1.7399063897824294 0.9440481456792581
Ni 5.410819917778963 3.323885406834975 4.941052383119037 -0.843814717377792 -1.1362735882090043 -1.5783477802089203
Ni 4.247291290979493 6.930633525637058 6.2002543308952 -1.000663065959825 2.101738251890825 1.6397740058352017
Ni 1.0770454025105554 7.836290374296843 2.9619701690421643 -0.873510958890644 0.43105392963001243 0.2116853510265709
P 0.23690949229458722 5.8997848675921585 8.604187892505527 -0.25880930109756717 -0.7889260357597122 -2.214725380313534
P 8.685599051720928 1.944513550463983 8.11962645468207 -0.6441029937733294 -0.4372520880209244 -0.09840331707126279
P 2.0376458224755956 3.2851403386237 10.73071296785269 -1.0053010789524686 0.047919706499414245 -0.04015420362138246
P 3.989018198573966 6.394650961268983 4.065386479207913 -0.4334054605813245 0.44118793274022083 -1.5162561530844985
P 6.754429200596186 4.050765870840993 10.80568212102345 -0.07466149336963271 0.5424765417790787 -2.2007792025460873
P 6.239032233910044 8.034886211215936 10.415899255779433 1.562071154536084 -0.9812648639388714 0.13726554135409907
P 2.3314990728595077 8.827892321298165 5.770557113601704 0.40300782212607367 -0.5193949773692668 0.5048386768216466
P 6.778225312404853 4.356831843996774 1.6143696334355688 0.7519661707059114 0.09901935338870689 1.3332596853521876
Ni 2.39372102562253 1.7738911420298202 0.47627885862320946 0.1785446026085441 1.0784330230514523 0.9915870718004859
Ni 1.2673869346435824 3.4895552323974983 8.214005537151422 -0.914058284185387 0.02385855178515246 1.1894630277477902
Ni 8.282989635293879 0.3459794131273819 11.396263491259306 -0.8162702321006201 -1.4707401709305703 0.9482539562304894
Ni 2.9968051593951124 1.785228270039852 9.366066608804461 -0.7471201554675198 -0.6769254396199891 0.5036372003143779
Ni 6.202129563010134 2.534272226454863 2.601955701544842 0.25430241436614914 -0.4223900833074274 0.5363040944197797
Ni 4.111564982116031 7.034674249056552 10.78774063710669 -0.4069025291947896 0.46770500519414293 -0.6649289293797451
Ni 7.471732846894615 6.1469853345719585 11.532398411011624 -1.2694443906684394 1.2317615314056851 -0.17649800449216055
Ni 7.4481465129976385 3.896040979801429 8.571322990366712 0.5123918065785563 0.27396415446113465 -0.33962035900836346
Ni 3.2602679749202754 8.9045889499678 12.882494391689455 -0.2110235490728559 -0.7662566191866544 -0.7956366150106685
Ni 0.24246313448711201 4.861949693010104 10.471472160819758 0.30067791630689505 -0.51459447065683 0.39251489301454984
Ni 8.752417876983593 2.703280257046889 6.077267925816463 -0.08039839585340992 0.15303514548352998 0.04752169973004719
Ni 3.811920037213719 2.4074477976700748 11.817536757281632 -0.2767494305157556 0.7676460433350134 -0.5623226299707283
Ni 1.1015620558419836 3.73831535254682 12.963617334295751 -0.991731310687834 -0.3956938049631637 -0.47560394832624536
Ni 3.2552971504910984 8.496616515624503 8.414442859304001 -0.10030027698365952 0.4288672063913388 -0.6035160734899025
Ni 5.810793429141733 8.324553024144816 3.6763241554866566 -0.8371702154780807 0.09590703301197032 1.4347799507858774
Ni 3.306875154430543 8.81059020397312 3.6013157829671876 -0.4965391558170158 -0.3976370447324636 1.1789582715617246
Ni 3.614126828826311 2.852341144470822 7.2708987708655775 -0.1723338458121419 -0.2765087752598593 0.12260999622445337
Ni 6.08608589473046 5.967844118767426 9.462914686086618 -0.31717642818255054 -0.4789132152051365 0.5024210685190895
Ni 8.005435216570406 8.979379335874686 2.701794482185397 0.7986010969556312 0.9280234881162275 0.45968316333093084
Ni 4.720969815575622 0.4484604833773552 1.8168636912005884 -0.16756727766143398 0.4059831027043137 -1.0102319405951827
Ni 6.04950245108747 5.843436696356458 0.3173137175338752 -0.9510348614097364 1.859336445617004 0.9522088271131793
Ni 8.188124415316132 7.4223529506385315 0.4836393270898995 -0.6526033179348567 -1.237047976615605 -0.45617026508166597
Ni 9.13591926188931 5.111384750788341 5.997093544202158 0.5724337502628012 -0.7876767367336435 0.694876624781771
Ni 7.017153233041049 6.363083945949016 2.989429185604515 1.514469493497721 -0.7949375320611148 -1.047982676981395
P 8.758063639041685 2.0304404072479807 3.7504660540230583 -0.8960844733157858 -1.2481255745860054 0.8605801097615889
P 1.7894511906099606 3.7393003966538862 1.7115515312206762 -0.021576954839827352 -0.8265425605609055 -0.2403510943923796
P 4.780692674955902 0.8738198582882515 8.182580805980253 0.4614412836726183 1.3228981396122055 0.7247510437437003
P 8.441654702761708 2.17859833757377 12.859306635824689 0.6256105913960968 -1.4324513026527006 -0.9535622558172804
P 6.44914761441455 7.984083473471867 1.565591708578248 -0.39091952350297193 0.17548344718471712 -0.5331490937305656
P 1.9304493096019806 3.74987137924731 6.177280001253632 -0.9696244514864655 -1.3285705074066345 -1.1343154360413692
P 6.875434572526267 4.324298026127279 5.974986600621533 2.019348022418367 0.07357468806335717 2.6824452979060123
P 2.318027682617499 8.754169066507266 10.562753826819113 1.3880344671002223 0.8774488604924695 0.047031133246873844
