# total energy = -340868.0655570964 ev
CRYSTAL
PRIMVEC
9.25504248797407 0.00000000000000 0.00000000000000
0.00000000000000 9.25504248797407 0.00000000000000
0.00000000000000 0.00000000000000 13.54569019518211
PRIMCOORD
 96 1
Ni 5.45221967652579 5.640115552787575 13.13231692629988 1.6920437617731958 -0.9467418904613372 -0.10455159606084576
Ni 7.539222543295363 2.448005061108412 9.445911264757425 1.6606403077612495 0.16814783275525236 -1.9148272795954568
Ni 1.3696352544689578 3.2320460007949925 5.120284794696821 -0.37832857421183874 0.7687233355595922 0.9144362363500961
Ni 0.15902291964795776 1.123682495545852 5.964601050772434 0.45561387835756373 -0.20078644472587998 0.4278289949348115
Ni 5.156835734708676 8.634492057848028 10.026831782992064 0.2954477782562073 -0.1309920496405615 0.7064494172210349
Ni 6.43054247191562 7.600861127469507 0.8925914841402901 -0.5592519614652045 -0.24224111232624088 -1.9188289445556823
Ni 1.3777149067188117 5.637431590413625 10.836985825568636 0.13025954234991116 0.012550068750868709 -0.10995322669239127
Ni 0.3546356504869785 5.830519545612599 6.0675893145822 0.14248025278581913 -0.46013310638415594 -0.16008433902082753
Ni 4.593231401307345 2.882140602616033 12.662809537216411 1.943601266404356 0.994196998619507 -0.013329113008738335
Ni 3.320857390244706 7.346745420912529 2.8992652080660966 -1.4353723329542376 0.9567601939292878 -1.330892984892224
Ni 4.845616414885259 1.8097495535406176 5.977117570477707 1.5451586950514615 -0.8273295752385751 -0.3548294626486341
Ni 7.94271463852662 3.123049363284648 1.8290472430093125 0.17167332941000754 -1.4820759076583636 2.936245318714446
Ni 5.367896982770441 8.418507127086468 3.0032150708091496 0.6374482074609731 0.1399644283425009 -0.9542420554931244
Ni 0.4488741969576701 5.27845625041925 3.222654908998971 -1.2535721995228732 0.04639247122161043 0.5932347461685525
Ni 0.4428102930010786 1.656717423012168 0.9868790823371265 0.15052652012906334 -0.667364021183799 -1.0184054775449105
Ni 7.372224553379709 2.8471935614986807 13.17723442488432 -2.016539606435295 -0.433858231848027 0.12294603940763342
Ni 6.509839677501817 6.873747955238657 4.863566570141379 -1.3726307309506425 0.7875466389136824 0.563647519429739
Ni 0.7587126644149023 0.6617994106129301 3.4704466449003655 -1.0708816930667557 0.32062839128689297 0.23816205716086078
Ni 3.1447246732149554 0.1023265282589476 11.37962656182089 -0.0034488777805488993 -0.7699687779309192 1.656594162716334
Ni 8.534722697878468 8.002020951948229 5.8971438212724205 -0.40113811590718657 0.721067681354842 -0.43400015674252995
Ni 1.4486455537324217 2.0031059049769873 7.877469364224448 0.07968157229204342 1.3823741834906516 -1.9108526112184252
Ni 1.0252828818912723 3.1130168970316796 2.677441270884794 0.5575699457770914 -0.6910657356761131 0.40223931939116536
Ni 0.011033861869731947 2.4659968640565406 12.131926407170587 1.4870769604173808 -0.5138174832814892 -0.37372912776661443
Ni 1.4297560116454204 8.898982667236723 7.823868784608147 -0.9609233241680419 0.37870781192812847 -2.0234610161454767
P 3.191425618521672 1.0658292238232432 6.780850464450673 -1.6574331136778615 -0.5677052344388803 2.0867402358200966
P 5.675673426721067 5.756090492470187 10.797188216588571 0.10581940702967582 0.7682677360794123 0.8846973145247667
P 6.376224626492489 2.4159270832183846 11.0603812689951 -1.627652025760687 -0.03347782004247137 2.371111444547168
P 3.7503839205032694 4.875797109028186 0.5035539145491509 0.032546309367137496 -1.3616017268299905 0.6698829309509108
P 3.8273951305502747 7.648644912768472 8.766486550886052 1.883137918911976 -0.39897581814854516 -2.7781137325446155
P 4.309897525044995 5.9195438010436945 4.47277331895597 0.6779201994330906 0.7688655175644113 1.850602408178116
P 9.098169695554429 0.8216228914517383 8.694463808837524 -2.222993533859597 0.6214448900541812 -1.1163508811431484
P 6.7532472996910045 1.5251755015606496 2.8960277941405534 0.8251577643982371 0.8309098363906657 -1.205750452053904
Ni 3.2689828760861355 2.7541248524213238 1.5887743037720437 -1.195835506933037 0.1435248920002496 2.4160368443049487
Ni 5.895776851470241 0.48581569977014705 11.976395415121566 0.14435304432849977 0.7052551398026176 -0.00656016971602096
Ni 1.1220906282068202 1.5626306592412444 10.169345557527432 0.6310001378427842 -0.012509959541552648 1.1401294716199848
Ni 4.161020908674832 8.28688191025093 4.952453850940976 -0.3434531024908924 0.21037974484126995 1.8454758855848283
Ni 6.933341174982998 5.1064327723344425 3.341030606749868 0.8096383286063992 -0.930233865503985 -1.1322454408862177
Ni 6.955266371065363 7.355361865637173 11.882103189403395 -0.46982770796410056 0.3173222097317954 -0.45868094731866166
Ni 3.365725837103002 2.1581001045512207 10.889746047310611 1.2195554762577965 1.1824488012134862 0.9943692625313132
Ni 3.149787181554784 0.5303583691265017 9.138058003952649 0.9197275666560225 0.7070171167990469 -1.9606965313237457
Ni 0.7725073055127344 8.752271730851055 11.83175390627664 0.7071914375933821 -1.073409858805248 0.03961067241308662
Ni 6.895154868931569 9.23146082007035 8.67037941130053 0.6285838150918078 0.14866349877839558 -0.7734433667430809
Ni 1.2950673756865132 8.493954234922446 0.5037158777958547 0.1224099643985053 -0.5405227604868175 1.444546800364654
Ni 8.080716579760953 2.3926876710770513 4.570789773844062 -0.28156356407494737 0.3799954203913004 -0.8244183151290512
Ni 7.305264319671011 9.189193040201983 4.144384969477682 0.6220313586852706 0.02504537300440203 1.2127214840550984
Ni 6.4841939542665985 6.771285377852477 8.889657286243649 -0.8191619518261182 1.101616403146451 -0.01513145632479975
Ni 2.573383124142516 5.068644433117772 2.4182038237149066 0.32583256119565174 -0.3684020591267462 -0.7269274825697287
Ni 0.6784871780490263 5.728667801042561 8.707535631102925 0.7154493067268001 -0.5799758242761173 -1.569301610846252
Ni 4.806014087305506 1.4366880386043444 3.623594463462175 -1.5994801913121615 0.7333796659529757 -0.11728704134964317
Ni 7.254120953883274 5.537301283779981 6.710886969395951 -0.5175823496405603 -0.18854542257499787 0.2056895384544522
Ni 7.368772422464249 4.528353552199125 11.578666434960164 0.1382513023061361 0.7653353929239659 -0.3956030450215703
Ni 2.16889148430303 6.438418513226761 4.545635493374556 -0.553740287618356 -0.21825709070681762 0.5885998184997023
Ni 5.1304218429319475 4.489093661198115 9.186280478274115 0.30160788432033214 -0.1346756691397358 0.4673707617831757
Ni 5.187738322179767 1.9422910196003653 8.805741814365726 -0.19715116196613788 0.28904855959808284 -0.06364457343383878
Ni 7.85365336292485 4.990402302395818 9.224167846447342 -0.8664635651255593 -0.6591359768470518 0.34633659468627453
Ni 2.3833123128535667 7.069640188366275 6.805124590362376 0.19973074976785601 -0.08653176244465743 0.05116983800559575
P 1.319148996710706 8.631021416847233 5.2517452717728546 0.7140040896398414 -1.135295026345819 0.14199122896454255
P 8.620766829570213 7.0399500114847955 7.72021693423903 -1.5045884869385828 -0.6305229410960497 0.5565137365984352
P 8.874864026041854 6.656282217650088 11.247244282495046 -0.7253845635626411 -0.2759706433682021 0.399011556482487
P 8.22329976711634 0.3465763593309958 13.110860035376557 0.16899603968816054 0.06245595244237632 0.10049105283822693
P 6.373253757795808 8.873188863318802 6.3145814147970105 -0.47976527879278663 -0.5226898460704548 -0.3971649901920515
P 1.6395308087762241 3.5776292940476275 11.130209640426855 -0.4713312890928205 -0.7385537539547474 0.03213853240575756
P 2.7310057558346856 7.311705829368488 11.616215068571714 -0.9990720673236212 -0.446360992300728 -0.3912637942162681
P 6.483129624359688 3.660184274653238 7.788988379798011 0.0544150844157708 -0.6121812053640683 -1.5018682597939426
Ni 5.3764486421964035 3.4784892769795444 1.7597473345139438 1.4564309533967499 -0.032602873636685785 -0.34558506123223065
Ni 4.833177637538406 5.777552936419112 2.454452123831491 1.906311528814962 -0.6103482659203875 -1.6632769740531483
Ni 4.3002167504134405 1.132298940270496 0.525183874770381 -1.4844006991367984 -0.910435342720819 -0.9460947437956415
Ni 2.0240685766217976 7.683406853032449 9.627681228276735 -1.1122090910606328 -0.8855948866383716 1.4792379239889362
Ni 4.036198148200856 3.747949844281378 7.093024904677508 -0.46155055555697283 0.4550176395344615 -0.26306987614613403
Ni 3.8647577378041817 3.849153735864601 4.267664914338771 -0.6564476313816114 -0.9841684107389116 -0.2848682029681481
Ni 4.529954674580825 7.71508686408772 12.539015011982936 1.122214796123093 0.2023126515624193 0.45911057865691257
Ni 0.08923897242101106 7.628866886585268 3.6207355807817856 0.04570058736090839 -0.5362626996588828 -0.6805609794900472
Ni 8.690818247530288 3.6835347473065965 7.348022616800822 1.0986238961770305 -0.7595408977293757 -0.819179692437931
Ni 8.944841403660577 8.056227736859334 9.577589235336175 -0.3129587905567771 -1.700410388570336 -0.9197509636947901
Ni 7.196128856520634 1.5771610762312456 6.848741755451852 0.11513939887902105 0.77689687250932 0.06871967396390101
Ni 2.242237697453194 3.457350759524027 13.29460780151419 -0.09915125098088085 -0.4928534794353125 -1.7092045898231985
Ni 6.0009326462730375 3.730939075856141 5.215754261842462 0.9896808559167084 0.5767850852529615 0.765875581698152
Ni 2.8258884532751254 0.26135407542823974 2.25262092982331 -0.1973031141629699 1.0676361895462645 0.06285575898395626
Ni 2.0881227269324962 6.025671375326715 13.12860472868543 -0.2630801605587792 -0.4643967667565163 1.2529685045006034
Ni 8.337895705441301 8.998622456608919 1.8348177621133035 0.009582244371796401 -0.09650455738665314 -0.6912547117584676
Ni 6.41646555201639 0.8199912274292305 0.7265773052603282 1.503942625824468 0.23713284456539804 1.3866753819691668
Ni 4.699405250803708 6.485276794258848 6.850746397693912 0.8722680876224783 -0.039634326562170454 -0.11405413623464228
Ni 0.2178933205598668 4.244908615424748 0.33096865537434755 -0.07324070176270613 0.017647794988750253 0.6229613266987077
Ni 3.0998377162713213 5.581938354571557 8.640376413976846 0.13175155351440535 0.13818085407951686 -0.0266638824444315
Ni 3.527355902270758 4.797406897623531 11.244764856564075 1.2993756310102331 0.37271791289328066 0.3995687145375377
Ni 8.805664072007307 6.483870027773191 13.47771789521194 -1.028633583030822 1.0998528834881252 -0.2999101849029351
Ni 2.695873613863957 3.32205129074898 9.235099902847717 0.3143893523557166 1.3500425612374813 -1.5613209066336207
Ni 8.34212525994094 0.5102305023304162 10.818767274075123 -3.0885492424589067 2.027441083839147 1.206712044636225
P 2.127743564597588 1.207995934258533 13.101418966350124 0.3725870437423712 -0.25959425889270776 0.2445661609149917
P 7.247660934100459 7.174870023510422 2.726002479767937 0.871423737344312 0.47680208239940464 1.7254807012754025
P 1.0592766536137395 6.417122660045875 1.4858536017737598 0.15302383262962033 0.824435798630548 0.4874683038639992
P 1.8725079978776855 4.597895942812415 6.982031028959238 0.6568644072040558 -0.7554518152616667 0.6809484447364531
P 8.448076988413252 4.508325639863862 4.782496098379842 -0.9580804554026081 -0.7872535331532958 1.1715069574900019
P 4.285149540948649 8.309232838296058 1.0805345611196844 0.14228279206303238 -0.43606989478736513 0.20839768141423465
P 7.464969335963658 4.838101320238202 0.8170370178093527 -1.7720402942024964 1.2270271020444932 -1.0412361022861811
P 2.492160869681211 1.7291473869381218 4.006233096552113 1.5340361027757385 1.345067219510077 -1.2076044745435073
