# total energy = -340871.57985970273 ev
CRYSTAL
PRIMVEC
9.24894966066319 0.00000000000000 0.00000000000000
0.00000000000000 9.24894966066319 0.00000000000000
0.00000000000000 0.00000000000000 13.53677272653687
PRIMCOORD
 96 1
Ni 7.551369743512515 7.655734892180228 8.95837916856427 -1.1992694723152508 0.5895470129043202 -1.208051846493571
Ni 3.4996823386148566 5.142064585572424 7.413535420484305 1.216185274233983 0.8958258203377603 -1.2476180388219673
Ni 6.400060482066489 3.553159765909851 4.987325957136559 -2.173122617171083 0.28917377232203745 -1.814016381523966
Ni 6.907023163201137 8.188825856280694 5.534266298551366 0.1587414518396879 0.29345645885779137 0.09879258208988147
Ni 3.876651031400984 8.18555172807896 10.755670224632597 0.30781401313104406 0.8583162534280766 -0.13379635185857602
Ni 8.274545122308021 0.7322698710575565 9.191780114389264 -0.5145325070706429 1.222391403044695 -0.08433938277902894
Ni 0.9814800466430701 8.986085322352734 8.812195818621639 -0.02052640208812594 -1.785337525532035 0.8141871243193461
Ni 5.418339962730637 6.50782924423205 9.137768097800315 -0.874012838227727 0.5931498997642302 -0.21386796050018653
Ni 1.2031588735898755 4.3793499467135995 4.46354776051159 0.19498783576623194 0.6761659357461453 -0.9179378217454514
Ni 2.452960200629882 6.527002317006614 5.069697103364373 0.8501802545845035 -0.6893430965580515 0.08157673243222725
Ni 1.0599203892388585 0.9491272205140678 10.923485018186012 -0.5642697263947701 -0.7280263720608623 1.0475769569025442
Ni 0.07347365659485242 0.9944655720533386 6.609681453260184 0.33908556955081604 1.290840082735396 0.5916481184077229
Ni 0.44704336035799275 2.1649016615253154 13.19664748600212 -0.09683468703256226 -1.2175541295570516 -0.33480262590474597
Ni 5.984819635329015 4.2176043139680335 7.3624340483729975 0.48607450884026615 1.7365089340651063 -0.09042081308641847
Ni 2.3392628616922533 3.9468505597941017 2.249730253694375 0.4985304752154317 -0.3467001486732803 -0.028136096114583804
Ni 5.259516998097352 0.6413822919253441 6.401255446370625 -0.48028695562421153 0.6802750728185123 -0.5062898074458765
Ni 1.330452168619452 3.771915924744374 6.744345236323552 0.31974598868193965 0.5694209315784063 1.377902263762227
Ni 4.804958866089899 4.18455781660985 9.758456789616732 -0.5887018912952054 -1.191124474610613 -1.1223693194230864
Ni 7.376546095859456 6.340534241653036 12.78870406059563 0.251053054190916 0.7481995045746276 0.07612136574461084
Ni 1.4286482678223154 7.724667314461375 10.949191549044487 0.9918796633402401 0.7492585419667612 -2.495838230004308
Ni 5.244135994708979 5.3132718938840195 11.750175567169743 0.016924800779796658 1.5424209844053243 0.9896487171271924
Ni 8.070263569789077 6.226975636961243 2.167264768179392 -0.7530012968386451 1.2050068890196604 -0.2938176988519521
Ni 6.111234280134962 2.1246132365344823 8.377800397009047 0.723840616114289 -0.49309233491899596 0.4545723244669268
Ni 1.649725913037164 6.464830876972551 8.172109304552405 -1.0167476302265135 1.4481486587832995 -1.113920931545417
P 5.863871119809015 7.4743814860231454 11.402186608548853 1.5501553769351046 -0.5652282336532976 -0.3256387000172908
P 2.9065934376650944 9.32913811650677 12.392224708370074 -0.6219426556262063 -0.4026062158122809 0.8034720518946873
P 7.145146622754394 4.572357029520923 3.092476054501243 -1.0150944108938067 -1.750449455405598 -0.24720462697910328
P 4.975435507373424 1.5642101239037292 10.516461863276904 -1.9479096639717228 0.9443535927348188 -0.8378590140149893
P 7.6734558798483725 3.6372697146854787 8.83972901705029 0.540121925503973 -0.10762380722826627 -0.11521756041512415
P 4.657965308151582 1.311843281777956 4.470221802631284 0.625593365004916 0.2971531909830883 0.4012281045178316
P 2.7764237192718477 3.6657657287802348 8.668191521233606 -0.5374767745716421 -1.2041933919794294 0.9545469883280528
P 0.591743178765151 6.015711127401876 5.859636025731121 -1.2758361531273963 -0.7485700005401689 1.5240669073781687
Ni 5.317970360343005 0.8490193634035814 12.654797766514529 -1.2900376414387589 -0.7103014439772735 1.7316246093896115
Ni 4.262489466970906 5.641498621633028 3.0062332979196267 -0.41592967239406436 0.04497065117341933 -0.14047222121685485
Ni 5.8497942183315015 6.814922121865345 1.0696105138630312 -0.09905406328138425 1.4075954199512855 1.2588946401770513
Ni 9.208772284819283 3.205935695431006 10.917650780701113 -1.5059881954995868 -0.9316148050119115 1.0430736697155518
Ni 4.582031430930567 3.0558067435367904 2.988567803949817 -2.4113093569222928 2.423117919521446 0.8188840155743832
Ni 1.7966177325285344 3.8951581797955335 13.256615826212306 1.090229244355432 0.6824533114167537 0.16424232705325909
Ni 0.7266261619369397 4.559815453697331 9.247700189305947 0.8118739028051373 -0.7892255692780021 -0.2861133882291588
Ni 5.694337871397177 6.3021326024055755 4.968740192669369 -2.8375496672137452 -1.1360290762983662 0.1605247689923558
Ni 7.8112004880642765 5.652884078741319 4.762304559760072 2.364085133828006 -0.21258420869175645 0.9545549587478527
Ni 2.9007111056416397 1.1055177113703567 9.596069279760428 2.178072504977191 -0.2482155847421209 -0.05987379353749688
Ni 8.932237937068843 8.149305094116821 6.919158710131916 0.2855534019606308 -2.7505995862847468 -0.20748211157850074
Ni 3.1409710725807733 6.026097697940147 9.95365679840324 -0.19341869150689914 -1.0563153652168067 0.47483081760564677
Ni 7.468998597284701 2.4456720282486204 13.867069630265899 -1.1463445992917614 -0.5056460032142904 -0.6137107546347172
Ni 1.1267625488827404 0.8393014919302416 3.6628476851428133 -2.4462691608269287 1.9195907624223714 1.6567970227557596
Ni 0.58234254626729 5.484016754709494 11.62161701581814 -0.17459204571869932 0.08354208368871419 0.17593056202446475
Ni 6.564497559181278 9.510694999557746 10.779223599995698 1.2311699205682731 -1.372727661539823 0.009825213620537917
Ni 7.915149433994481 3.0437646109982084 6.433730358635963 1.273081730310711 -0.21870806220130723 2.0160480115108568
Ni 0.27728628736287186 7.494562694317452 4.234126637752152 -0.8989345411700712 0.5729014339278391 -0.17828800651304777
Ni 2.061766623170683 8.414472482658416 2.779302917320435 -0.027298687814952986 -2.1486966229182354 -1.1756333209535494
Ni 7.51502137110343 8.810993455157725 -0.17950176642265567 0.5563892952054288 -0.0021101043644673337 -0.30945771938205413
Ni 8.444050623870693 5.62947498699389 7.731419047758737 -0.9820446795276893 -0.3409753303743612 -1.1774024970388304
Ni 4.718684663079227 3.105001907110308 12.11884980184481 -1.1869562021655364 -0.3466284148950804 0.9309725434422226
Ni 8.645418757227079 1.0447983564427126 1.9449089181129058 -1.2313568397680987 -0.9566342098743846 0.4639792196031235
Ni 2.1770455325108444 6.946747402258903 12.782422173944168 0.4474819932790487 -0.7408204385017371 2.6595686504181555
P 0.14582264090345937 6.892678042181674 0.27430350107739354 -0.5700446812053344 0.4348478494548059 -0.0729653366141324
P 7.608176792707578 8.535393251329248 3.3706289684531052 1.653158654672224 0.5034603084168814 -0.6652647154526091
P 1.8166787044764492 8.77928805550929 5.3124931323173925 0.6527511563666307 0.18673305195660744 0.269356223375478
P 7.50965698026443 4.185519707380981 12.5166008846572 -1.2338482387313847 -0.5267236498201961 -2.3872014081304953
P 8.392783695559356 1.0139531091184637 11.929822542103041 -0.951184242503407 -0.40334669352273117 -0.5288373537290892
P 2.898916809395491 6.89315898756724 1.583179719784399 1.1244529414249924 -1.110161721613301 -0.8287760778771146
P 6.202891371884079 6.428861711502085 7.082358277773846 0.6367586375931164 0.6184366993554768 0.3240487298223516
P 0.38758741196243013 2.569173253892007 5.1939243715609695 -0.193964279597724 -0.3947324694911589 -1.3317658744154808
Ni 8.930341902375748 3.404325666976774 2.4707320575214995 -0.4733454913093719 1.091740795903952 0.8222701584377967
Ni 3.901993153640397 4.7807913604652335 0.48550974225351023 0.2813362785554897 0.8122168879668529 0.2680267059307771
Ni 7.2513060676682555 5.4321856404650894 10.401344810556884 0.5344084200589635 -1.0355220826205391 -0.29914939547751057
Ni 2.665232845708993 2.1380889562800385 5.1427286601624935 0.14546787465923336 0.6568705778516429 0.8342409576464278
Ni 1.025440304673701 5.820031098124775 2.347045852883664 1.2213989572244386 0.8395032344866316 -0.19035445075927862
Ni 6.719713433422821 2.857620248884915 10.791054856480608 1.2029361225335606 0.33102541825050086 0.14149526316473052
Ni 3.8640909576779467 9.036177634049324 1.2120868847569213 0.1601930966845499 -1.3234642965283205 -0.1426471173809866
Ni 6.326577576521914 4.694332178460112 0.8398277571694469 0.41648400223563753 -2.122535648252151 0.5861678120194421
Ni 4.450844328067856 7.428432703802195 13.044643771999173 -0.3776138075330013 0.5203555415103231 -0.6858556522300833
Ni 2.30169362791981 3.0008217374370427 10.904994517900963 0.7496326374767283 1.1835016679580328 -0.2644788406785187
Ni 2.442619874840224 0.40498931086515105 7.3396927307955275 1.4972379601107828 0.4320031809171593 -2.4465656090214254
Ni 4.15167780034667 2.7424153311425337 7.143355101193163 -1.0826064377028517 -0.21548621282989988 -0.4542565929987209
Ni 6.517734869384755 2.367795871585899 2.5863624269511125 3.583898748843196 -0.07024716635202095 0.8719158464893821
Ni 8.975818988160855 4.626167419005925 0.3143884491743334 0.3703021043629365 0.6665145286993102 1.5290409635539925
Ni 3.893807833136061 8.053282498098726 4.1230301034764665 1.653314463523798 1.3779999656823558 -0.16063584064892333
Ni 1.011187673151462 2.1911409318878023 8.728389235396905 -0.25412166581391077 0.22817820647527154 -0.4032147959305572
Ni 0.8630047002788428 -0.18316342561775917 0.6436640078218634 1.051075456974106 -0.7203464869181013 -1.053210758149554
Ni 3.2148239361142448 1.2710739114015575 2.9569456448488856 -0.01418143370670461 -0.6142771686611485 -1.15032081033069
Ni 4.1706473962273405 7.6796156803635 6.532155831791942 0.2567022820568934 -0.32483548738970514 1.0942306522053413
Ni 5.058148864740967 9.28372577336972 8.750697702127367 0.25041644904818167 -0.6442600881764841 0.00411942148501226
Ni 2.8416195658651398 1.7208595853522457 0.570385504066154 1.6994613943935055 0.5173707478503864 -2.1277069080404454
Ni 8.014464656113757 1.0965184832904484 4.400561488006982 -0.22779922586929802 0.9738857978659808 0.5920486962802514
Ni 6.175283256962675 0.2591176505281629 1.5549824467656774 -0.19678246577280947 -0.49762801800582046 0.48321338524238716
Ni 8.510439584978178 7.978865448632186 11.118170785367955 -1.5766835051326202 1.0704204371596209 1.2572697029791187
P 7.125770073085938 0.21433146128732022 7.352497901686209 0.7511642436299064 0.28143937979225725 0.856781304840789
P 3.926123663466173 4.656753695737946 5.135770675286322 -0.4149577953990983 -0.2520709539324691 -0.004814133559191709
P 1.2466474351846635 2.1998719404257607 1.7334918008831182 -0.4225055258393691 -0.922150060054586 0.7524693355945752
P 3.3018010593038207 7.991573505550783 8.584236029918342 -0.8313052720568715 -0.4267843557203811 0.12137406693482324
P 5.143266949036338 2.363226890423027 0.9303296550982347 -0.549839409902053 -0.14155671253028523 -1.2753031634420615
P 9.11184329172839 6.453463917763704 9.747031562024633 1.5677784893335063 0.5791646412287317 -0.3274413004436683
P 3.0720941439979605 4.854070789115914 11.872900805931419 0.5088614248277946 0.5074637731493196 0.06259093535834383
P 5.82078026305229 7.431003911825027 3.1250989499621395 -1.3806104067220093 -0.13310678199071915 -0.5254080163325662
