# total energy = -340884.878412528 ev
CRYSTAL
PRIMVEC
9.13034855642335 0.00000000000000 0.00000000000000

0.00000000000000 9.13034855642335 0.00000000000000

0.00000000000000 0.00000000000000 13.36318802210351

PRIMCOORD
 96 1
Ni 6.163669952724414 2.491352518831459 11.624770551735239 0.7467316617798495 0.04590370451064998 0.2802155346874851
Ni 5.012132150587601 0.9912636661517374 6.049568901682378 -1.1635550496327767 -0.514674431965146 0.3195282162441787
Ni 2.5710330694035077 1.9883251035436778 5.055080396472311 0.021366381490918043 -0.43655094818884166 2.135516891003167
Ni 3.3313810939237922 4.635961796105143 4.933541763615678 0.7993670285873781 -0.18373026057454164 0.4074247202468467
Ni 3.0881212212423326 2.5871390039983395 3.0369848789037426 0.7195257907890189 1.7961837242179195 -0.5623359997071671
Ni 5.0314884892163105 4.33211293137646 2.841841942341762 -0.43668927353891895 1.0151959694686774 0.34302372826295763
Ni 5.243312572322938 2.903505576396815 1.0106053962229908 -0.622745868253792 -0.3751190661356056 -1.6913253955499323
Ni 5.463910920251353 8.275820841401371 12.806784543829018 -0.5604061296743058 -0.8883907042159538 0.26696329766326926
Ni 2.5060249887259567 5.720455449869025 11.696664741183438 0.061985697674177116 -0.633565070356483 1.7387529929042762
Ni 0.8633885714987258 7.813669995944123 11.875583961656101 1.8411122092994938 -1.6519502361864196 0.1698401328560107
Ni 0.5453420149928528 0.19840338397910864 5.311225929864477 0.3659158023697827 0.6034507674696059 1.064260588205812
Ni 8.718679260668777 2.529508244835881 1.2166180125668005 -0.8083669180931433 1.157484675068981 -0.21183627478213843
Ni 1.2836539436261611 0.7537385653064531 3.295802865275448 1.3025753688944532 0.6824186015240763 -1.241308808774488
Ni 2.236853187257574 6.6809772329250725 0.7447415199834673 0.45879510429902276 -0.8356272964709931 -0.8719502992717435
Ni 7.610163660238794 4.019626757052135 3.8001833981975564 0.7019021641699847 0.3967875522479747 0.866278702808263
Ni 7.9632981456834075 4.083201373029353 12.430330235511015 -1.7161254853127477 0.4126746557918764 0.3583153643147055
Ni 8.181869556264854 0.3326952874945055 7.12029399004433 -0.20470326328178295 -0.2062412971928642 1.659747106523019
Ni 6.842566139081153 0.9162943753591289 0.48249143564452995 -0.10178560327993437 0.8646689351189817 -1.3465178359136745
Ni 2.1661112477786886 6.668605610829836 9.340266989161924 -0.22407935381554958 1.2546181242888843 0.11632827698079966
Ni 0.006031508159493016 4.805302368061118 2.09544143805224 -0.107291363589512 1.8733574424864448 -0.4940099616372589
Ni 6.634640714745498 2.541067265922648 7.2969287973448695 -0.45459135063032025 -1.1879622748325478 -0.18094601296118515
Ni 3.2759142273344493 4.302758861239054 0.5602473087717997 0.46229231881900384 0.10772716557534995 -0.8425440781954844
Ni 6.167742088115171 6.056269664380308 4.883884537719471 -0.3213092194040015 0.3291713957608976 1.3490948526122313
Ni 5.450087572758963 3.5685418938675273 9.205165223742581 -0.31554814855050817 -1.063518053612833 0.07137562352950932
P 0.2823304595965409 5.973119581412547 13.118681810680911 -0.0244596757042611 0.41057457872973807 -0.35210949261430974
P 4.290569846112013 6.2770962710189675 13.176156440885562 -0.6995390632544468 -0.4641113743056136 -1.3218789543190717
P 2.282870143242807 8.397574037445633 2.0192842889315203 0.22475529683665163 0.8232039831059758 -0.5016389389374265
P 6.474969181755467 8.19261597634315 5.9786370509565705 0.24487623595624278 -0.40234499173109417 0.04111785308623241
P 4.648762544575638 1.1945782645404606 12.981441717664 0.050207216982010305 1.385014706437292 -0.7824273154092459
P 4.47399854566426 6.761744294957884 8.435472287624899 -1.5770807405710388 -0.014561699864258794 -0.360929662009101
P 4.752419390071738 1.4158431279027883 3.7450735282310355 0.7069672373977179 1.1131621990025216 1.378238049835091
P 0.35929655758636575 6.158858259112466 4.0232414619875625 -0.3416484451819858 -0.9280785097238791 -0.9098815270998781
Ni 0.22126486336232778 7.437317034493469 1.728341171680045 0.21395280690450894 -1.1924575915997397 1.5009820005342474
Ni 1.983157326343749 6.863502027984753 5.277737637967128 0.48156582233663514 0.363323101941942 -0.6677499437683081
Ni 6.17798633903093 6.061190922173172 9.495828039297876 0.4759878140282254 1.267348427371359 -0.05038976530646161
Ni 8.957437871584222 2.779396750462833 10.570615219667335 -0.24205804978115733 0.13255810857610073 -1.1762365017551872
Ni 2.8549960352957156 5.526654674523281 7.308153647679839 0.16923283828931499 0.1330540743759128 -0.07017131880876303
Ni 0.8986024992455207 0.40574446601653963 9.328895140217558 -0.06326379305565234 0.23972117411786453 0.3871844819405719
Ni 1.7080507984090165 1.348598111864844 11.623380912707274 0.04970739452745633 0.5404870221528756 -0.5816321289326176
Ni 4.564160736210724 7.236449369478564 1.797656037702484 -0.17734029788779782 -1.017884314934118 0.3795799301204366
Ni 6.039469823306334 8.571799345800834 8.222650257437085 -0.19631658187998446 -0.25119729307826416 -0.11265879854901244
Ni 7.20268534105924 0.9354589766712329 5.173210670267577 0.5960696445141864 1.9048560273153583 -1.5166369334626846
Ni 0.8030561422418171 7.880312408987023 7.313525944684146 1.076988834405758 -0.13028911003626592 0.06493295322795914
Ni 5.5006879636459 5.2405186857095485 7.239480645150607 -0.8050620220896264 -0.029801399632148676 -0.06303522198461402
Ni 8.304864479692844 7.994377851670259 9.183370169053623 -0.38617532394976717 -0.6123197878244615 1.4583860202405916
Ni 4.81348316023627 0.5741436990514672 10.693984487380126 -0.2527692655510744 -0.5381133797143766 1.2597973544969787
Ni 8.235400788991326 7.87053380584016 4.350238499039532 -0.4930542825922089 -0.5738118615572505 -0.318321083309955
Ni 7.47667796648798 6.839151388775901 7.407602315593877 -0.03742163518156781 -1.2560875097455593 -1.6230728910304368
Ni 2.652256648856808 5.2007560183850075 2.663550889839691 -0.5664237966232955 0.5368190863829851 0.6658840942041628
Ni 3.4782153570496877 4.717514068101194 9.748031088246705 0.47079032898768597 -0.04126492018705796 -0.7044889510605545
Ni 1.0491226840244399 3.967903333310798 4.311312171629325 -0.30851412452186217 -0.02873027805515697 -0.4147081412821374
Ni 0.8760121912100717 0.4920417800811478 0.30269752779421133 -1.3306052784484763 -0.4599384738748466 0.6687444464710934
Ni 1.1869179022246648 3.962635122278361 8.547389359327317 1.2889948019965414 -0.518981543980932 0.513164937299155
Ni 5.6437605232269705 3.3029674496725927 4.861113448785509 -1.7674133369534464 -1.478907280122395 0.5511262470342767
Ni 4.299891931838387 7.395381344247402 6.068838502001195 0.29089075501314415 0.08694750982583735 0.7124624561843342
Ni 7.827438561346054 7.759152685589395 13.342474867517904 0.9229026219498945 0.5834946360626531 0.05103922596500242
P 0.25854864109361714 6.069855622814043 8.494951942340336 -0.12854384521038506 1.2646523685964348 0.6010457575725391
P 8.789320766315155 2.159628700407753 8.149446776026926 -0.31667737705894494 -0.8748790428827643 2.6151307318197543
P 1.9870194637210807 3.4095460066598196 10.613431075500102 -0.7787575798671427 0.5529098212972607 0.17650880312543793
P 4.2344273337403475 6.3616524276418325 3.8269097540626307 -0.16814397610051043 0.12512710621935225 0.9302089258033206
P 7.087095130191572 4.272090020930642 10.271093227050041 1.7046593936546772 -0.26916184797648485 1.6227975258818632
P 6.417402335031878 8.166347963968247 10.793392981761162 0.5604048441227252 -0.6717613789205462 -0.8639207440990476
P 2.6022862520101455 8.996689239397817 6.008263205476586 -0.731100897221128 -0.0011063456903013203 1.9596701469417606
P 6.898818215633738 4.177271352695197 1.6636097405593098 0.5988443790458461 0.05060753774422252 -0.7439294164443641
Ni 2.800478724940988 1.8296122571366735 0.9429376450536742 -0.21500335965621037 -0.40916818530051463 -2.2820240055601926
Ni 1.6943917971880031 1.5746016260518416 7.3668179622822825 0.16130304191927705 -0.19154127197852816 -0.8861075646087319
Ni 7.134609463316007 1.2643706477847303 9.530117975785604 0.10291483178837116 0.06835740552847583 -0.13354952595509256
Ni 3.018246664862375 1.8091694070472017 9.359522893958127 -0.27502139208105536 1.651118998534376 0.8710920650365064
Ni 6.571413052007851 1.9303291304448287 2.670325608359739 0.722487187410188 0.3600904539372573 1.3292294811468721
Ni 4.113468478007736 7.11634876649647 10.77286704550116 1.4263328484597888 0.495250004691947 0.17960981064826487
Ni 7.677317372792641 6.379903994112959 11.414354368353397 -0.6950591731062223 0.6167400283793443 -0.21611279067030523
Ni 8.08389178747963 4.382448542159513 8.088029661378936 -2.3166305398904683 0.020609448720235474 1.3884622986662605
Ni 2.906938587398888 8.822829144979007 13.024364398573162 1.5850236495671992 -0.5538655003423105 -0.5691324538037101
Ni 0.4225543504737643 5.386996865247464 10.646905671874839 0.36800328102643076 -1.072939861147365 -0.8738578007071015
Ni 8.90392489955457 2.9621954559748063 6.241570998391399 -0.26709699502765616 -0.15822183189079203 -2.087702856843682
Ni 3.765784810563754 3.065277089521092 11.681952097755936 0.4546954803083524 -0.679708658792081 0.9225089860559015
Ni 1.0433431734810565 3.827688572781984 12.838468678880595 1.4596815991235634 -0.2870148169975057 -0.14007935665381036
Ni 3.68551078734507 8.822610016617173 8.664076125039 -1.0930574578328467 -1.4652259259805605 -1.731072079320251
Ni 5.946248966042599 8.588635708268447 3.777853305091786 -0.2916919107582009 -0.8237855666410586 -0.6997861462682464
Ni 3.5842643538291483 8.808777538776372 4.199408795449521 -0.8619769901091153 -0.9360558715024008 -2.043374724350268
Ni 4.089428270644815 3.286605865322288 7.1555992212752235 -0.759707505214227 -1.080323812316262 -0.2281733213792651
Ni 5.384887754764807 4.976049013672196 11.550310734383896 -0.7948580849734311 -0.32961542527685167 0.3609543445994493
Ni 8.505047368577015 0.4557869926156393 2.10750810651059 -1.6782729332413482 -1.1376195607139374 1.4275613215502512
Ni 4.56866199797674 0.4656340733755746 1.7601860008636354 0.19484231132730315 -0.06404078043099293 0.23626355458656728
Ni 6.502268923500676 5.886856049637055 0.06967825388914767 -0.8638762640143574 -0.6793877851175525 1.7787855833461301
Ni 8.301349295555083 -0.08231739519279008 11.37048304424446 -0.9802240813791829 2.43367923997706 -0.30842593568343013
Ni 0.30576715092957546 5.454762311144764 6.445653459081384 0.5185886794178876 -0.14461529685095093 -1.7946338632322965
Ni 6.921032353314703 6.123815981915775 2.7724339467655432 0.4920664647576429 1.1002177230267116 -1.8984431818104786
P 8.638752190689665 2.118003442007619 3.8525532506063063 0.5905489718062733 -1.5216169031757796 0.09269161139846616
P 1.5123143892004014 3.382657130593052 1.6866483487016786 1.4818859031347447 0.38185047132216815 0.29986030550160614
P 5.049173974086032 1.3729761421189257 8.700677865744078 0.702106823981623 1.920879142216492 -1.8722585529953113
P 8.670617106639757 1.8692744906287073 12.494006198355581 -0.621296023181143 -0.5837255211265366 0.33987669799354364
P 6.646911903008227 8.20012112273598 1.7045949615359193 0.3951716139111065 -0.10740989144524728 0.3171157501479442
P 1.9171814287347622 3.6805073564165167 6.44465094682599 1.0428826367506685 -0.07999216155392676 -0.698773388733016
P 6.989336489768181 4.3213573809497525 6.091235246650357 1.8406388692075009 0.5308831805145244 -0.22960722561231425
P 2.5909280985883933 8.682596123753374 10.518565842487769 -1.0052023485910755 0.4058144383369333 1.0430268756380165
