# total energy = -381169.131936535 ev
CRYSTAL
PRIMVEC
9.24326959741171 0.00000000000000 0.00000000000000

0.00000000000000 9.24326959741171 0.00000000000000

0.00000000000000 0.00000000000000 13.52845937981860

PRIMCOORD
 96 1
Ni 4.652803071999011 4.690330746308102 3.605523995882306 1.833302483447088 -1.073339410578629 -0.6675866787175664
Ni 0.4366187770280708 8.782335412394085 5.633534304776863 1.1308573022894395 -0.9944235128080164 -0.18585296334449927
Ni 3.1695356098364718 2.420766074674755 7.658122755289837 -0.6417874582662754 1.498068426431878 0.7510865963144355
Ni 7.878556247142845 8.309810230533232 10.648737321078613 1.4838201440429801 0.2955207975859878 -1.0163082286962495
Ni 4.0200458127617775 3.3748378694618983 5.738597003611064 0.1615745504131088 2.2878488397720855 -0.008423191066688719
Ni 8.51168323716145 5.6350113792484375 2.626942747598122 0.45186675261030573 0.23418918855604184 0.23074108210644134
Ni 7.222237893862787 1.6956777960598095 11.24913019636859 0.1089155294564963 -0.5081240324411378 0.8270542100900015
Ni 3.0373476122270344 0.366171198272716 8.874452912245557 2.2313190230061575 -0.43085749734849016 0.8235148294781753
Ni 8.125730517758464 5.570040437692131 11.13215015012387 -0.5128995994529102 1.4983772159215485 -0.35031409127678376
Ni 4.406682534110296 6.959146713109173 7.890000339153212 -0.7714569324406714 -0.6968530317818514 0.1813008251974426
Ni 1.3325097360587743 1.0468557343720348 7.479411533460568 -1.0588090781729378 -0.074136216993782 -0.3785280918171546
Ni 7.647419049169166 0.794217767134715 5.876978916135409 -0.7685999226078505 0.8089616142543488 -0.9346489638525451
Ni 5.02533456403825 8.147831175214879 0.4314296055115378 -0.463040509838938 0.7682083435963867 -0.7398891849367194
Ni 5.221559932981034 0.3117348110046046 10.601482029911667 0.6435545774690272 0.17080712475497037 -1.320761295774861
Ni 0.5309306290669754 8.563048085963326 12.562229990732375 -0.7015519799194176 0.018841043965903036 2.339617744814261
Ni 2.482511115163605 8.220205975668126 1.4262512783674153 0.9180962017001866 0.2744557493855725 -0.7460161237700635
Ni 7.286931537333065 7.6139306836465455 12.760380732719144 1.7671348864810792 0.44589870795232883 2.5478832715260054
Ni 5.182322253808104 1.7947471589279973 4.939308378809855 1.7899953360190204 -0.9426823756799829 -0.5062093319169282
Ni 7.522015611397874 6.430708993835587 6.758128708912876 -0.29913885395454937 0.050608051964854774 -0.0015046095699845056
Ni 1.5943345888861942 2.996852848397446 0.5834148378094514 -0.4071179876397053 -0.5533469088346793 0.6614355715145059
Ni 3.8661546182859 1.3352457438409149 1.1832623601969083 -0.05127885277963427 -0.9660732438000974 -0.7764356166021854
Ni 2.7768630334820825 8.837184973810379 4.18630080456668 -2.1713770952348863 0.5268856293193571 -1.1610546518084262
Ni 8.817811080866571 4.058636463067309 4.9142129020243415 0.05933026232920104 0.032058313987125435 1.0887901979160604
Ni 5.942950903782275 3.999146780344818 9.839897625867653 -0.05953980723684585 -0.8176401158649531 1.2661749758885483
P 2.014700000765224 0.7502678691532204 0.13907238475855374 -1.2935572245562432 0.18094498451992064 -0.6175836073265621
Ni 6.3742603467898675 6.76354988649472 1.9959620447653743 0.20953282345994237 0.5192530524747637 0.6373155385378508
P 8.891267343855327 6.862027680112714 9.027608342466507 -0.8594480530396746 -0.38523635707526555 0.2941452573946998
Ni 1.6356797335129345 8.835327076633993 10.647141008430046 1.0827979848883675 -0.45624816950745295 -0.5110862003932554
P 2.1195464070923236 6.759972741184961 5.4098277711817735 -1.020029643411895 -0.3925786563729497 -0.6731798565346276
P 9.010912224706775 7.284167799742321 0.9750715788420261 0.8596203169514808 1.2817928849314633 0.9908396521115
P 4.103327671265451 7.450038271534599 9.984773859566769 -0.5435029261610639 0.2810521716561676 0.32082765178189265
Ni 8.910900048346093 0.9260831746374071 9.497627673956623 2.1358351935745343 -0.26724097680468817 -0.15017325055470268
Ni 8.555551794371041 8.787687265454421 7.7025902763652505 -2.3427123245791845 -0.6293736579829547 -0.773589662512958
Ni 2.565330810190565 4.812166282039169 4.407396114518341 -1.809184764463278 1.1699563251734302 1.3447376040848003
Ni -0.10443508083282506 3.813440252132021 12.304458311595727 1.4540351994710636 -0.6142504291882711 -0.321712111269375
Ni 7.068753403246417 7.703525695242118 4.429758356502574 0.2107121884800242 1.340719998284975 0.12114755274631393
Ni 3.0040903284427705 4.964273525494935 7.080565377384246 -0.060689604570572896 1.166590494024991 -0.372068709345056
Ni 3.0671479132054853 7.273584256125595 12.249031970160496 0.8571543719094915 -0.6554916952262454 0.015952666674514462
Ni 3.0302857543028607 1.2661338175332604 5.767628264564265 -0.5462840884506269 -1.0827313933164902 -0.7871758858378249
Ni 6.986090843801539 1.104043842980495 8.763059498107342 -2.1117035906336534 -1.5791587061459902 0.1432513266238888
Ni 1.1126678134559587 4.017300561710103 8.336114726973827 -0.915339979111288 -1.1573849162663228 0.5528031205160673
Ni 7.413675249186825 5.284229300423309 8.88626303772948 0.6450244771463343 0.8363865432345208 -1.3882298709404803
Ni 6.585376622952343 0.591869656452438 3.531658256053183 -0.18352148699784523 0.06849804487139817 -0.7475179051265707
Ni 2.6129428915615334 4.594598203741781 1.9777796092645334 1.1360581297640884 -2.1814866728650624 1.9323123237540982
Ni 2.8312596746911964 2.6684764549233613 3.759694337098119 1.5985088285378277 -1.5800377663168337 -0.24440212453330168
Ni 6.5060508838093325 1.976904271639639 0.6869061808228285 -0.1378142147687175 0.06351293295198093 -0.22021678553634974
Ni 1.5322013310769051 3.3025462584344587 6.097384678179814 -0.48685226754655514 -0.7064226777481576 -0.4699107545962101
Ni 1.2417962888495566 5.604157345543081 0.31771890370108385 -2.0037673943712906 -0.25036811230874945 -1.1777750498869006
Ni 8.90639857608291 1.5638225561536052 0.08167815123947947 0.23001911633875227 -1.5810929470542254 0.0742028085656593
Ni 8.121284505112486 5.55352271503441 0.27847290558557364 -1.9605443220165977 0.47505321802909806 -2.068517799274799
Ni 6.881826763455098 5.462171482227329 4.5402459302264315 0.6317069341018218 -1.8677570655805316 -1.5334810016032172
Ni 5.411999015195372 4.314111189724692 7.528127261213926 -0.980390174643402 1.7219994275950214 -0.7568623224559482
Ni 2.8033450006977345 8.207819994492219 6.743598289205021 0.3200357520082166 0.6822435093987927 -0.41876097119527234
Ni 4.749506157866428 8.230623140433236 5.051675109230027 1.4253727985393645 2.679565662365372 0.6099926823531817
Ni 5.487414851325391 5.923475334873593 13.355173110998315 -0.32238574029763184 -0.8682471393885434 0.36734584994808994
Ni 3.727394656037604 6.7741149435723775 3.7093684317918925 0.43284958807785456 -0.17753955838279747 -1.0458882563462117
P 6.209499067341702 0.3639666784887952 12.73312140653566 -0.09957908254691883 0.2162606291020792 -0.17991165815939983
Ni 0.5220025550238346 1.463588541324101 11.404748033593469 -0.3064487573524013 0.7034720797602659 2.774372263224312
P 8.928425287383048 2.208512876359566 6.902693444428686 1.8794429865588922 0.17991808591730304 -0.8346970713472399
Ni 5.123784627847642 0.7279934382295632 7.14991208273807 -0.36623333361020155 -1.7491261086084844 -1.1368433446695452
P 3.1864230632755635 5.93978970560156 0.6390288176162273 3.6403694302364142 2.432095183319392 -1.7553970292188608
P 6.58005249970061 3.560840182299792 5.601891820180234 -1.0300309775989809 0.1065233750752359 -0.36169739341306095
P 8.46762981456117 1.4860404430228158 2.718909582156185 0.21006092804927048 -0.38786016785135785 -1.1730359925400184
Ni 4.69820601195129 5.113413679430204 11.317165281775504 -0.7081494306312772 0.5727291700160331 0.7218063592930795
Ni 8.466150891435689 3.519550497290257 0.9982731096999696 0.12128356410354596 -0.35299472343274046 1.2751830929244297
Ni 0.5960919819756875 1.590720470498299 4.3950988687299635 -0.12734108315153553 -0.022773032030457555 1.3073846173576387
Ni 1.2219417458899684 8.148968097367593 8.452946880906 1.1596438875038286 -0.5155702043065379 0.5168336443999937
Ni 1.9572808104184072 5.982484367580301 8.993665208082803 0.3689823571102484 1.2529204248714871 1.4223838911143696
Ni 4.3656424173781865 3.746953414372096 0.7125673457038384 1.077110704695603 0.34166875689695997 -0.39947615482373133
Ni 5.215413158740752 6.176177080670699 5.729315836671716 -1.3590573631415819 -1.0532441824906507 1.170045799563443
Ni 9.007048538041456 6.506217262660949 4.748151094552705 2.0789557067786713 0.2090558838235238 0.16293106444100325
Ni 8.24814837947019 3.3438821597916646 9.95341514334484 1.1766226814500123 -0.07279461536422302 0.05277189238539299
Ni 4.965863367854827 2.3887289024690137 12.294136352506818 0.13214416096713372 0.024681561907080075 -0.2740538859614635
Ni 1.0179797603470098 6.563996940519603 11.442126891263056 -0.47493263329083363 -0.5373734162245584 -1.0197491360569986
Ni 6.823132001912552 4.008713564312776 12.243241986124238 -1.0781070071706014 -0.45543338691564145 0.3742304928830652
Ni 5.892704490594044 7.3131454497322235 11.195949969430185 -2.109257700196322 -1.3863120850924768 -1.1320508083769085
Ni 6.420227126183738 7.673364906751831 8.718564247223327 0.7264829388331424 0.6993678277839052 0.3450867814395734
Ni 0.42212717905225955 8.662773720968445 3.2075707396429944 -0.9225930611292756 -1.0614976807486944 -0.35180918776507153
Ni 3.475681940080664 4.223333039628735 9.445136994925473 -0.26189102534668446 -1.0690271563565201 0.0796661456730757
Ni 1.5842963981719889 2.269407536051264 9.662309461286794 1.7107691060968409 0.26024989019883565 0.13771882684143377
Ni 7.194406409295134 2.9740774322650316 7.627765085158471 0.33176101086494475 1.1558548527750416 0.024267357187796913
Ni 1.6588710967743903 6.484477092716372 2.640159698705159 -2.0153106191242003 0.6390512902820349 1.1419567546367106
Ni 7.437781696132172 3.4765692939559525 3.0983143694211 -0.062315827320086226 -2.353865255872211 2.3390389894926553
Ni 5.121020890256899 2.4487916679026287 2.6494001952585577 0.4176967915968161 0.6509043329658789 1.002976287474034
Ni 0.9207313215770712 3.480303574847793 2.998596129031607 -2.146245590274581 0.6538855270813899 -0.6360999209631949
Ni 0.5245000864519915 5.615045917054438 6.894901368211307 0.4803841433237082 1.0714612197193096 -0.7393775354076234
Ni 5.062991644120822 2.2887906722646054 8.672283196665292 -0.20690592736005656 0.2067130946229601 2.6010835096980682
Ni 1.5367490196877605 1.2045736424350957 2.205139082979562 0.04718462810560261 0.08394369000250705 0.2635110774486107
P 1.3946522371375973 4.489150984894955 10.812729560501529 -0.06535255726388099 -0.060153015340812535 -1.1994175678573407
Ni 7.629108132221798 -0.2703739528196559 1.4218135846640174 0.15899162017728102 0.1654628297239215 -0.14389641640705542
P 5.0087059221461185 8.490599339353803 2.525938768416414 -0.45021456171886337 0.22276834831360987 1.6155161617291016
Ni 2.683783309272094 3.4887888962802434 12.270989356939127 0.9492515442570685 0.43058444619276165 -1.8100190874391149
P 3.538120225784583 1.9117854377707846 10.697818157978572 0.09489813213148172 0.6090940817983123 -1.2602547537493716
P 6.575708163019508 4.630157061640076 1.721334339306052 -2.1114932743950603 0.7694280749361007 -2.0349067960885727
P 6.487157640881308 8.312860509479538 6.490575801955076 -0.6185475139017282 -0.27507307125459723 0.7057248803501845
Ni 3.562781268901986 0.35627905121715203 12.194864562035832 -0.5667341287748627 -0.19317109427246731 1.357395659168443
