# total energy = -340865.658113992 ev
CRYSTAL
PRIMVEC
9.33221372488933 0.00000000000000 0.00000000000000
0.00000000000000 9.33221372488933 0.00000000000000
0.00000000000000 0.00000000000000 13.65863810099551
PRIMCOORD
 96 1
Ni 0.26657748227466804 2.319549696723492 4.840102210141406 -1.1359182617521146 -0.19913836759949577 0.09272272174671774
Ni 0.38335893731588033 7.207931180907172 2.993085418165454 2.7621155573441465 -1.989837157443444 1.245907483888764
Ni 2.3955512446030838 2.9932608637818756 2.1286032734469296 -0.6205632587801764 0.1748021048469764 -1.1107726157244224
Ni 7.466881444974327 3.106348628664598 2.233829581559789 0.09099519753264973 -0.39042998546106306 0.27832423120204325
Ni 5.0715448412849495 7.8981323694664445 5.776169899245339 0.3073481292382191 0.05385072727186854 1.6600340416358186
Ni 3.0218920952276744 0.7887092360730987 9.889768609770055 0.014016883104382311 0.7820406214937886 1.920887369746608
Ni 1.97737475141982 3.775057729212242 13.241352881337287 2.218984926920837 2.031052198229173 -0.04010278155815673
Ni 6.485907143837413 0.6772620743481899 2.336337415839479 0.22217416637303672 0.18967465108343462 -1.0869868261587345
Ni 1.7773574164857233 3.2140610384910033 10.978990989796278 0.9307203182221003 -1.0087155039506563 0.6406885687751418
Ni 9.236119835593739 4.576816199617368 10.020167630953937 -0.4168966642930239 1.76412566734111 -1.859797958634455
Ni 6.8548468778589955 4.887774890297116 0.6929093969574373 -0.10424486345370433 -0.052263328180090635 0.5218760919199077
Ni 2.6908784774367716 5.655685421831997 3.1696779636431947 -0.36795828672110825 0.6596743658490252 -0.9535185470635387
Ni 6.943017632324416 8.871650231905447 9.259190934153159 1.4344256527702521 -2.912321460908997 1.31830075004951
Ni 3.546194521918639 1.393962083536649 -0.03633217414106408 0.12019135948063173 2.816922220771381 1.7301703934415882
Ni 1.7562572814469515 -0.0407537769634303 0.9271768891696396 -0.46486522175250267 -0.5983149889049373 1.5450249976870747
Ni 8.632558918463017 3.4756429868044796 11.83383015816117 -1.3858081488728649 -2.403375961007829 0.007521248077709626
Ni 0.6041283157199979 6.418295256019676 0.7342333721742373 -0.661951591918976 -1.0845720460696548 -0.18540636272538394
Ni 5.61738601705574 3.5915584124199516 8.19689012403399 0.6216186966278843 -1.0491383878523932 -0.5850622376600891
Ni 1.9335133473144568 5.94793302416467 11.046683134651312 0.14222468513158731 -0.4594373658687119 -0.18253521182517596
Ni 1.087156227926451 0.05443013605202821 3.768295607209104 -0.7932796847427177 -0.5291278883863145 -0.20246691775209646
Ni 4.028548648300324 4.481795600340599 0.8803413085773868 0.06393510809106408 0.022873047943431576 0.82323226524075
Ni 5.760486181002897 0.8353143109884573 4.741282466692022 0.2889256608669734 -0.09438622549206971 0.22859883895245794
Ni 0.390468217666405 1.5303897147316083 10.262049276274558 -0.5587197431108184 0.2930584520884243 -0.6640640102762886
Ni 5.354217592423558 6.737074341729275 -0.22872229086764753 -0.9183628250980119 0.4865591617861684 1.3479954489004653
P 1.864286986537098 4.260071536481167 9.237473006571456 0.9505787477089243 0.37438810150685203 -1.3865385992809862
P 9.108585803997164 9.085273934325846 13.211153838000063 -1.1773719009112111 0.9462945185112734 0.9819351505330186
P 6.757185262122267 5.610172215912453 12.150013955257641 2.8594127858354237 0.970736710714038 0.33222560920618915
P 2.4095588972758817 1.7338039754304613 3.910904896718828 0.19010042576694358 -0.16112563580114833 0.45889794842547416
P 3.513195814489582 5.642284363045763 12.562668577630447 -0.5184434120892749 -1.46405710248344 1.0588088210626219
P 4.814974291695852 1.9897306022784376 6.55658373061434 -2.5148474241169594 0.889958562923706 -0.11705435651354679
P 6.400321412550117 7.521857515524262 1.643489611492062 -0.3788296822179734 0.93593837208793 1.0158086633520118
P 6.163721800149419 4.594874033009683 3.0937772036709092 -4.298518360579848 -1.7651229982573728 0.9228152044424107
Ni 9.091190557773249 3.673196617337765 0.3846234522640243 0.09961045000548652 0.23726242816472687 3.1386628712858458
Ni 1.7811462952233355 0.4172442050406835 12.247919141770359 -0.5683027588135632 0.07857291260889694 -0.9214478917812389
Ni 0.020012932149777025 5.251451255826056 4.612248748363591 2.5488060404505912 0.22198981827637249 -0.3683652923515398
Ni 7.494812760397168 6.5255037263095526 5.3479986052542365 -0.5638066707154226 -0.07768382513572428 1.363158272683833
Ni 7.6149836754322235 8.954958903064718 6.184932055309136 0.6636467202332119 -0.08176236608047209 0.08418460236871954
Ni 4.819911032711115 6.027210179031705 4.411835727571181 0.49884183580826347 -1.2994242248599814 -1.3197608795348044
Ni 5.879042623078331 0.5188057528573347 7.7202585110560085 -2.3711075878924266 -1.115750014334356 -1.4031553819020608
Ni 4.79788700852204 2.88138628667228 4.228372806412085 0.44632062598109584 1.1009566580752652 -0.7279749499976366
Ni 6.84562665078323 2.0016665035232797 6.4349672556865345 2.9133619863583697 1.614322912751949 -1.0210886808040285
Ni 0.26456918989946077 7.511685402657273 11.996695950596658 0.6755010484686367 -1.4020603490656691 -1.1763660853545161
Ni 7.545822640150342 8.174309899912004 3.6751022553629378 -0.9626850440541549 1.0307953665688312 0.9376044469364433
Ni 8.552796488486733 3.057765124457678 7.736252992012642 -0.3727821904723128 0.23516826463985951 0.7742684337475375
Ni 2.6841966124709336 6.401655919100556 5.53602311244029 -0.7292183354864344 0.030417178839276644 0.23690581615625655
Ni 9.174844520837182 9.09349561454219 8.841454921453677 -0.18923062156748055 0.08862746863142155 0.9146547801188054
Ni 3.962644555578606 4.094779368499423 5.944867391984115 -0.39868348371910695 -1.3620678678331315 -0.3366450784301235
Ni 7.78957072819885 1.7743431114801844 -0.11430841842676094 1.5658247080412453 -0.13777719088319498 1.6318611787460284
Ni 4.136634346672308 1.262405867861477 2.6259281369490037 -0.22572768805224994 0.1139777744707521 -0.6651942672259898
Ni 7.69822702109602 5.778525349967934 3.007713663045275 1.087857658799462 2.211926734522474 -1.3982497170703274
Ni 1.8564385948663296 7.9689545387761465 9.140742745755944 0.8918367537830253 -0.6425793580399515 0.6067721185333551
Ni 0.9402485208144017 8.549250247303746 6.76191389477337 1.2983708438948027 -0.40848838562467066 -0.37958070145138495
Ni 3.0888040670224526 9.12745553997611 5.007407336605177 0.502627785213257 -0.1386120280796645 0.2323793890408127
Ni 2.8175819420194355 7.164471061988304 0.27615326669009643 -0.010726385278568625 -0.5749477749339066 -0.2592489597381471
Ni 7.884572663048339 0.4637606239264674 11.335986423580742 0.04849023429090359 -0.4151136042506721 0.07778924036533699
Ni 9.033536141908796 1.2088016327165392 2.115627763602654 1.0349944922518435 1.5440160968065861 -0.5902316976761706
P 2.895776560104295 8.020057740665715 11.179554259228283 -1.3578900823063582 -0.15118960763435899 -1.2395368044757298
P 2.9818662309281203 7.739391415459585 2.4817202392428444 -0.4921878208268556 0.11196357225420071 0.26823676505905414
P 5.531025712036371 2.293886109215035 0.9494911452029021 0.08784611038070678 0.0018108279564936556 -0.2247997769213419
P 8.892731702516938 7.0389061274696525 9.435127425012046 -0.04808142888825913 -0.46212056912782995 0.7868426708681223
P 7.6358598373436495 2.6125345439336805 10.084500178898773 0.37929479477985 -0.7992994085742363 -1.032160108126842
P 3.269858343841209 7.295569999195144 7.411395835559678 -0.07742362949580214 1.2237859693993762 0.23894212985999494
P 4.043676166609855 2.2149822428935777 11.609869162692364 -0.15116183972021707 0.08279440688941224 -1.179929377225742
P 0.15800184268661452 7.627124885377134 5.068857163756792 -0.8010287325605171 -0.41498119243786596 -0.27414233191021176
Ni 3.330667047915794 2.769838337040065 8.250022149168771 -0.15337375976987133 -0.8330410238010557 0.22478357897142576
Ni 7.680673127240236 7.187083015636665 13.613509429400386 1.1277920331005544 -1.9592484860233097 -1.424997674588133
Ni 3.2030583586101042 5.158726381104589 7.702461046424234 -1.1401456695699008 1.3570688719566435 0.9117365780307459
Ni 7.457894523239546 3.8792332300692998 4.845019353508026 -0.7097211459937713 -0.4063973074235968 0.16785601254644641
Ni 4.289850630204618 9.145289400241078 12.313453678831955 0.5763839931598009 -0.7418308820441224 -1.3114310195128704
Ni 6.492533015521414 4.482280875449851 10.291551203252917 0.5027961924703211 -0.22115086731484496 0.18640935006860154
Ni 0.6940264629300782 6.133074810557501 7.8130683089215935 0.8775614748109339 0.5702696527319469 0.5990518670709619
Ni 6.589784013858009 -0.12961791490226068 13.368514557609648 -1.5540004617128074 -0.26694170039671444 -0.07128152115380626
Ni 5.690503910920745 1.3110080364956753 9.85638728158178 -1.0296797649071494 1.3692150204008742 1.1475985263035202
Ni 4.398701570095034 8.670848991025636 0.9990423999642316 1.1182558114753451 0.5718645080228926 1.3069601282257106
Ni 3.9833434054308814 4.353589649361986 10.517164933757266 -1.11701756819287 -1.3386880554566105 -0.448248439131428
Ni 4.98902940828503 6.362115329910254 11.145516876421157 0.11466348768386703 1.1675541434898409 -1.3795469984545015
Ni 7.339991336118874 5.594400774861801 8.16965499174865 1.2005604232125322 0.25321946571461557 0.968853634758712
Ni 4.906299334371403 8.450571420280317 3.5537321508752133 -0.37075101897489693 -1.8182363331425846 -2.0357678585372874
Ni 2.109369581136046 1.6746190765291387 6.163705935386233 -0.13159445911125078 0.7906203927429998 0.5362220762289346
Ni 3.0987242101211763 0.20358130732299876 7.712021899297839 1.1914098670615159 -0.48629588082245284 -1.1978954747858597
Ni 4.609852235900982 8.119548470275776 9.487522205269313 -0.8612305988613941 0.6983602124549974 -0.5528247177826222
Ni 1.4513925262737568 3.974739104455319 7.074846348637859 -1.2621008058191747 -1.2869374052468803 -1.549796450933789
Ni 8.60641938805895 8.392879675561304 1.6774308724987017 -0.6510112908573885 1.4127119152422443 -2.8208498379605613
Ni 6.400965335291239 2.372034066231697 11.935054813065438 -1.5530964618412995 -0.36902555164335804 -0.4044862064438131
Ni 5.630992384542041 5.467249364024444 6.604716488902475 0.2432844659890907 0.5689938713433168 -0.9116489034129461
Ni 2.11579014411998 3.786331043288684 4.423172500700372 0.3052542228236678 0.4329819998906607 0.6902398973407081
Ni 4.929097932292552 5.746049246502685 8.759297845457512 1.8683928993923176 1.7759172606593996 1.6633034564157096
Ni 5.310038893054454 4.275730990968146 12.606280811631638 -1.5546319246492195 -1.5012589083447176 0.034359708426792444
P 8.72019773675099 4.983980680706094 6.600223028035085 -0.7048185664858313 -1.534284471341119 -0.10615699287475265
P 6.424025235194292 7.500225444308042 7.521525288718697 -0.11679261821172789 0.17929407918005896 -0.10923871712386993
P 0.14930888568147707 4.6131465073157045 2.496157173743056 1.2738114093878834 0.06479925586357227 -0.8433891998045991
P 7.913091907930466 1.2820875064270538 3.9489038042158957 -0.9632162339672767 0.04156728191882518 0.5661103791479347
P 0.3200109379100042 5.0818662695701695 12.550799868323809 0.9900390105870757 3.156429708350964 -0.40921652203994685
P 6.0093203254849 8.356829334272152 11.25490908470266 0.9052676824769507 0.6427997015808736 -0.00801978498068296
P 1.2487528393069778 1.981424932139337 0.1408604326736929 -0.551510884067205 -1.57843879726083 1.2995561224521555
P 0.003388526772480316 1.0727659544944361 7.251057206577748 -0.19515650013361227 1.612993652417564 -1.2500996675932405
