# total energy = -340897.22920033644 ev
CRYSTAL
PRIMVEC
9.01745029356340 0.00000000000000 0.00000000000000
0.00000000000000 9.01745029356340 0.00000000000000
0.00000000000000 0.00000000000000 13.19795000248104
PRIMCOORD
 96 1
Ni 6.413228503275404 1.827341163335092 11.235374837751044 -0.10284386934111965 0.868636147296846 0.760691209283735
Ni 4.599747160651635 0.23226155893264394 5.93133056267324 0.0873797122672495 0.36947909424100883 -0.2924748116708124
Ni 2.7234322261498574 1.5717685943043083 4.746774880062159 -0.3589920786667559 0.12647153606238865 0.94006524977211
Ni 3.4556040821393603 4.447568673778319 4.797375399216042 -0.21250990381039528 -1.2043625705674421 0.1875421781214641
Ni 5.0697817439813075 4.501096257215152 2.7892551027160915 -0.305272477656113 -0.26684245581468885 -0.4296161687422214
Ni 7.160152907530179 5.992880069665567 2.7787091948944305 -0.2337562147836813 1.0444756922694012 -0.6949031071443323
Ni 5.046516722878371 4.5932636140729475 11.55966217957586 0.10283281359752612 0.14816059100004805 -0.2897167893097011
Ni 5.661335484048644 7.875606411145711 12.583492636165808 -1.0261928347998133 0.035924738921067165 0.07970779754428853
Ni 1.6966963471570524 6.409360017208287 0.38100079036074236 0.7185886236867302 0.08910415115752396 -0.6372903417268703
Ni 2.8286027459651852 1.7163543882440297 0.39587777943656577 0.07106117761288408 -0.9337621903722176 -0.16173370169879242
Ni 0.5395284638071499 0.10853312693520607 4.585719615369569 0.6656493524855374 -0.1782183296173769 0.0868724336135278
Ni 8.482886584082628 2.2906667638350813 1.2274913692310496 0.8766525898434192 0.40661148031693195 0.63968918097635
Ni 7.062178312846689 0.6470399136528355 4.802126693642065 -1.321737543645201 -0.014940423359916206 -0.29844079944626023
Ni 0.9615397152043436 7.386031013579579 2.459187575415704 -1.3883170313376478 0.6641696826162174 0.8304776339492536
Ni 7.6707750334894325 3.8149855360294476 3.796231945181472 -1.1582899445790955 -0.351818186626136 -0.42275826528012356
Ni 7.720470200659309 3.7360648132802616 12.671721170846176 -0.7372178087521433 0.4090396301424504 -1.216031265154622
Ni 8.097679153278275 8.779190974943631 6.967752084753899 -0.7991934791239913 0.4282290585867076 0.00046305567934758955
Ni 6.852044674566951 0.75271811590541 0.4292621829742755 0.09637754489048564 -0.31302975300402863 -0.47688281503866903
Ni 1.7881693603617759 6.481174989326033 9.148145353796075 0.7466969518871721 -0.27755958512187684 0.08453067285422862
Ni -0.11238177461223446 4.901507108786775 1.4199012094573693 0.3883705318288731 -0.8040811462335958 -0.7720539425947219
Ni 6.448847430933 1.9487160408721165 7.005775064592132 0.5663266089237988 -0.18007389476887697 -0.4484767530921502
Ni 3.4111660883427435 4.207758607417277 0.5411696397144113 -0.30656342855339463 0.5652889116879039 -0.40803998523334245
Ni 5.988353309745539 5.555497672930364 4.82524923903437 -0.7245034465092685 0.31182493406265005 -0.05131022023820195
Ni 5.438965166064764 2.7785829505938726 9.14170509097758 -0.32864354828188563 -0.20429831453388042 0.24947054019514453
P 0.012224957019089464 5.607681656311252 12.460065386999702 0.8617113951525547 -0.4881352480240367 -0.5236056730165047
P 3.833137662959762 6.0590952053085365 12.689063530762906 0.2746796924709205 0.5925125232905474 -0.20842544932837653
P 2.323021374578235 8.523952051564324 1.358596977106128 1.0124991393628044 0.9027965952286386 -1.0925828321892732
P 6.408575499054816 7.8195539416977065 5.826433271594121 0.26842008471445383 -0.9520517327100247 0.2976998075151776
P 4.737028820059038 1.0218754734212998 12.603936097151259 0.6400717611267492 0.20153155042202064 0.025721830246136345
P 4.083994105619679 6.143146857130424 8.14218477795019 -1.1046428486776008 -0.20885739465947256 0.3695860521325183
P 4.655159391146806 1.0824547027893332 3.7588158397309237 0.4058095532409269 0.07111465655863881 0.5310898972086917
P 0.2199644623132353 5.639459150251852 3.386263498312562 0.4068516213521961 -0.5551443670547341 2.304835347027753
Ni 1.5662589323299307 1.2656442003498574 2.531631063801231 -1.2741847335669023 -0.5130543798632197 -0.23240407163116103
Ni 2.034111292749949 6.465403469206252 4.715323817813005 -1.5524362025494813 0.10512083830075443 -0.4020356880207915
Ni 5.984547945828702 5.525947489149618 9.087368642272168 -0.2017027858925623 0.5042028430098606 0.9030735030391092
Ni 8.671693953018009 2.3445640627235504 10.127987787346399 0.2530700846209448 0.08603348265200021 0.5686696552346787
Ni 2.425351397630995 5.218136832037707 6.872845226573983 -0.3242017104604481 0.15839975222955302 0.9077948197741785
Ni 0.5180020070719058 0.09820814663952308 9.169552780190793 -0.13948080383786302 -0.35397842750224845 0.029900901324490442
Ni 1.6981481566134762 1.151221776793594 11.371327325022568 -0.2911033852445825 0.26488636052958253 -0.4396529841529331
Ni 4.011638086499539 6.987378564765737 1.515216558124093 0.1473236969210495 -0.4702707090387901 0.08965565278561978
Ni 5.6610559430974075 7.722986069220441 7.970637710136178 -0.3534048143869656 0.6081965096847074 -0.16060627296256857
Ni 5.180416838520814 2.8796324957409674 5.153416789611352 0.11910995349099486 -0.7820871584610078 -1.671799923922495
Ni 0.874930714551141 7.327859443372199 6.947915498156132 -0.1493558968597299 -0.37132180387670244 -0.07461932727778761
Ni 5.120811493757089 4.448704872483346 7.031946409842928 -0.44919229110193615 0.3852978064408203 0.2935047955972236
Ni 7.998658534390157 7.154084163653327 9.37439768402213 -0.025085996434350343 0.21915029194504837 -0.5498923746271756
Ni 4.492177999125693 0.28665752280831946 10.510847074160365 -0.24607925512540843 0.975116070728656 -0.9688999146156153
Ni 8.351619563851838 7.090610332822488 4.849876796838336 -0.32307710993770167 0.10897852148394782 -0.2658358689270454
Ni 7.284674875131127 5.893462682975693 6.762734947626799 0.38728475496386205 1.051873527395369 1.6490747144108373
Ni 2.2842192870565547 5.185962570295351 2.543244637707615 0.178670329553131 -0.02005640443024288 0.08258280509923842
Ni 2.344176312371835 5.183825434635895 11.29468621364347 -0.22919636332714075 0.19503642961598022 0.10189384672302453
Ni 0.9984030509674457 3.3756643875356662 3.778665050758747 1.1346031424851168 -0.3467376867794351 -0.8660377904420504
Ni 3.5073642453683735 2.6500662526252485 2.6578690521447723 0.8207609208821219 0.7010048491666959 -0.03592088226632524
Ni 1.1396884581925646 3.581740173297451 8.171787262941166 -0.38910406756078797 -0.25655778605922913 -0.1156847298595298
Ni 3.586293985567599 2.6602018664700937 7.036619252453603 -0.574732830709623 -0.0014465026385394443 -0.40685496378630576
Ni 3.966704132950728 6.854479386077723 6.027662177959461 1.5313991793735238 0.16140177228067043 -0.012372405522423854
Ni 0.7429386913371409 7.364082540182468 11.303238363261308 -0.12722152685453575 0.0068869569278203965 0.13217501420506914
P 0.015567725748879581 5.652543470259744 8.073581821536655 0.42399882255544397 -0.43834095020972896 0.028550815054499218
P 8.533717949957532 1.8162136299858582 7.968459995951544 -0.10619838763564936 -1.3965422474609175 -0.15911040514333244
P 1.9652720791453688 3.2684559240113207 10.269971145204606 -0.7867997334453287 -0.28839652783638076 0.4820031669843699
P 4.003801922414868 6.190416330239568 3.731192685023705 -0.16268989496447467 0.26744332262348136 -0.5105269854556757
P 6.819167051721483 3.9789137603047497 10.438693947666122 0.6097057472403823 -0.37599966896834597 0.4036770802789564
P 6.039707687722757 7.77687435065887 10.383499939461913 1.961518770114725 -0.2589496833301734 -1.2162953174492859
P 2.3576664176315223 8.383820877944313 5.749845363170257 0.09126953423995894 1.2331175312129472 -0.25018942063904004
P 6.840944193567837 3.986984378090458 1.6302368386180017 0.5804689618624519 0.012325097224256194 -0.07864310372520003
Ni 5.328348106425338 2.9129249212882695 0.525665036115811 -0.16373479128922122 -0.4453402643456975 -1.0458111232513732
Ni 1.3443034170478858 1.0266457044924058 6.965548219964148 0.20566588430536836 0.6468882698279504 -0.43594391073246214
Ni 6.847914682448677 0.6392858083635273 9.03218816024302 -0.15573994600920274 -0.4833563385781547 0.8504998427074514
Ni 2.6572892301072066 1.5855923452154714 9.027463918167118 0.43047003210208445 0.07455762080191676 0.8615787262294322
Ni 6.259363753244626 2.044517430095991 2.5620523332558296 0.6493372455890751 -0.21786885412946352 1.0822305424206717
Ni 4.06884478955265 6.943175024670158 10.568666963816188 -0.35928235621366506 -1.4178543786751323 -0.7549699905292417
Ni 8.032564146540173 7.2794898413581866 0.3757228768523902 0.09805518970322467 -0.13330527115477042 0.4151951082208849
Ni 7.596363035760196 3.775687488755573 8.279509721117785 0.12585832795842197 0.5872597595320401 -0.5084973566201565
Ni 3.10883804085509 8.324332760031107 12.42268895832933 -0.11522013151828545 -0.12105447881187538 0.7720909664802444
Ni -0.01573094159460173 4.7861378529763225 10.141080223059324 0.2514785717641088 0.5020765406954774 0.9687099100919963
Ni 8.626318144417244 2.2496283487035065 5.586216518236279 0.3487014953740253 0.6104377403104002 0.7848660067577257
Ni 3.7929468881319375 2.6343758895558267 11.409205123915159 -0.16419784696856884 -0.03229665525017663 -0.29717041737426886
Ni 1.2140914384717616 3.357809836456668 12.527164232746582 -0.5359099443051545 0.43988695454061016 -0.047794750885775755
Ni 2.984568561855258 8.451226316992548 8.019457282907181 0.946403533285312 -0.8248494891291988 -0.32146837068968503
Ni 5.4161600349138626 7.837633929027701 3.847122826226639 0.5937785344871644 0.6821126402478833 -0.6642889818029011
Ni 3.0493499229418837 8.443263908607317 3.4141643904810097 0.17755447078113293 -0.028139438548693475 0.8727663674151357
Ni 3.6000095270782837 4.190778748992149 9.16356068463928 -0.3631976321076713 0.9855897165664703 -0.12086473139857248
Ni 7.158015771870723 6.091449816051689 11.50496954159387 -0.2764049026921433 -0.3798748356530361 -0.6323479101199303
Ni 0.5823902073367921 9.045584484022292 0.16234566179330023 0.2121288663218927 -0.20289706331097956 0.4280413680559338
Ni 4.709264091386193 0.3769059662976248 1.5950913270875 -0.6478519192928003 -0.3179503302340976 0.12846568367428196
Ni 5.989642805101244 5.634797128581225 0.4654627361594452 -0.6201454545164674 0.002150470684099522 0.3229850644445276
Ni 7.73623270332905 8.781679791154643 11.410340420875183 0.6353028789831963 0.07458616004700702 -0.07330832177584794
Ni 9.13224217890571 4.707172042976937 5.501433551216156 -0.32313470264851446 1.4416226847393236 1.3666452027911689
Ni 7.868203084662955 8.724058285399696 2.630153017702142 -0.022029726106529802 -0.39787332911298573 -0.33419970221342443
P 8.46685355791169 1.666830552624911 3.3357288065439707 -0.00785780548152195 -0.07894675100854792 1.1124374050213552
P 1.6488407397953149 3.2895206873045217 1.5448992984204248 0.18174356916181603 -0.19322277344600916 -0.12192016924628034
P 4.7023837770057515 1.0183857202558593 8.007737303090327 -0.02856675589409919 -0.5043095437910541 0.8939126624754475
P 8.725221536454843 1.6423481757665883 12.263667128620735 -1.3122488874284755 -0.07755526997765999 -0.06350521964249708
P 6.221472428176977 7.6760953290129725 1.5958037056406518 0.1718157685251428 0.08300189491452802 -0.1557772270050414
P 1.7364993716331614 3.3479176937629007 5.95376688011751 0.6885887348905303 -1.3575393838351588 -0.38362041873839736
P 6.938522020449571 3.898171512647505 6.020930651504677 0.7733009276279456 -0.4812362069113582 -1.0179899872740468
P 2.367486420724971 8.427041515985541 10.196511390199582 -0.009900032722531336 0.09237279460646672 -0.10021980145471127
