# total energy = -340858.1671634215 ev
CRYSTAL
PRIMVEC
9.32174285049035 0.00000000000000 0.00000000000000
0.00000000000000 9.32174285049035 0.00000000000000
0.00000000000000 0.00000000000000 13.64331291790164
PRIMCOORD
 96 1
Ni 4.059152906622055 0.5886829732410916 13.038232179640291 -1.2821358700931789 1.5410924954018879 -1.5823975247982618
Ni 1.9298897357007019 1.9710825171781685 13.431977935064019 4.2070544509408965 -1.030262891104129 -2.201631266133737
Ni 3.6067687280519127 2.9262069289781665 6.807453441896759 0.012432312226081816 0.5292939816505337 -0.29851921809267945
Ni 1.6278373034277098 6.548403141380658 6.100402978454068 -1.6058261881348472 -3.0327056531267256 0.481849415015325
Ni 5.148156188659522 6.524147966588992 9.929589422127275 -1.9067699565086198 0.5803416922559683 -2.7120968022238583
Ni 5.60396144684094 9.07382173824213 3.0205886427553112 -2.447363422332372 2.0001601366360067 -0.4958123049533203
Ni 3.091630576884734 7.776300391287384 5.342012084310924 4.2057650427055115 2.6443837151476006 -2.9179766023122458
Ni 6.2554580518330525 7.000470380695259 2.3114361263089602 0.15989459160752462 -1.4657260055454306 -1.9156009245366883
Ni 6.882951169089371 8.464580593407824 6.893011193929941 -0.7195342754294511 0.6954201559900668 -2.0769649016008875
Ni 5.932161367696031 2.05768150788323 3.2238054325365324 -0.5156450234085314 1.1816232199883971 -0.7002558868158134
Ni 1.8002895454130305 0.23412396024211476 3.2509969563133527 -0.5218143854440368 -2.074018931598686 1.9632550360795415
Ni 0.27324545046719556 1.134204412923241 0.6091190300034927 -3.620692006412145 -2.5294566893897015 1.3989752823824422
Ni 2.1112722072980197 2.2070065059568975 2.3701845460205324 -0.1078364374597046 2.279903873893396 0.1647264657785292
Ni 7.977827149097148 2.5550617389973254 12.411076509473697 0.9676400740665851 -0.7226003159492845 -0.2573255174631891
Ni 3.4122798860637107 0.422305711045059 1.7752811738023162 -0.2645199783290993 -0.4457439275420194 -1.085658080044982
Ni 0.2808361456373927 1.7759504749360753 4.260629327020646 -0.010181311408376014 1.6275427538763325 0.3271309682921011
Ni 5.733673498042331 9.181114997985427 9.078423882667433 -1.7027680901692352 0.6350018028030096 -0.5725795318120461
Ni 4.8233307387016575 2.244945999193668 0.9766483159483278 -0.6504834433783765 -0.2365702871937087 -0.1891501460385323
Ni 4.1278727946175024 7.706005128757043 12.113297164104814 0.43384769032506565 0.22761282089010476 -0.43232765413611346
Ni 4.51317771192676 5.048683871133826 1.5767028832433596 4.262106654720034 -1.267702211166352 3.16868975666524
Ni 1.3076820466176637 8.171719399545509 10.39942390323777 -0.1918904277878308 0.19137852114841877 1.1622491863371598
Ni 6.51748292047983 6.451652772755487 11.447830995337611 2.6193149451044313 -0.9068239712204769 3.225040367540826
Ni 6.576694630809061 4.206744060533059 10.340635400032115 0.6325029476405558 -0.38016099943488724 -0.6082289055845396
Ni 1.752161387284911 4.678759829461098 10.318423551264404 -0.3703404138000396 0.10260758496059748 0.08732520488023025
P 7.609198829675012 2.821272070165801 5.093935339430774 -0.01811110777841397 -0.05237054318191626 -0.9433305507869432
P 9.236980202645862 5.338944298752146 6.116324515173576 -1.6701397626112529 -0.7652587740497595 0.3185468261675159
P 0.36857891418524297 0.5155520365479436 11.68156810325311 -0.27097781813930105 0.5715009540358867 0.2640893185495839
P 2.021233493496062 7.905303990035213 1.0636528024656247 0.2956190137267489 -0.3404994191792071 3.096517348266048
P 4.863265084899771 9.42866320004825 5.3437170310708755 2.9769060296586023 -1.3069945810080716 0.05387669541379753
P 9.167412036054703 9.060426393824134 4.178932640859373 0.05881912702073741 -0.2586576060110513 -0.300373754802915
P 3.281887347637188 5.283079094091713 8.037043520297782 0.849847296725117 -0.2809349293520129 0.7818444463225825
P 7.666490260985379 8.276766119271594 8.801860823934154 0.14798421332318384 0.1956252122399147 2.3332421803052203
Ni 2.5634419857835313 0.5720828136450128 11.159315597973325 0.9575389810768412 1.7945397608565934 -0.5954003863613035
Ni 1.1275859755281288 4.951868250308987 7.949208466496114 -1.082735507081548 -1.2599241098828302 0.336166339021492
Ni 0.14037519280177027 0.5198446991119565 8.973411653389746 0.25816678241756186 -1.4650004402333157 -1.235002664050802
Ni 8.764582242262613 7.229710679879206 5.098860948331588 -0.9402444556624516 -0.7838805029160049 -0.2542139684174009
Ni 4.83588712626675 7.663013250917242 7.63066400684364 -1.8363880643509471 -1.6944243461902302 -0.7180839161361696
Ni 1.7266291337282735 8.299259484672167 12.755310760136297 -0.49205592323468167 0.7885025750690484 -0.06701169013385878
Ni 7.790040640189349 3.2988529195514196 8.176109940409027 0.23594730889772914 -0.22195870792812097 -0.4116292452464975
Ni 9.035164470808986 7.650195854553469 7.405453497076463 2.0051401063491014 -0.34345953024879555 0.11483703714725385
Ni 4.158009989122289 4.391957768425295 9.95773549236784 -0.0658732056540414 -0.7523441228706205 0.07161756433698634
Ni 6.022330585897328 6.10882703743148 5.79566588425179 1.9574901085713061 0.93668219223249 6.090557466501775
Ni 0.8019747026513797 4.696666897399141 4.086254009493619 -1.948644485255218 0.5607863958318601 -0.48954292700484076
Ni 1.8150458642812881 6.953880310130793 8.746809407421035 2.3872438313326563 -0.6820072250182706 -1.3608036564087274
Ni 7.519244011558345 5.703843921050276 8.718500206681291 -1.681505581246033 0.40494232014462517 -1.3946275469367078
Ni 8.13993225656335 4.3427482881312125 0.564672028111049 1.5240879904240914 -0.6226810764541276 0.7837385780215018
Ni 5.8473614733533035 3.4257031957101356 12.465567689243933 -0.8704289775312105 -0.4592869563337768 0.9389157095486991
Ni 9.097741330292633 7.400643477786494 0.8674217267462304 0.42633158445367875 -0.2703286145910764 0.024365573328558036
Ni 2.9377286030913474 2.3612906712054946 9.207039696914368 -0.6447236580764638 -0.09368559988061931 0.135441857881799
Ni 7.158362060411333 0.6174666506898633 4.44883904305202 1.1612461989939418 0.5825189024129452 1.8780900720754237
Ni 5.188733735111527 8.822954995738941 0.8311415037296429 1.7772719749150812 -2.232989725840361 0.21444671582179195
Ni 7.063466718605357 1.7684837589452516 1.0966517720130862 1.961856355959802 -3.1190834064920216 -1.5242677105350653
Ni 6.541719451785876 7.749397841537673 4.415412205509579 0.964214593324804 -0.03908102516186173 1.292131033632678
Ni 1.0979521551350835 3.829036363613967 12.560034230880648 -0.3464047289200486 1.3287502275176086 -0.3747763380842062
Ni 1.284657341876921 1.0347973475972159 6.313675132204454 2.4067006545056873 -1.1372272103715253 0.9247317047388331
Ni 3.773329628581303 6.5550495440042 0.45633100447590336 -2.884660247548303 4.416726885302497 0.5991012322516585
P 5.978471785976197 6.663852926082722 13.617936450206773 0.0138279070220278 0.568452139907234 -0.1117069761587044
P 5.591824537702298 2.3299323283925966 8.700626697017364 -0.3646451631874752 0.424824660890849 0.04255021465738478
P 6.530990125811545 3.6510656498851155 1.5014326065753125 -3.3137012605133447 1.4125386228891739 1.0670530633492847
P 2.516106175794263 5.9961551320868 3.9553058951956186 0.31815447582510364 -0.7771627245761971 1.0999349016789701
P 0.6656115879550408 2.590297926819191 8.384279372145212 0.8954962049124836 0.41505112644385295 -2.2920124842314724
P 3.7339079782377396 8.266652028322726 10.09298186227554 -0.08941808285351698 0.44715032097124285 -1.0401896632995375
P 8.288586089154697 6.035306451888873 2.6259013913077713 1.1798100780390586 -0.05649330710103819 -0.5538451886273363
P 0.6986441157766182 3.2025966032951803 1.1152933932845588 -0.8281839528190705 1.0824354593426262 -0.21878031020013933
Ni 4.3162372515795235 5.318427142827299 12.474026238669744 0.6794577191235395 -1.188616620587095 -2.394106619890761
Ni 3.526657670342624 7.499090403603088 2.7903033762023615 0.43609432026739736 -0.0760329197958626 -0.1768780135393986
Ni 8.583721788262656 7.858564771585787 11.674160114241989 0.45799651965712734 0.40055601815147146 0.3801738549506936
Ni 3.1004582673258203 3.877546713197297 0.4803783044029051 -1.3084500825076757 -0.6981023308079203 -0.8705343927608232
Ni 9.179511658222104 6.4255425711446295 9.777507052530405 0.4336821112814789 -0.2188978096146101 2.1056041626041346
Ni 0.9751568370987249 3.411282459583039 6.173544169064306 -0.5566716023325381 -0.7374726050754267 0.18601314307144737
Ni 2.8042692112803294 3.705737671465867 4.483506604562475 0.8300225486897059 -1.180211170132219 -0.08851408298200884
Ni 0.1467288927010781 2.3354228349076966 10.374293416796245 0.6077941320399661 1.266671970129625 2.1144361590734686
Ni 0.9147416897727215 7.141713427752642 3.011201647745623 -0.37592999207267513 0.8203153487042711 0.3085280084789332
Ni 4.961329819261154 1.5517905255835882 10.862328600743297 -0.26194938938844564 0.8296700504462936 -0.28992376311418455
Ni 8.214636703442828 3.1580666378917277 2.841957017461229 0.2201111131964209 0.47962129701575457 0.10031364672009821
Ni 8.873208511227745 5.705810808783189 12.78847752105434 0.6226245121845793 2.149564627345485 -2.2100891670931033
Ni 7.303473630734873 5.063710520543575 4.378016169878632 2.3044213994187865 -1.017218656325661 -0.9347515508686804
Ni 6.070663822367268 2.0159760305512124 6.45506080192683 -1.1553185206555974 -0.5281804368713807 1.0341606834966381
Ni 7.368958873975245 8.760023910028515 13.618672867888765 1.142507227823542 -1.3738170379492598 0.0362893213493375
Ni 5.6017428720521565 4.665122119730043 7.746741144836818 -0.7549779609490417 -0.9805413555092856 0.6423713557942033
Ni 5.339643429462898 3.6922584313625824 4.813211054707102 -0.1325290551103782 0.43010827788729145 -0.15239648345826656
Ni 7.968020675661011 9.069710849662911 2.2950503667975117 0.1596775905007121 0.09127390511533312 0.32344014970407525
Ni 6.445332631130296 8.824921883471854 11.189876931775967 0.20694243702494683 -0.11899451095905313 0.33679805906821997
Ni 7.385896480661047 1.4140617755655818 9.688171198136322 -0.6783346612626898 0.1569085123960072 0.5524768475249001
Ni 1.4538190086503058 5.242557478096568 1.624795618748801 -0.20413093571808072 0.07463706788960048 -0.20243272208005136
Ni 3.68033592230857 0.6524548801529823 7.431621493492744 0.48712146204754164 -0.65987594033687 -0.15475161395400447
Ni 4.0173169248906975 5.2223665831700705 5.998978687983954 -2.3434355758984546 0.8011490601884654 0.09000506570523854
Ni 8.371568243649472 1.2233109524441967 6.52460100328956 -0.3843871217010928 0.22350676914153117 0.7701109599357382
P 6.206658728222612 0.889230876224547 12.783975119277102 -0.8115046923911767 2.7120410092852585 -0.5764662684609619
P 8.699870703675472 4.375215918338503 11.05281655071744 -0.29016673236292606 -0.03988140957597002 -0.17665021379930868
P 3.5468392435263114 3.3243105991655773 11.953315549650736 -0.4632852788598924 -0.9742046146579803 -0.5581664417105097
P 2.2359878043532415 8.269588377307882 7.1572816704196525 -0.670824983149206 2.2214683554643226 1.2574278258235374
P 3.1934892605697933 1.229314154813848 4.977421943874087 -3.087954289187385 1.962554410468091 -0.20071291117546725
P 4.016934733435487 3.2824373304629795 2.692002801747885 0.06660571294469175 -0.11246725136349664 0.9505072710410404
P 1.6042532941183658 6.370712079936107 11.886422723246051 -0.4740952249912029 -1.1308593591719684 -0.9921547713784977
P 5.214433780038745 5.975973558903112 4.064493333077913 -1.6947292790251587 -0.6445575648122447 -3.7190421016479696
