# total energy = -340869.6999626089 ev
CRYSTAL
PRIMVEC
9.21550486979153 0.00000000000000 0.00000000000000

0.00000000000000 9.21550486979153 0.00000000000000

0.00000000000000 0.00000000000000 13.48782289444422

PRIMCOORD
 96 1
Ni 3.5653773841402905 0.2085293610985707 1.3171951204573717 0.2653537870843043 -0.39014742122363777 -1.1272767840270328
Ni 5.730339032950523 6.101318388724276 3.105031593433102 -1.4055004850954698 1.1652252382463482 -1.197248842340796
Ni 7.544936409921468 8.925695473802168 5.029663017648537 -3.639540763687532 1.746168054421425 -3.3149382182442393
Ni 5.174137248925163 7.920081173803572 12.387998359820592 0.8953715064091612 -0.43554230441866926 0.7101862585556479
Ni 3.579477106276962 0.8413847913727004 3.535697929817831 0.1740747397626486 -0.6611848889562806 0.4261459508054338
Ni 1.0925257244894115 9.019020889539469 5.700534247764627 2.1717717595701433 0.6760252964032228 0.5920438111842449
Ni 4.461668152304029 2.5001571999717664 10.77102471572826 -0.14914609484176894 -0.16201703726716613 -0.06987024262857645
Ni 3.8116248842801568 2.8938804212574833 4.661216082556587 -0.17270357044673482 0.8558171411553067 0.4109751566022664
Ni 3.0327672920560285 5.634857189121732 8.82718633669109 0.03931653821143552 1.2745631999522435 -0.5878547128035618
Ni 8.35010426796272 9.04128554880888 6.925308915042749 0.3968639140118649 -0.8624210196250695 4.141223668489016
Ni 5.075844676173702 4.732576342926074 1.2075932803816465 -0.6624280173347624 -0.17092590972102176 -1.0249031694541122
Ni 1.162176508743635 4.3076494228463895 5.497878849339203 0.829014676250482 -0.6730129919394603 1.559361983135037
Ni 2.2459198572877868 3.274268807293682 13.169833481601817 -1.3498093621807528 0.4148796338629952 1.131394148629516
Ni 0.5347545400196893 6.733161035035779 2.822515553135665 0.8124153771309042 -0.4919849607874301 1.1422696578914393
Ni 0.5175639376185476 0.04465188475085865 11.804232079793273 -1.8187019599250935 0.9224727335013273 1.4114505320313175
Ni 0.7096473090928674 7.366607179158903 7.868202490294819 -0.627124456937462 -0.34988111750442324 0.21279863869540774
Ni 2.8677176035149934 5.342080605930849 4.226166852153426 -0.6439032190576974 0.7640588402043873 -0.4314912742777472
Ni 4.442933031321119 7.487993806599579 5.1357850831629515 -0.3681516336788369 -0.4670108073405957 -1.306981725492265
Ni 1.208134230505452 4.000763902014172 3.2225375718595615 -0.5882663464196837 0.908223679781481 -1.6346356561673718
Ni 4.812548492404527 6.122126998256697 7.1258327672392765 0.6562154607661472 0.2362026194416448 0.4525869186057818
Ni 6.2563969012183325 2.1039550079313014 4.689918693384611 0.7182314974576276 -0.013237838846512683 -0.3727397672701516
Ni 3.3465275793679563 6.397606079192329 13.3211262647797 -1.7019864748082043 -1.3130032490959966 -0.5967689845740561
Ni 6.126624164532969 3.9812915406581024 6.776471142307487 -0.7708843477666529 0.38849831565598897 -0.8666499701047525
Ni 6.231422883577562 4.052444452172638 11.882151014832479 -0.08516187868032431 -0.199818681495972 -0.13048785631063334
P 4.529899748839921 3.560612968228749 8.816139711249765 -0.7276412208073018 0.3786751589179801 0.04367841472455703
P 3.412003740009166 7.843371312976348 8.281725223352197 0.7469877436547135 -1.059989214523968 0.7380266778066839
P 1.4777153884558096 7.585364828884591 12.934026226696353 0.21616755516764058 -0.31494342508697376 -1.055252471169931
P 8.534580240336503 4.876716051383379 6.530156368983571 0.5670223494392428 -0.07937586812616652 0.5964311416186631
P 5.0364391782283375 0.32870230657493377 4.925807044731123 1.2010607598877185 0.129157567534984 0.8691799356154578
P 5.255611525663929 2.4998530883178383 2.0470870501971934 -0.266552949598728 -0.7399884295187449 0.07999164733329449
P 2.191732689860579 2.3846777110210287 6.244026007756719 0.6441909255014454 0.10286906615210027 0.07998830489918483
P 4.747487029473221 5.175538005634166 5.004966386698168 2.481243620019585 -0.988660127961678 1.220114176974744
Ni 7.264803499130269 0.8866384485781503 2.437977425349046 -0.4286723167717133 -0.9344391618345842 0.3616122898984224
Ni 8.836959379387784 7.225683681829504 5.532461873693637 1.955110038374904 -2.8088350728878724 0.12832504433135963
Ni 7.486574618881247 6.194468709872952 7.687007237581596 -0.013852589612376141 0.037387953730154966 1.11419038315672
Ni 0.1274283122987169 1.4928103850962462 1.077802112686954 0.16295600414166772 -0.9933760453801086 -0.6210898207076078
Ni 3.0969624975488736 7.791229987584657 11.006926890331767 -1.436728589871816 1.8395728898368318 -0.12377316329461908
Ni 2.488103319870612 2.3164368989804722 2.085338766958563 0.663233029734561 1.6425785651635323 -1.273210285468775
Ni 8.99431412153397 1.9569308465140107 7.117739711042922 1.1740055555421394 2.2959763539752265 -0.08550820627614952
Ni 8.308496264402542 2.850834798969646 2.910442526240507 1.0197216252531727 0.15889288981588764 1.363532111083484
Ni 1.2566722935733265 1.8100357021620228 4.117144667321098 -0.1017920310378376 0.35410518288809983 0.9918516383157823
Ni 4.309096257078715 0.3556889904344295 9.209889657499009 0.5919034289516387 0.6157388408083395 -0.0502360133374167
Ni 5.487722441648467 8.401665016560548 2.6793563743746613 -0.6355795296833505 1.2079939966724422 1.1036606872699897
Ni 8.50923760250915 7.060956535951727 12.404359566801931 0.3826169171745475 0.0828021201988961 0.45039968114647594
Ni 1.0416745697507497 4.012274067340122 8.013331022402625 -0.1251096227178555 1.4497640828995355 -1.0977234958499482
Ni 7.949285108085344 5.495924240799863 10.204427842441353 1.0789948090921935 0.42868851472162944 0.8917807037341093
Ni 6.3501277991608704 7.928771394702188 6.9013817787318645 -1.615938593978501 0.3035603800610127 0.4874089113809735
Ni 6.275740245509099 0.9945004013732197 6.790754252986981 0.6894335993893288 0.5260927011044166 0.32289559005451485
Ni 3.0521290673561245 7.212072381440051 2.3555272266663105 -0.6232230650005267 -0.0460541140455852 0.8541670071463934
Ni 6.979989111969508 7.491624715437388 0.821771432795264 -0.0056170890764612935 -1.1426519809315223 0.4461583893716188
Ni 4.4840341821247485 2.2034087342704893 7.224739092601394 -1.1326671018046686 0.5324253281906637 -0.2628415621854118
Ni 8.331479733035783 4.667330569901477 4.548282837544648 -0.7352216042577209 -0.11042142457806145 -2.3708592193270457
Ni 3.2896679155880464 4.392542651815681 6.803379494377334 -0.15574020311951886 -1.1189638932859634 -0.7351475564866758
Ni 7.86859414924306 3.8346636459413848 8.251944398478427 0.694094752310424 -0.049569069177379146 1.2209652121211294
Ni 0.7073572561837415 5.04555331234152 11.908331342033831 0.031804803215422645 1.046604565686946 0.11661932585865721
Ni 7.601427453514799 7.921703102624522 10.45080988894932 -2.1386844900978716 0.3221358290703549 -0.24690689323302636
P 6.548500752568706 -0.1740513934973102 8.856090767071267 0.620494353215454 0.5838697600138848 -1.2275176685276665
P 7.800556078305123 2.4492231056911242 11.153835857940752 -1.1028153085505585 0.9418123143702037 -0.033590948581567956
P 4.744869826148505 7.262766872599417 1.0013733247519974 1.9662858524860654 0.7745142312097565 0.9206019988411759
P 2.8294916901666842 4.986712315058744 2.0224586139813407 -0.03529301887433922 -0.3900294075885347 -0.8009279453165948
P 7.728997684585349 9.53878456812143 13.147902423601263 1.9946183808821711 -0.4822641339552404 -0.3383546049220625
P 8.46101286659987 1.6597216055795088 5.128164782355883 -0.3466903784812675 0.15146805810672623 -1.9736579765804203
P 6.171300931146421 6.307625891648239 11.479148701900087 3.1343591017041694 -1.0041276274696578 -0.33722871884773536
P -0.0044077758810260855 3.505237000699822 0.9077834240308251 0.4507812328556107 3.0737669419434095 0.272633351464853
Ni 4.6738827937179295 2.402979703284708 13.348898109636611 -0.4806224845867593 -0.10955830524681777 0.22744261386082767
Ni 6.475864144803187 2.202459537290047 9.1099585680182 -1.578380947439701 0.5799994784252012 -0.6182428381771158
Ni 4.192160718390987 5.907866514807279 10.951559216757039 -0.7571230323165026 -1.77475435069955 0.9571528013820162
Ni 0.15500939620907225 8.907983273837017 3.520483131616756 -1.2882851775240265 -0.09893322143280381 -0.20287829425790221
Ni 5.868543956403896 5.087133669387704 9.49600711701933 -0.5091547876984973 -1.959615382444425 -1.6375636284474444
Ni 0.48167139005128773 7.756478319494862 10.176022892413993 2.6577367394157387 -1.5965519619217727 -0.8535566272559043
Ni 0.2367509225831082 3.611077071771502 10.21559611254425 -1.8151484382458805 -2.169079043229329 -0.976661560838905
Ni 8.123882059458792 5.36227177665075 2.0806453104329377 -1.0680434522870121 -0.32854816035460194 0.7970198685114402
Ni 6.41615689008195 0.7048340510066038 10.88638624621929 -0.18245525051685998 -0.17932698930052343 1.7646460586209545
Ni 5.430079459972075 7.259237334312916 9.469759516633925 -0.7082360768078125 1.824479228728503 -1.0008520420421796
Ni 6.765922154118044 6.345990037566515 5.144323248234602 -1.1408833190668737 -0.8910919051972009 1.0194228630658313
Ni 0.05689283959670215 8.360296616121646 0.9029047358614436 0.46497397941622504 -0.22013836688993055 0.5908310218230663
Ni 7.8819750620159015 4.995540768527326 13.367727228767098 -0.29771446280319697 -0.04210721358269522 -1.2098462193898325
Ni 2.0812572199426596 0.711730934697509 10.04765920639183 -1.200743999978248 -0.907694032530256 1.407468664565434
Ni 6.274321057790767 4.025433808001015 3.2349600721472958 -0.07523844891902527 -1.3354412663845387 0.6951447908414932
Ni 2.5089027138983684 4.129513717681776 10.511303226218441 1.038750616860166 -1.2826333785548878 0.9783281499080506
Ni 2.409292323979884 2.262222085039271 8.573129617898534 0.9552895229210324 0.7734829617317648 -1.542852158405472
Ni 2.499171140972666 6.971335753089551 6.53673808241495 0.1996685290713529 -0.8617990697703545 -0.6774216625301173
Ni 7.116673477153239 2.8948480492472553 0.8693114567079742 -1.1372732331181123 -0.45680327067997456 -0.9242000006050792
Ni 3.6397925843060563 0.0902382216746967 6.62207549870907 -0.5263634382672999 0.0005509874074635672 -0.05404124601611983
Ni 5.919948041422427 0.3538127136847391 0.5613956424542665 -1.8604121951796861 1.3066731931129107 -0.3398936672744082
Ni 0.9853678362507092 5.641538430003488 0.6132328561920288 0.586373500272345 -0.11992396475185797 1.31000585703057
Ni 2.5497273995620637 0.8768101128534705 12.529849858469705 -0.012770926512423168 0.11118427088601497 1.2277195001258276
Ni 8.658915829269816 1.3836711633546783 9.333734981584172 -0.8760126422665752 -0.2145901833781917 1.9561158539315988
P 4.353763808187503 0.44362794369533565 11.665658536153321 -0.06059061709886339 1.337968917902399 -0.9698998166350393
P 2.0782713964313646 7.364303302992779 4.458939441372873 -0.9682522537292874 0.9173441540255104 -0.19575351028766286
P 0.773784456906326 0.3283788423612101 8.231995595531203 2.3459105198015084 -1.573484281469032 0.04836605000821348
P 3.9223307418146884 4.335673772531107 12.444013883373236 1.3348113461100237 -0.15788476026634743 -0.19311941509892547
P 0.9464968375758858 5.54260077192551 9.679791926543276 0.2318883083370071 1.8563634790316095 -0.305112555039481
P 1.6386273154024886 0.393515872430766 2.3011981404672697 0.6584335514633887 -0.4618842847473078 -1.0353955843450038
P 7.361787470219373 7.547691845816152 3.3930234866021802 1.7735544168541777 -0.7533633081637542 -1.2859773553264564
P 1.2313388712506408 2.3488939064088097 11.547154518571697 0.48172780183579617 -1.0915502771597008 -0.5253722779986242
