# total energy = -381165.7063725644 ev
CRYSTAL
PRIMVEC
9.22514108990498 0.00000000000000 0.00000000000000

0.00000000000000 9.22514108990498 0.00000000000000

0.00000000000000 0.00000000000000 13.50192647663254

PRIMCOORD
 96 1
Ni 7.053699621817333 0.4451259675525876 9.626468747170136 -1.8483956303347844 3.2218437149803996 1.250398172670266
Ni 8.37702764532512 6.7492422940063665 4.707014716553446 1.2059710527051424 0.5057203080956516 -2.6511793979131952
Ni 7.77453368782628 0.2339790957408446 7.475247051535419 0.247703935213025 0.45503100927090023 -1.5053677883067687
Ni 3.925196011058393 2.8541479179704625 3.8787391235898827 -0.5694522990369741 -0.15253635147024053 -0.5289499680475536
Ni 0.4176193646881826 4.3406871357221535 4.541142991650489 0.7986520047982245 0.6238218749267901 -0.7699500088778417
Ni 1.4738730991841533 6.156351708269222 6.121044326190899 -2.5522916850063466 0.9692770954493758 0.38100920636779545
Ni 4.493160265863645 5.223477776801528 3.715487338725659 -1.3146778085849422 0.3334767080044708 0.6770974464214791
Ni 8.183982345147188 0.544607120354306 11.767927476104177 0.6092007825795056 0.5914676269658007 -1.9979942393329397
Ni 5.440010285918245 6.94977840866124 9.75136147331937 -0.6144278353063999 0.06542043438733895 -1.8774367547621407
Ni 3.979264562350702 2.3469312165280924 10.386653574549577 -1.4992506196654374 0.5660885247710638 -0.557647335982246
Ni 0.30778483616297697 7.054031726892665 10.083806033839876 -2.01678566100783 0.6213356181698267 -2.07247858369476
Ni 0.92249933791995 2.152511370343924 5.036745240597206 1.5272689592552342 -0.5680597895648217 -1.9725493168972736
Ni 0.032799988759563976 0.720069301821584 9.232252642637807 0.6604675511742819 -0.11812959185559653 0.6193710382442881
Ni 5.332315990100736 0.8884438074728099 3.3787493975923844 2.178203631238416 0.8195532737272659 -1.9067038791573743
Ni 7.137639179607594 5.081050825188841 3.6412129611416684 0.5367118713811595 0.04633153607668795 -1.1444332412016613
Ni 6.020197852523925 1.6509220049002418 11.282236718627935 0.9203718851082408 0.36005163027952186 -0.015669588216456885
Ni 4.229800941125062 0.854972228449796 12.384182576405054 -0.6829652180561657 -0.18420257222526987 1.0902549553870449
Ni 7.911213376607519 4.702349562759124 5.847860226307066 -0.8387936100141168 -0.37714792364017624 2.1479456036848235
Ni 6.461399445103002 8.240846114156877 11.73193189850864 0.38566958795794226 2.1499793462854004 -1.8405961888950235
Ni 3.2867147785908966 5.08820953459045 7.042510448320926 2.787032118080168 0.48285060258632967 -1.0056368650253327
Ni 8.060153277753114 2.08528776801206 5.99532779495202 1.291345561616905 -0.07326461302210607 2.2798293119017186
Ni 5.794809208065011 3.6087921256764424 6.408446213355351 -0.11108194098019579 0.9195488749863131 0.6823877482861409
Ni 2.7930405841093027 0.3641901156658885 6.0872627824309085 0.08006800909718469 -0.13453297291428443 -0.15947550179223502
Ni 3.1928950948094976 4.66695269681328 1.615086944757779 1.328343478997493 -1.2762801826433503 1.0721682730886632
P 4.328205519974245 2.0539776395210008 7.686957579461129 0.2872331036558989 -0.18988882397676976 0.9044690978350552
Ni 2.657726216193318 3.4896678801829113 8.508968379184186 -0.23732284908901705 -1.921815280877516 1.671512217478747
P 3.206751256563643 7.894838751365437 9.700593677470227 -1.0586810372355058 -0.8815780521694947 1.0962258282584991
Ni 1.0436032986681014 3.840352389451949 6.879163644504593 -1.8369313384489268 1.5446028225479915 0.08332636813348229
P 8.974936707756175 6.704897041308511 2.2122635309949072 0.36303976637356833 -0.6965853799427616 1.0354794023080618
P 4.148619700488257 5.425822019088766 12.189458300568498 -0.03473251838517889 1.2371875875172629 -0.5402556228683598
P 7.25287041560695 7.879220587683832 0.06794869841300644 0.7784858142629948 0.40858454488290286 1.561927172759052
Ni 4.282670224089782 1.9287279004157838 1.3160992030347176 -0.3302381464625151 -0.15675681730949131 0.26212448151372925
Ni 6.586990514424533 7.905419988071166 2.894934111277672 0.25546969520137286 -1.0901942773524385 0.8150551287465964
Ni 3.290746165199793 0.28976721331209676 3.6490847739411443 -2.132720302094637 -0.6548525189803496 -0.0007793013681857547
Ni 8.3211232909775 2.946851359693106 8.136435968528767 0.3334728513497289 0.6572210192125262 -1.3776394970191437
Ni 6.839316570549295 2.54400790331492 4.454865783135527 -1.8373895090322678 2.115087162393906 -3.2804396702467375
Ni 5.325166505840109 5.728194465037923 1.6275353499981546 0.01661421151791332 1.0347330110603408 -0.05243276387841937
Ni 3.1178393477843778 7.315859678228327 5.073065543155294 0.9020165225295046 0.4725533344253797 -0.2763385682305821
Ni 5.942097808974926 6.106665098943105 5.270139462399826 -0.3711287140292899 1.486845561132865 1.4781220652169382
Ni 7.66257737687534 5.227518388551406 1.1250456107946822 0.6225075269907409 -0.5624583842176443 0.33567628675895095
Ni 7.753924722873708 7.194373796643543 6.718491209058784 -0.3652388309074161 0.10300764861249356 1.303824410810206
Ni 7.444033787024666 7.78474591889275 9.036825411058464 1.4177913866476808 -2.1399224762700304 -0.3813776454508077
Ni 2.3171801368628993 4.442163686518161 11.072147047972667 0.7187752857762395 -0.13309649757807399 -0.6247171330475499
Ni 8.93762101248619 3.222535472782913 2.645540727470914 -0.441648160206091 -0.7338728035393103 -0.19723523703951196
Ni 1.2781986338265072 8.07629727447066 0.9307484589855672 0.2443825841492759 -3.1316386174492132 0.6116857537848884
Ni 7.003579430865087 0.8448559388495323 0.1841162862219811 -1.0173454117115124 -1.64036253134882 0.988995656924226
Ni 2.017436856093457 7.093985812483348 11.278483008762581 1.7342520197101294 -2.6778769618090394 -0.04087179851369735
Ni 2.3966731767000984 5.79537194166488 13.32510544337907 -0.7336809992434784 0.14354263261206246 -0.029700355277910137
Ni 0.943584320147164 7.999424174672195 7.618799470347844 -1.5847739954502384 0.17858342626627954 -0.2007640761283768
Ni 3.109656647733827 7.970328080016685 12.96571055599534 -2.0219209253518664 2.2598199586593273 5.119582928745319
Ni 2.9450893577656476 2.8713343556189135 6.0898412093352245 1.4613613008188318 -1.0220677568878462 0.07920463265562488
Ni 0.966831675420431 4.801206173516397 1.4924488430644116 -1.9409597150164508 2.7179221506563835 0.5713284330137645
Ni 8.635543771048438 0.9179697936980554 3.656888320697357 -1.8801310137648526 0.2002308293327261 -0.3568650050214241
Ni 3.9746427667189925 3.471605054141222 12.799528866355406 -1.611648194133263 -1.3084182008284757 0.7599211638869299
Ni -0.008285099115444918 7.516644871689699 12.435841520873007 -0.7036656838283107 0.12418813934485065 0.3138571340013305
Ni 0.5991821318864968 0.5724172303570009 13.216576272302738 0.5700665355822053 -0.11823783529868667 1.5393418312593683
P 9.100850657012057 5.617990930873459 7.619676781255181 -0.5252632632245857 0.14939240652462013 0.9946397425838804
Ni 5.507418391069738 4.087540042050041 11.089401751664381 1.7832914416362837 0.5278076269129942 0.1987323904103287
P 2.634700264303606 4.770800108841521 5.057862510817856 0.7148240144379754 -0.9634939131086954 -1.7941777495314843
Ni 2.4556402778535604 0.3909448695403049 8.484624154648223 0.015623822580185997 1.3731207832131835 1.2605123782861325
P 1.956781554140389 2.5724305626787833 2.806119066478712 0.6508451975931694 1.6781790879759615 1.135186782902729
P 7.658010932089518 3.9872904350045677 12.029108745057039 -0.4986957971487024 0.3227050713102636 1.0087972650311854
P 2.7043962044185 0.4851354039891588 0.9011763470554144 1.9533748008513518 -0.22394205690673688 -1.6833853147672493
Ni 4.437615692014304 7.567327796241814 11.571029757052392 0.6436666775668592 -1.0746182772910524 -1.868081795909802
Ni 5.141669226577983 1.5035134771575691 5.7484860851407324 -2.1010214283294593 0.7767503196291268 0.48458969676462355
Ni 1.2010672300805603 0.7052897034551946 2.337426553774899 0.30938238605942847 0.6614278582050223 -0.37159922590780514
Ni 6.108076545513268 2.8864082359826115 8.814489365750314 -0.573622885474896 -0.8702472005377077 0.4205229481917016
Ni 4.538649436043201 0.19231374649810218 9.514632363051954 2.5441646850238375 1.147925827735952 0.2509563807120516
Ni 3.121243424806535 7.206800061545564 2.0717489511076765 1.436996241710906 0.20822644594369302 -0.02736707915904319
Ni 8.15110394268928 2.844802850156248 10.302131910363387 -0.43231788394410064 -2.7564197925109495 2.0616012746606236
Ni 1.6051007296453537 2.903530097644192 0.6714491187929225 1.8380330561535376 -1.1171499800056761 0.5366915596661853
Ni 8.726042404076514 4.898097829244621 9.886866801653673 1.882853554902338 0.26743123843862326 -1.5311698369715372
Ni 5.864449797334017 3.641965732645755 2.4804660547487543 -0.5990174142886007 -1.3280562867743773 -1.1715131281375888
Ni 8.46972186190678 8.775645987133798 1.5848294048527038 -0.9757693880419389 -0.05588961207876826 0.48418577645798544
Ni 4.684157584743693 4.73573534797101 9.031992359698279 -1.1100984724755332 0.19080182270934234 -0.5126350329376139
Ni 5.214861495124849 8.565128269936992 1.106589793747183 -0.7839370671855531 -0.104418155806775 -0.5934566323713715
Ni 6.131065596839053 6.263843050985138 13.06322214119752 -1.1265666453338856 -1.7952900087590566 -0.6813971022380975
Ni 2.2994863164604684 6.069902912132005 8.746332179151127 -2.391734777224474 -1.2210032644479165 2.729463832747396
Ni 8.663025466032193 2.4476328554816575 0.20833228129830098 -1.237035892430747 1.943611550817001 -0.47966012067348995
Ni 1.7896219995564207 6.063546789995783 3.551316729819682 -0.9074490063989856 -0.20788757454703552 -0.8726936051956713
Ni 6.87890165050072 5.606837735426881 8.55730442787062 0.7406029231742922 -1.5623583467591995 -1.285067441917677
Ni 0.9840826890557524 1.595543483588566 7.224218972746748 -0.6916079813328282 -0.8909517800749106 0.2655268223270588
Ni 1.378937173343998 0.02808501920394222 11.10991200760845 0.39491090405055207 0.1654648866064505 -0.8839635216825357
Ni 6.726677599165728 0.2455142120240562 5.02566031119389 1.8544806601865997 -3.1669581186861135 0.7141437005414992
Ni 0.3812418662560103 4.9145093550506305 12.270266845509653 -0.8499822796410845 0.09069797800720508 0.6216996863774649
Ni 1.7931275531293736 2.0718375124610984 12.138366702270906 1.2528278651576812 1.270602929752915 -2.136132670210295
Ni 1.0168134892579554 8.352064413829302 4.051307378331278 0.22845125763100013 -0.6302493757196888 0.6206118526299247
Ni 3.2884860056593364 7.623066098051766 7.616126024491418 0.8583411931287411 0.2725456768470532 -2.3661173337666863
P 5.137001305241367 6.399194319465049 7.41463695277316 0.7404548276322023 -0.23539657860058172 -0.0912430518773977
Ni 7.359190165418222 6.269719465790325 10.975904842169538 0.19035573631085925 -0.8039225091685445 0.6336044082348508
P 7.197676397114905 1.9079897834894723 2.178697855533883 -0.20808066439444806 -0.2872423596272795 -0.6272990348421132
Ni 6.086046908849553 2.7612968739921158 13.422129941137426 0.3649953474380424 2.764270656013936 -0.06926680471662265
P 4.912489049175691 8.052690138699116 4.292006066763015 1.1277606656419867 0.458939600296687 -0.1949556969767159
P 1.5942150632872365 2.0486178326107756 9.930640095610677 0.44472319958698897 0.6577282978662479 0.22950643836839182
P 9.05795375144829 0.06352063074190795 5.605041600477792 0.010722528623826694 -0.5975246317931581 1.3465692579769004
Ni 5.252776824558629 8.716300655200097 7.0093903471693055 0.9563189926268112 -0.5067412931609983 -0.12299797569149139
