# total energy = -381166.67849285837 ev
CRYSTAL
PRIMVEC
9.27058373742252 0.00000000000000 0.00000000000000
0.00000000000000 9.27058373742252 0.00000000000000
0.00000000000000 0.00000000000000 13.56843638468018
PRIMCOORD
 96 1
Ni 2.1462791494311753 1.4276698659369846 1.0246525686582915 0.583602108174795 -0.23807798208748676 -0.27815633816561125
Ni 6.801892041084592 1.6191166867257163 9.140919601234224 -0.9619790191260659 -0.5244921893865161 0.33051119761824366
Ni 6.5550534836142145 0.6891269737042375 3.560072805917936 -0.6330487928416968 -0.22042941576778813 1.0906838153943474
Ni 1.4268540545850206 0.9856113601750419 5.366289336808112 0.4565690431819814 -3.0248043960017776 -3.3477141271236794
Ni 3.074978397223184 3.175999946113543 11.060188117281163 -0.09088258321418542 0.052007503415542694 -0.31562913830008865
Ni 8.162099870564282 1.6805621144622769 5.098190550093882 -0.10836582760061336 -0.2826344285416229 -0.8134283917764507
Ni 5.437874001767889 6.725520973840509 4.116283715103441 -0.7174254566165644 0.23601004381486448 -1.698846386517326
Ni 7.222146134348589 6.531098295733818 0.43589727593790556 -0.23612420079522561 -0.23368448100548142 1.2461440253796023
Ni 4.637609418408939 8.650780140974257 0.10288864441633136 0.008001787258553963 -1.3851545744492662 1.8727871718052713
Ni 8.86385523317358 9.208470635293551 3.289816754412774 -1.8405085142772237 -1.2516315308567347 0.7493816978081869
Ni 0.4949026860854102 3.0606924279802685 10.243518309280901 -0.6785699172019475 1.769382030644043 -0.9126241228420219
Ni 5.472629419478264 2.4383859663520093 12.364956930103128 -0.8419537529096531 0.7117350911000065 0.5876320552697945
Ni 5.8170686805108796 4.188523810319851 7.342775894495073 0.8587325150298888 0.6415159497724436 -0.9519100649258381
Ni 0.493518587962135 4.425340866978035 7.446235606857779 -0.5755031332167443 0.583052406318912 3.1340629106199893
Ni 0.13515676456157072 7.515133656706202 1.6430153240464886 -0.5931409009031656 0.7992659842331397 -1.8502907904749684
Ni 3.393515647830942 0.530098456514175 12.172488491007732 -0.21052372661830196 1.5887226956853415 1.071190482556426
Ni 7.114347788886801 8.853407285518314 10.354426008463696 0.07992248465825591 -0.6137351801147495 -0.6917871872231699
Ni 8.981109573851315 6.310551113197188 12.478429799752838 0.4208065408703914 -0.281188954344348 -0.7472800780841518
Ni 4.771791844639925 0.5358582700707116 7.439913068880058 -0.23745937466688133 0.41633796357607655 0.699483527426163
Ni 8.12883701680466 8.644503955914262 12.87822371513292 0.6248541728460464 0.543930757727102 -0.022688185626135123
Ni 7.306480632857865 4.334646748156857 9.353767564136692 -0.4257767403914732 -0.20814082820842217 1.1729753145054123
Ni 4.254530365160575 3.5940847228279984 8.681777264115471 -0.35239822749932215 0.9132267894230273 1.9217461182024773
Ni 1.7689756697313745 1.169586090626467 10.45616231934538 1.2355950462191625 -2.726667500949181 -0.13928154334286336
Ni 5.821676160532767 2.3204734142425774 5.631186063965884 -0.12058705225715362 -0.8734603081583667 1.2551182038537545
P 3.2259869325884276 9.00486080889372 9.109318963104228 -0.36245458329405966 -0.46674726926656385 0.18456586910195957
Ni 8.412414896864052 1.3982172220143756 11.261299521415605 0.5332920470663332 -1.7266595520748524 -1.840949201359068
P 3.663901487505735 2.3944897532662197 6.969441151610906 1.2356220428023559 -1.2094551545990009 -2.0540167774451463
Ni 2.6071940221237404 4.877698991058523 3.703070630041906 0.15655627126291105 0.7122544539385863 2.4979293082053817
P 6.552643131892503 0.23839120174413228 6.149310634773278 -0.02765889936784914 0.49178904272654006 -0.586379670919932
P 8.1371805419952 6.606783339795568 10.165580513417705 -0.8933485624418616 -0.07527547280454777 0.09622199314922784
P 1.6166877938369142 9.051343514788577 3.336803780052482 1.7713332408331426 -0.3751015826341088 -0.07906656441586384
Ni 1.4879193883962345 5.492783668105193 1.801752744913237 0.6284760858693499 0.37547567814407595 -0.7394168732859911
Ni 9.040589637876325 0.9437546754691621 1.1253867294587543 0.7873589483829084 -1.0134483906499514 -0.3828380320464181
Ni 7.4211021278088065 3.5018146048041623 11.645177698965552 1.07619307797734 0.30004002561258003 -1.7719824443813674
Ni 6.151477170147755 5.146833301954735 12.237182331218476 -1.6363765501178784 -0.14401751536595198 0.3681423777074563
Ni 4.625019965954767 8.244756393451906 10.93583343666628 0.6074364915902314 -0.31897620039545066 -1.8315186520737878
Ni 8.710816440011971 8.008912748065953 8.603921976445825 -0.0668777356591558 -1.328883667771679 -2.1430435383975155
Ni 3.719061459598755 7.502479310167216 7.336521031777231 0.18979677848359572 0.9220968382191473 1.8214977775026757
Ni 7.318977379476586 2.3786555965712823 2.1417504693694207 0.8396626428826314 0.8512842862819596 0.6703454724096263
Ni 1.9728265313033766 5.402784843049892 11.401787798573931 -4.706524664361778 0.5110944279233713 0.07146972590521239
Ni 7.792537328124594 3.6570968791836718 6.268915995438035 0.07799287173571084 -0.552194540397791 0.9888272496671616
Ni 4.333562089882086 0.37493855383745983 4.973727403651521 0.2182223808141403 0.2972220965478107 0.17120770262749868
Ni 2.4188250350719636 8.118268551563308 5.315285367318336 -0.021017997012563804 0.06599713282641537 -0.9308553011380678
Ni 7.884816716731976 4.099470584786146 0.5539785526678572 0.5224268222170552 1.1427964769291867 -1.1712413625334408
Ni 5.5777671074626225 3.970201567834034 0.8762017872931257 -0.5151063772962419 -1.6635430832303413 -1.9946924286532164
Ni 0.2881696000892533 8.326615646154657 10.5799477861306 0.01329543155732549 0.544454748551372 2.3761466929782302
Ni 0.3147196243039087 0.8211456457358103 8.696797463575153 -1.2131590858131494 1.7328582246863964 0.5787920883806612
Ni 5.947913696665649 0.30526548320467145 12.277887609448063 1.8739361978080498 0.8767649470515675 -0.521932656189456
Ni 6.34669711843932 7.340893038977074 11.947726901191524 0.7584026703598745 -1.2367345591402443 0.143545717935856
Ni 0.9376082785787971 3.357035901581189 0.8835440894608015 -0.8449843122058608 0.6773645840399367 0.2056887671235038
Ni 1.6612885712721275 8.941459288029154 7.255721406773679 2.6098910806873694 -0.526589438235177 2.5998810047495353
Ni 0.09440327929755135 6.775313278060947 3.762188214250306 1.3606583890801147 0.7344114496515997 2.7447991775528857
Ni 2.8311064264872208 3.0663474839427467 2.571069339223762 0.2020725105271552 -0.5103593495295597 -2.2379198161521265
Ni 2.979519198459852 4.44671883263291 13.112101996807322 0.2024293796459417 -1.9183828581571991 1.5565363407607837
Ni 6.630033963326542 8.143280585967839 7.872406186540223 -1.6131679732118993 0.12991578585724722 -0.5123876928134982
Ni 7.691960767244397 5.817152115762784 7.697903211296771 0.3773479554661243 1.355210478591666 -1.298221719911448
P 1.5668676778658406 6.952418506105494 0.04835443671260207 0.5099402597142701 -1.1723898743155874 -0.7832359273534705
Ni 4.91593087759829 2.521246442077625 3.5143475066987087 0.020931607946344598 -0.3762125563101005 -0.9994232800154529
P 0.1674471341073182 4.033352782942883 12.301198491772078 -0.08425247949217748 1.0857141300938977 0.6045321734592426
Ni 2.721713540655686 2.5374050691966388 4.778979328062399 1.5494997456289767 1.7510518648762876 0.7084821313803477
P 3.9098500689557882 2.464649529535123 0.2762615355256426 -0.5723126513039046 0.1701180691077457 0.6224944143646183
P 5.684694018071176 6.79721966697789 1.9116972304657023 -0.8760504374830461 0.38840061373586016 0.2019367562802393
P 9.031309783747734 6.975854541307369 6.086202991407091 -0.7802853293655788 -0.42911428940513835 0.17523816394313046
Ni 5.5614416098397985 6.393977094519052 6.332063502313466 1.725493299680893 -0.2241965961197042 1.8294627979860234
Ni 3.9061232943706803 5.300076047954335 1.582161359540102 -0.13240255683484295 0.4667367277436026 2.7048792014294967
Ni 4.093481787816047 6.434739850366616 13.307054025234436 0.14030792772484868 1.2203052099396274 -1.6992073694011702
Ni 6.063378814719189 4.60402209422524 2.894431928566717 0.8969185391813068 0.7686004368284828 1.602092432124028
Ni 3.949416919526042 5.5954831926172055 10.816811195706507 3.1589946408646625 0.03612168542322167 -0.7241280654477206
Ni 0.5753351959805783 4.183489883454892 5.1876062554442 0.6851190311743749 0.4829976696871553 -2.1992285702295153
Ni 2.81561528138345 7.145450596680427 3.2629784150498673 0.4560779624781758 -0.0845170460074738 -0.4255599963949768
Ni 7.132258556295828 8.744450117113395 1.5773174796378158 -0.5169010073028195 -0.7098427591733001 -0.15547666504548707
Ni 8.996174272112013 9.199431816337132 6.435400842973378 -3.23753567179436 -0.8804521660951675 -0.1411767034830472
Ni 0.5189589233264484 1.9551567990665204 3.1393700164103597 1.1566071575600338 2.0784533132209555 0.21071475958318547
Ni 1.6710412251615152 6.170398431163193 6.623960804046183 -0.8394230160679995 2.5852797098965925 -0.17626300566321904
Ni 8.596148592143306 5.23368012860472 2.4712872673533752 -1.530170192062429 -1.295685840863472 -0.6861878387585214
Ni 4.753649312642271 4.32820369259305 5.12155520180246 -0.34809728613112306 0.8882523788658767 -0.502309996862522
Ni 2.7757146898055747 4.2988808368400715 6.672020436202051 0.8499578541610523 -1.0920562702618417 -0.06185971361927411
Ni 5.53926637400005 1.2023112505404772 1.2986604253241334 -0.7589060923588543 1.4012923605513932 -0.9186955258470823
Ni 2.50598706156248 8.470791761447202 1.258773739621576 0.4501243159979022 -0.5862716845871581 0.893819331430693
Ni 1.5552238249332635 7.022643176459213 8.951124798433218 1.156995394137388 -1.0266749166425544 -0.20880442993435008
Ni 7.778038135460143 2.0076653842656573 13.21295667519387 -1.0505270406698035 -1.336983414060678 2.097570236556065
Ni 4.494758996563335 1.2720260387992182 10.242038724147113 0.2623507385919224 0.3575689730669842 -1.076201305507456
Ni 1.1725155950267014 2.1765661458728385 12.363816648327088 0.6126247206593901 -0.43080916060905805 1.6778528149847942
Ni 2.2563302466944086 2.484729613493691 8.562470416240865 -1.3205481513227904 -0.45784302479839856 -0.11825300480733827
Ni 7.443796516327078 5.454533240398335 4.91218092655432 0.15872833921356533 0.6339615344639533 -0.2100691555793866
Ni 0.6333811007311707 2.345531801564835 6.648520433973717 -1.014801562243736 0.5640732941132479 2.5404828652968767
Ni 4.606886704540658 8.942061875959583 2.7384089345619578 -0.4180408051997962 -1.3638946366292253 -0.6845263918956984
Ni 2.5223681826865754 7.7336320402793755 11.026932679988377 -1.0212671153634219 0.15595103357874435 0.31608653755248145
P 2.1979533821112582 4.59503889877009 9.299236137608027 -0.3139820896149689 0.5879614135847551 -0.25311842136037693
Ni 5.5475357345222305 6.035261134827067 9.120024632982046 0.5693936778848968 0.5357901308978386 -0.5657756215163353
P 8.139924634724533 3.5599875165493216 3.837194651596559 -0.09368971364567735 0.10588471304997249 0.2131835328386522
Ni 1.3604025117341356 8.974583083035602 12.832104416113028 -1.4999193635976877 0.0026235536657761268 -0.4454353951626651
P 3.6230460258227204 6.326987857822553 5.584048854872746 -0.5631849779710236 -1.3332010642001104 -2.0345620111546445
P 8.368787530701068 2.7166054491223655 8.422050741400772 1.70716827611946 0.46300040062962194 -1.147705741305346
P 5.175460863941835 3.6171221229374364 10.63461456317902 1.4854322257251062 0.9857164719523218 -0.4039976968431687
Ni 7.43400678010351 7.949682989796657 4.902113072824401 -0.36593071476811817 0.03854109349799169 -0.11884101610032437
