# total energy = -340897.20195480227 ev
CRYSTAL
PRIMVEC
8.99147184255983 0.00000000000000 0.00000000000000
0.00000000000000 8.99147184255983 0.00000000000000
0.00000000000000 0.00000000000000 13.15992791349425
PRIMCOORD
 96 1
Ni 6.215813358591646 2.131886924994232 11.269583304598886 0.9159056218067709 -0.3903788205081535 1.2799589170465182
Ni 4.540837058101346 0.493879959432112 5.959051994367842 0.10345604900382183 -0.9703402466065676 -0.45236606084422737
Ni 2.512432980584596 1.5164116975477844 4.854973902213806 1.1736116625378306 -0.7514756042227381 -1.5106372642358241
Ni 3.452158659480603 4.38015945931582 4.768828410415017 -0.8834557288081818 0.12038162111456686 -0.36612380461553073
Ni 5.186559596253697 4.484550445432213 2.5981909399543053 -0.3739548706241753 -0.4571352000980966 -0.5635030234320747
Ni 7.363179092818047 5.999433592795693 2.578530187995468 -0.7860829098839622 0.5725209106599688 -0.3645888560282431
Ni 5.223649416902287 4.554432163269992 11.361530993067866 -1.540647180334353 -0.11375588826793313 0.7544624547652038
Ni 5.715213173231593 7.801477370960141 12.257038412573417 -1.2779076909444445 0.5580702824522775 0.6482116166250642
Ni 1.563607932356135 6.772637216319124 0.48840685062513106 1.0254500430965179 -0.38819955346864754 0.5854913547777078
Ni 2.483246663536033 1.4877738602712371 0.25379687601341705 1.1465914251952447 0.8780227307180685 0.833833437795364
Ni 0.386128860351748 9.080487241941936 4.775118843997017 0.8318464892723223 0.20544888319855587 -0.0020913353113899465
Ni 8.503702317101762 2.2330050154218775 1.2680870311941812 0.43925574871451445 0.7595164722493435 -0.15402064932525086
Ni 6.916752524284115 0.7331466172229544 4.829140504951876 -0.6248636859277432 -0.040395115987594946 0.10419781226585278
Ni 1.0141031325699785 7.5733367602167085 2.8444259882912464 -0.8222231072499454 -0.1772431101883012 -0.7164921461690177
Ni 7.667657298060031 3.8358966875146643 3.712073332819911 -0.02089612672271885 -0.2717877156351061 0.3512607714607692
Ni 7.498230997337274 3.9307746966016737 12.531185686422944 1.1628744786259844 -0.5147250826974231 -0.09286824618564651
Ni 7.924157010458167 8.748647988400883 6.855032365283361 -1.0260771351575555 0.769008728010495 0.6148111867877476
Ni 6.725297117964014 0.6207271460502879 0.5372817931947159 0.5618446618930454 -0.3127050226747582 -1.5852460499906504
Ni 1.898486303322454 6.298292128242436 9.210752086942787 0.2836073339778535 0.8051818354969423 -0.32694430620259174
Ni -0.012295837511986927 4.763969419123259 1.3422729665215307 0.8357579085115866 -0.5778793467584048 0.3389883818513194
Ni 6.3863995591601395 2.0156721536286515 6.962141473286317 0.1997898851405656 -0.214448772704321 0.11514017020996944
Ni 3.736262189912962 4.357725737493219 0.438502384549058 -1.0698756203997446 -0.14988631544190315 0.02239790807922594
Ni 5.985730589966977 5.556225971120475 4.530515747768614 0.473007648353979 0.3989233676440549 1.8432457107027287
Ni 5.272922681666958 2.8719300009899063 9.242967630797773 0.12691068048233628 0.16569988543539205 -0.7281999215242491
P 0.39463029681798834 5.4642611988553185 12.47480825988992 -1.1433006702591149 -0.025013234214885955 -1.2508458017306456
P 4.08478062340629 6.174146878861812 12.48387615907152 -0.07837288078294889 -0.19064884207124586 -0.07253004884892669
P 2.4609388223168454 8.586747549467914 1.4049408266365546 -0.244656663746269 -0.5757761843724729 0.4171748576550751
P 6.223456109513172 7.734958463527835 5.745295040858724 -0.350740380180925 0.36347351147687723 0.02232720274229058
P 4.503765220396101 1.0557336464131226 12.689262951600815 0.9737335885588327 -0.6118227935833851 -1.7107868467086536
P 3.8771855254342573 5.976748109766264 8.196555443067414 0.5853653707228048 0.6263127596694439 -1.1602414118785114
P 4.618379509803996 1.221797136730407 3.7575018442974706 0.09009274032303838 -0.580297212171278 1.1158436024894267
P 0.25481201316522933 5.647426468293479 3.586883274430956 0.49070455141310976 -0.8901534525433314 -0.06973037461660249
Ni 1.4197893429563317 1.1242396690850263 2.4882531149632174 0.0359987866921122 0.5993873960335097 0.8921080051665411
Ni 1.8949526549552065 6.388296759683013 4.863856577078955 0.38475581789442126 0.6630306839157678 -0.3745662789559291
Ni 5.891814668348913 5.467048555073757 9.104011629278396 -0.16058184748253637 0.479074166263033 -0.4386104018210317
Ni 8.548075229804983 2.218393873954251 10.15422631037901 0.5631348414593785 1.336830690532898 0.1309352282606971
Ni 2.353733505566995 5.008249721518625 6.902882280082294 0.016479485712261942 0.5588038181841924 0.9072654296332698
Ni 0.5673726522935206 -0.007767732377773679 9.15042650519842 -0.3464996026267 -0.5030162789009273 -0.11764056803431998
Ni 1.36248669398822 0.9887381909821795 11.40811760609683 0.049257194363915166 0.06801236348423126 -0.7977858001431873
Ni 3.9547279771369084 6.762629708347759 1.5094307189413445 0.7693946505950039 1.2436107174347872 -0.36871470527115857
Ni 5.50132404508889 7.758597042554536 7.876138055991793 -0.23504767990159517 0.5831691344024343 0.8281399869550125
Ni 5.271061447030775 3.0690320515202645 4.914824734253872 0.9965174192225676 -1.5813965943375732 -0.759705191221382
Ni 0.7419681500807316 7.447986653631985 6.990119336542111 0.5544450269948644 -1.0700836226454926 0.049302445779553804
Ni 4.98606776090285 4.554710898891836 6.791352065458026 0.3117686269034179 0.20454668309926063 0.7471777481783326
Ni 7.995315517273424 7.067602444531724 9.057741516052303 0.10528564601339287 0.6041915022903723 0.3848355220924211
Ni 4.632433180027935 0.43048918499462824 10.461853329000663 -0.36105358918147495 -0.802937519547456 -0.13084601098100046
Ni 7.992321357206519 7.21505358848717 4.626872853945732 0.310521127649562 -0.3619203080571445 0.46347168383908566
Ni 7.047272727080461 6.111206577155114 6.937598352209373 0.839018067320097 -0.8204796421962773 -0.3290628952074914
Ni 2.3165088128433196 5.313069602684159 2.4497336503187186 -0.5573508877877498 -0.5662775008534183 0.5700922466138182
Ni 2.4140932549037175 5.149191039983265 11.393694386387157 0.09262553404722113 0.2531017091898286 0.6454592506909077
Ni 1.085243656441891 3.339189809388754 3.646681955935322 0.2043736478565061 0.4786581617715369 0.09443841888624381
Ni 3.5169961617101735 2.766433063857809 2.692652643902884 -0.013991172072769452 0.08686934828973426 0.03987755292122809
Ni 1.1721642130988401 3.1377718524556504 8.206714906910042 -0.3717383225888307 0.7182497522900727 -0.43069037564300666
Ni 3.6119820684572526 2.581298662123395 7.056800989611688 -0.2834913772252795 0.3993475996656671 0.13059429998151056
Ni 4.104777656405675 6.775100879557357 5.928428840146032 0.11504195406920832 0.7266577738481098 0.05865200531525383
Ni 0.7765916100495857 7.273866804696243 11.266727613195739 -0.31542422137813425 -0.427849820870418 0.2455874030906545
P 0.23262016193061513 5.612647455864693 8.052191071337097 -0.3143199325703619 -1.1729118082573284 -1.0029454342360986
P 8.522854151763942 1.6408536654935975 7.9521366720082955 -0.7535800521602506 -0.5086685920906981 0.049623576564398406
P 1.7712569791582016 3.012943251227925 10.30540801593133 -0.09982873666387969 0.06952880012875769 0.54358288746938
P 4.103473893013179 6.125188315605674 3.6554198681065455 -1.0979299554337996 0.6773069913291239 0.007182376681052146
P 6.997945513485754 4.063156134034203 10.356100134925903 0.6699361527863494 -0.5164952872239685 -0.9694277620946272
P 6.206363321863968 7.817239420801833 10.09705943263315 0.07766248497948561 -0.6372674589087347 -0.1768031944374052
P 2.3554868425431104 8.365368525422115 5.8534831254623665 0.6138755623473557 -0.0021910941140478395 -0.9294589350111735
P 6.934879331175644 3.8234794651350996 1.5462516945869296 0.4046774965190127 0.6419982887255008 0.3503737408701256
Ni 5.407821731167755 2.7130417050671847 0.5391843886005926 -0.359374144596523 0.4377513962548461 -0.01275035768713288
Ni 1.399747352598585 0.9998966073276097 6.9063170222611445 -0.2037380711550362 0.4246269430577461 0.8520957264396615
Ni 6.868603193478491 0.8073811064973349 9.26590487503403 -0.7546969393735131 -0.8311301799315879 -1.192499757691585
Ni 2.6477816036690123 1.2923891808303043 9.191577773601423 0.6683847491388296 1.027000161192457 0.23114448819244707
Ni 6.464472507691461 1.740299342190179 2.68523018403733 -0.5670449751470622 1.5262438604248296 -0.028606093772466864
Ni 4.10419321074697 6.733218604507386 10.266428187937205 0.42284928233203306 1.0929327593295242 0.5600032378089324
Ni 8.1998355319335 7.145927154269873 0.462197609847295 -0.7244448253571911 -0.35106022541418896 -0.6690781756614284
Ni 7.606946881328085 3.8165650234190354 8.118490586860599 0.8285516205711344 0.21287011536329145 0.6420944479837328
Ni 2.9868410089629904 8.209591278698039 12.40219223551657 1.3977640356831604 -0.09473023909504975 -0.12739096255286447
Ni 0.22255960427638322 4.817828334440848 10.149107465555922 -0.9053085630172152 -0.665722371815318 0.575956418704079
Ni 8.610386128494614 2.466396645621983 5.8034231069263615 0.545090582363158 -0.13051151045971718 -0.2679251473559063
Ni 3.692968253810427 2.609199198722807 11.310510685357249 -0.41316445094410137 0.16940998729712758 0.4832372965017871
Ni 1.1473207768680393 3.35753241160042 12.439474473658947 -0.761278706356089 -0.3809500709950858 0.1846031500977982
Ni 3.014363903752162 8.294156069776824 8.04605888765653 0.773839573740235 -0.9437750945235294 -0.5549628471715474
Ni 5.623329324211487 7.913717911846527 3.535098691628187 -0.2294205635228049 0.13740746624860206 0.21978638286715052
Ni 3.1583803055287576 8.335238103847951 3.5888829777308944 0.5863686151763386 -0.002032199938680371 0.4798547531827994
Ni 3.3198311708781083 4.213979079866794 9.330849375776502 0.3775937529283433 -0.3410123542598837 -0.5327312894668568
Ni 7.1597740206453455 6.145383160981851 11.314392303678218 1.1682894789939686 -0.48284803148316846 -0.12778896932223152
Ni 0.43197367696773903 0.16622623595455466 0.3844411611188413 -0.06049780027474097 -0.8658213035558702 0.21240628835299546
Ni 4.634726005304393 0.496545031635807 1.660559374810797 -1.1274025109716197 -0.9937894787684434 0.10454773940610383
Ni 6.033331441000585 5.639442041448401 0.39821699486810286 -0.2233692151224024 0.1284767394178755 0.13611908645448167
Ni 7.895833874690153 8.649939612381438 11.27076748141814 -0.14277798653189602 0.6011079782690423 0.155694437483248
Ni 0.17168945414269599 4.97736401632398 5.836796752332754 -0.9130897496245308 -0.4897545287950146 -0.08478855450130558
Ni 7.833442052755471 8.765695818691727 2.5511574507832253 0.9453743206898493 -0.7169323190302298 0.0717196371324894
P 8.520399479997382 1.6693746136384036 3.503936049106034 0.01414672381402725 0.1319058197040825 0.8135047535403409
P 1.880170675525805 3.3529737354625206 1.4144160394849143 -0.4334558542032857 -0.15799300370943758 -0.0026225252245116125
P 4.761298952036561 1.0530901537414412 8.132887731302421 -0.3990187555713386 -0.7054425732230755 0.5466975218389617
P 8.350316801842542 1.544123413242076 12.246010372567236 -0.7747631139957689 0.47451534324775696 0.7471440667269197
P 6.268899007345408 7.601812751003153 1.4110208597814218 -0.19150193410016053 0.33694641172062617 -0.040565065906555946
P 1.8399698056785703 3.1963872562879305 5.856378379340875 -0.8990828938224774 0.6302424337411533 0.514176923503437
P 7.029343732565724 3.994910864040798 5.99954508704443 -0.9865667357677589 0.7675930786098909 -0.8323383413070763
P 2.416269191048435 8.288833118546771 10.30284184991603 -0.03893935737767488 0.6151012072243407 -1.289312076126644
