# total energy = -381161.13740869326 ev
CRYSTAL
PRIMVEC
9.24639704685918 0.00000000000000 0.00000000000000
0.00000000000000 9.24639704685918 0.00000000000000
0.00000000000000 0.00000000000000 13.53303671822391
PRIMCOORD
 96 1
Ni 4.781885150606093 5.71235007785421 10.984048313793558 -1.3799910279704557 0.8200633805944652 0.4184231282398794
Ni 5.078981131699298 8.785528807306866 10.171768983356529 2.416917961358321 -0.4690098400484955 2.5928032719671474
Ni 2.2085851342299327 1.2697892033104394 9.171947757064435 0.4713156053635366 0.19473818164927106 -0.34479521834108356
Ni 8.371364194156733 7.737708609695703 13.300322534992466 -1.8845875068743092 -0.5194098897676023 1.0705690469223432
Ni 6.2319328628771 1.6143654328526074 12.214553274930624 1.1825542164430989 -1.6202055967849711 -1.6457361369559074
Ni 1.554199127758664 0.7487538093233167 11.245492962083517 -1.4559367873691507 -3.528921364166051 -1.7251400301065323
Ni 8.182876391891476 -0.12217264318522687 11.484553932584726 0.09853650021501739 0.6472726497505628 -0.9794617492918614
Ni 2.639051145240925 8.473370445546989 2.6788513363653093 0.10563505893301162 -1.4796747544160387 -1.4037323374514534
Ni 5.902455999589491 8.642477799759854 13.229504380587285 0.31970716502420427 -0.10488815346465807 -0.05854530453406047
Ni 8.61720739683658 0.2070249789138419 3.8928459310699592 -0.5177489571254116 0.22541452768720538 2.514302093136451
Ni 1.5320909925996635 2.2138278413128076 12.62633694086058 -0.1005185636420527 2.2892092104547217 3.640028759067544
Ni 9.200349914641977 6.971182300753351 4.52213166832223 0.5620580634554321 1.2651552763747824 -0.9582370355851304
Ni 1.1049721772923762 3.2033772452091958 10.336425122067288 0.9777177700175613 -1.607604877301825 -0.5089537274312848
Ni 4.548284177516592 0.6466208822945525 3.0377197217064182 -0.8382220537813629 1.1347959752222134 -1.0035133909244265
Ni 2.7561937484736228 2.2628337452620775 4.353604987839177 0.24555217897734488 2.0355796537858812 -0.02959262605545226
Ni 5.858572599562466 4.506934290259775 6.593999576930672 0.0012230737738237 -0.07562231462100524 0.31359642414077604
Ni 5.174820036309521 4.771575417982803 8.871257701468384 1.1851003799037203 -0.9766039681280922 -0.5847233662634318
Ni 7.2758140953783785 2.308131844025752 4.718739656407913 0.21919528625037088 2.4978714583842527 -0.23116762812089867
Ni 8.33043964116061 8.577595832210415 8.263732434848983 1.8417228463002988 0.12800674175999244 1.348876308843522
Ni 6.834372611162143 8.79859396622768 2.130587152576336 -0.5089951221921815 0.89803208396046 0.4187697129460208
Ni -0.034063726443228325 8.696236351752507 2.036045517461223 0.8493898974727242 -0.5956140450340065 -2.246857227851072
Ni 4.295515423505047 5.211629942653302 0.4891824810597945 1.694823895621494 -0.409014947552102 -1.4627203859498874
Ni 6.933928567354934 7.424644101032614 4.235664420547834 -0.823654440379833 -0.9045552297909584 -2.9666203314618778
Ni 3.8404447501527326 8.815561104670493 8.526922802887174 -4.052134172619512 0.5719079596663182 -0.7906273347215352
P 8.98217193170104 1.5852115432012777 9.939907257537381 0.17114908147542138 -0.9975170641316756 -0.1567437046833688
Ni 0.4422514685909428 6.337193846001344 2.0858466115500467 -0.9010518446233902 0.11287245722171527 0.9703764991611417
P 5.5398030639679225 6.6373503844921355 6.015245399127978 -0.9852151068358711 0.90600224665013 -0.1980163381799106
Ni 3.1793828450679973 4.069089654465476 12.190627298127016 0.9646416535598934 -1.6856293736064194 0.057459270558733296
P 5.630269811937669 1.5611986502661352 5.984661091865148 -0.6860582551591926 1.7488499721289623 1.9031827533779935
P 8.004180524019102 5.544962553478054 7.872370361270416 0.4111533340513435 -0.6711983073282247 -0.045287925303522006
P 6.82356357310239 6.7842109075914285 1.6421120208848656 1.2163750216472857 -1.5790409496212032 -1.0745524570501237
Ni 6.06013480714551 3.2931320206121324 0.17583225873028305 0.3015878297156741 -0.3292806676452523 1.6484237110903999
Ni 1.2094934486588944 7.4314402028067095 9.142703252722784 1.2122558572725894 0.11321312839058567 0.14876762845642766
Ni 3.715784826182156 8.813027591900285 11.988700782503294 -1.1145289974430612 -0.6582042090614019 1.3148418449666324
Ni 8.379824647385712 3.739178210520204 9.270251751107276 1.1210012354309662 -2.603243750574181 -2.519445070789971
Ni 4.52943077409158 9.05903722972562 6.435121511687442 -0.21376588770468344 -0.4621455088284944 -0.8854269936019395
Ni 8.790743775198825 3.1644314211649838 0.7365393189238855 1.2750008017102945 0.9631995217967284 -1.2764480756797825
Ni 7.891753583241899 1.050270492808625 0.39624694509864145 -0.1954156673322699 -0.12684486024140734 0.0024692874760989733
Ni 4.522958296211488 8.069349129874658 4.4135429069279235 -0.1350255962799868 -1.8842002987382196 -0.0363109186158923
Ni 4.088923175969474 7.595119921997271 0.8759463214244038 0.1336006909080022 1.1593939762765517 -1.0250191262066861
Ni 3.6679069826634167 1.6345410710445518 10.837323712729747 1.218940982602249 1.2994280815147234 -0.12655226870165304
Ni 9.020202362445067 5.668337228269583 10.058943522869853 1.0407964436456012 1.8127665682772651 0.1331108957557772
Ni 6.877331371492013 4.7140350896287835 10.394387086123212 -0.519195716874267 0.6168403014026345 2.2971361786112823
Ni 6.395002319867539 5.237529100570644 12.776797086300903 0.6498926038719129 1.7906103438952 -0.5322186114964964
Ni 2.57685987921021 0.1285360135810547 4.747795534251344 -0.5243803463990001 -0.8792401480649373 1.5836591651195049
Ni 0.5132989336410182 5.811915280443972 6.438084981916828 -0.479900004598438 -0.10651874708954556 -0.1209341511839272
Ni 2.830414576964338 1.3970288720360813 6.896476036421629 0.8479590785634686 -1.0699113587336864 -1.2089201080311374
Ni 1.3246850621305932 7.5323276401634045 0.40808325786193583 2.2151596396374753 0.4251753593620484 0.48344992673322545
Ni 3.9058352695356073 3.194445225734669 1.680396727545611 -0.6646229681035521 -0.10875714950176109 -0.4201174852231668
Ni 1.432118948543153 1.121107140007749 2.8898041847126703 -0.7594077145856212 0.4932301460484408 -0.7728507274644044
Ni 4.662153556221358 1.772229168348057 8.640721908974957 -0.49222715870522327 0.4823206982247888 0.48260686200663977
Ni 0.8004596611882822 4.4789639394208045 12.09405515423695 -0.6900228962338955 1.1893524703118548 0.47261941177662475
Ni 1.3732193998343136 3.51106959723181 6.805358342105084 1.3704056982748658 -0.9359072617396786 -0.4436093976975199
Ni 7.29793147693435 7.97572936053761 6.345370434843295 0.260540424856061 0.2808860783919485 0.45331608346232255
Ni 8.409773727176596 3.3945280098022628 6.527186961693571 -1.061484825232888 1.2130338730891947 1.7329404999875575
Ni 3.652243586193593 5.5371031160522275 5.683266460819865 0.21020362427472183 -0.2608312166236024 0.6507204990898471
P 5.472517033205878 1.048337995841569 1.1156739571472603 -0.11794087288355816 0.5623596538562509 -0.4226225110332077
Ni 2.7199386259481346 6.031323034182128 1.71921032811313 -1.4227639001616077 -0.8862870276093897 2.099859289700558
P 1.7087896387261816 4.3473507249276135 0.48773726921313965 0.07995848010251391 0.37214738510179135 -0.8736320578495406
Ni 4.2525196775872915 1.8716371821893023 12.981321839473635 -1.9853708941419743 0.679432779422875 1.711559720318936
P 3.3812964157359606 3.88303365460374 9.037551377082806 -1.5932421808222497 -2.3349295953099722 -0.9994741878580464
P 0.5644869872755762 0.17425667268632913 13.34120547920222 0.6839844033492994 1.1238667299042193 -0.39471215777618474
P 7.712641627505803 6.785440678388647 11.32436380361123 -0.37974396650212666 0.48068547661421096 0.7386697107073213
Ni 7.7012038344519835 1.1287169247153432 6.771836454524389 0.0353971485523713 -0.7589960809694993 -0.364388824202295
Ni 4.75277749293962 3.2115325673381125 4.7978675477714345 0.7812924304738545 -0.8406977690153651 -0.9037838988425724
Ni 6.101799071899361 9.033665116435659 8.107668972843896 0.0695308570112867 -0.059201192950504494 0.11494553770066011
Ni 5.890768553817439 2.8262536983271356 2.5649838069399378 1.6337712512845477 -0.4816509258512738 0.7631774660406985
Ni 3.9141385340160686 3.2714862053017097 6.871141833359251 -0.36171282003202865 1.093102195027853 1.4352378642589025
Ni 7.931707264556011 4.75905579648331 2.3708390590074795 -0.8919293134968316 0.14872032015826 0.9205418350272018
Ni 8.636920715179947 5.456317345711704 0.12798122976276108 -0.16043375194044626 -0.05674476099021195 0.08244062309441931
Ni 6.330684382533365 0.35663075727399113 4.466578390677399 -0.241057633541101 -1.0712195360221488 -0.42764387550719896
Ni 2.1796069261210627 5.188319775887999 10.087701666730801 0.6457292165228428 1.962366719937317 1.6061336920729372
Ni 8.300416590193953 2.323379152631855 2.670068183882024 0.706699585558628 -0.7431668272467266 0.7648471404336377
Ni 1.8890111620988643 7.9486096782200235 6.869667033042287 0.45727249700690925 -0.23958156321620674 -0.4007377951449743
Ni 1.7206712588346367 3.43030231968523 2.3637073130233155 -0.7998529670848612 -1.7094226193712752 -1.0237508010172238
Ni 1.4508059168226761 4.984834317734871 3.791564597202276 -1.2327912582217802 0.9063012659477875 2.0784970219746977
Ni 2.5139751334066283 6.2348824635110285 12.312952506862272 3.909004716285468 -1.0841598982329006 1.8159177123117372
Ni 5.064991333081328 6.481391406772827 2.7594669730015555 -1.761946400301604 0.9045742559543517 -1.4858562006364022
Ni 4.268210813248029 6.66516354658259 8.076651934202797 -0.05949327026962657 -0.15478760939826247 -1.0238240774573206
Ni 7.516608765311752 5.714116139675777 5.652099630547825 1.4784036010130992 -1.2509959541552647 -0.11163524238050451
Ni 2.093846594209841 5.318989857890091 7.858904833360733 1.5399018175278965 1.263241090071205 0.07701559542410606
Ni 1.0505386383208004 7.424699579414443 11.651944230879973 -3.413911034665727 2.247246492869691 -2.460523099642782
Ni 0.8120555676303159 1.161338213231008 7.521810788247953 -3.4269948644328787 -0.24792505008489563 0.18779800288601206
Ni 8.097337973507571 2.941251137462432 11.985966622918802 0.431574835130489 0.399935353848337 -0.9254253883717481
Ni 2.8950746309864597 0.58629831309179 0.7654620486509262 -0.7780901214864729 -0.20185782341318786 0.21305729167343307
Ni 2.3352792655342527 6.99013741454505 4.4076964101228056 -0.18503689520110714 0.46083964553287726 0.39832790015190106
Ni 6.789490600262189 1.170825016523829 9.920405681684661 0.5757756701518406 0.9513732185857615 -0.4689095670252053
Ni 6.682398830537577 6.74024428999166 9.14765654758045 0.1725495613673738 0.9767237815354084 0.27184865078002857
P 3.2335944705122555 7.4559986331631745 10.292550968437233 -0.4839834306391923 -0.6189498915464695 0.23548888120407185
Ni 6.643804369578285 2.788038339643677 8.059572914356629 -0.5671856144899845 0.08475821548400242 -0.3400703020615885
P 0.21879009442045527 8.959888114999579 5.942288553103276 -0.3663258933240078 -0.3548328050827438 -0.09570802962728679
Ni 5.891693193514595 4.967580540985939 3.9994180532847694 1.5794793227102024 -0.8777964736398753 0.7944855321253607
P 8.953933435349894 4.098123340956176 4.657056017570937 -0.47428471529418964 -0.22516667334245738 -1.1946875093715232
P 5.558018466001896 3.0871500352766827 10.72648807687135 -0.3823695770504318 -0.8713838852453123 0.11070501725675128
P 3.5575419884108723 4.77546815110783 3.6064729965446727 0.9774449759721487 -0.30246303323177587 -1.0106659428088078
Ni 0.611626043676288 1.8713505438831841 5.181001252685008 -0.4793325621307422 0.08891697484738235 -0.3620745742468216
