# total energy = -340894.93631702213 ev
CRYSTAL
PRIMVEC
9.02848111783492 0.00000000000000 0.00000000000000
0.00000000000000 9.02848111783492 0.00000000000000
0.00000000000000 0.00000000000000 13.21409472881281
PRIMCOORD
 96 1
Ni 6.268609971579722 1.9744837109015754 11.485586056457272 0.9383505810738484 0.7592135962969441 -0.5449080340387067
Ni 4.6622625843801595 0.34949973266864215 6.02458366562804 -0.3305996435669919 -0.43407934671989756 0.050262752810294076
Ni 2.8355841403167363 1.7596058567235764 4.761210224836621 1.0816397029142082 -1.830079605634416 0.13727942531117002
Ni 3.249693490635319 4.284303273058581 4.921444098988279 0.7972376409492012 0.8230255485465826 -1.903746339190947
Ni 5.114905492750495 4.576817037659967 2.8543895639498182 -0.502551680559683 0.08093704196569933 -0.136693470900713
Ni 7.283113326219184 6.131169401237215 2.7080306598107975 -0.11354017271270123 -0.013654614668957128 -1.2228328614574875
Ni 5.031726094828565 4.587407446187311 11.589699793895274 -0.8744617528396874 -0.6085999157707133 0.4302910833220589
Ni 5.459188568942496 7.956069234490845 12.358072303599489 0.4560687065067952 -0.7024292403180483 1.0619597079867775
Ni 1.8152122728530846 6.346263938965644 0.46258416909451155 -0.5123997769983563 1.79029024155162 -1.1690908918493415
Ni 2.5901539055278824 1.7567077142365537 0.17876302625793958 1.2104738256715024 -0.13546654047214735 0.9417189833254491
Ni 0.722833753036633 0.01052359776596116 4.646115145632371 -0.7162820870407406 0.5099325464047864 -0.14398023437011334
Ni 8.53947163706538 2.437283660698392 1.5560253411562046 0.6550162982517236 0.40066966091120026 -0.41090856503038914
Ni 6.930641417517123 0.45502281603257566 4.841948321423687 -0.3855574878601102 0.6106966503987419 -0.06166251000680348
Ni 0.7939185974519716 7.482082996402998 2.586857607016942 0.5474277151367669 -0.010337634480582196 -0.5504083950316456
Ni 7.610377715221038 3.9436496463363087 3.886939046947726 -0.19949806493175964 -0.4097014320961654 -1.0907313808028314
Ni 7.450564568296468 3.711139168241939 12.85675956358841 0.23645998686808956 -0.10706073563594466 -1.6573354117577328
Ni 8.077159225257034 8.551443403226726 6.957128273013004 0.34296022201487386 0.5057347062733548 0.41130091537280133
Ni 6.98311495064664 0.8781678704041564 0.3535580349986006 -1.2000791127007395 -1.1521514357815255 0.9296337700261409
Ni 1.882564743112239 6.435600761112338 9.188856889290715 -0.22761487777263378 -0.1144984228609125 -0.15554582772052566
Ni 9.035252628934138 4.938714680805804 1.1999763481757675 -0.4237283425028767 -0.7303185105291486 0.6670408335164254
Ni 6.621271478388412 1.8258929661931087 6.932008329581095 -1.4501865151489348 0.314963993912264 0.1487444885279761
Ni 3.2104647395259325 4.4443872744211905 0.36864462719740043 0.6041369949033532 -1.5789859280135514 0.5350748499983689
Ni 6.100400337075928 5.730693057633286 4.804631802646859 -0.3004349470581536 -0.16556335985752776 0.5033564358491653
Ni 5.381462373706429 2.89479292047217 9.309964034171315 0.5700709064575795 -0.6887394015357816 -0.24549972847285462
P -0.10564135646854406 5.656533112498072 12.410004127852927 0.6274790120634032 -0.37174655011894686 -0.8913423306451101
P 3.83571415277757 6.200092827236997 12.550416874228853 1.0089633582954043 1.0336693456825163 0.006561712377917733
P 2.4290677427445266 8.592541049958585 1.3692576634060714 0.4017119861327856 -0.45751623758659915 0.11905955986903366
P 6.4111064914322995 7.585197280964633 5.935058148222845 -0.7688709168810501 0.7032489080058663 -0.8149648830256351
P 4.674062809397413 1.0974209266046202 12.649906223561393 -0.45475281590884903 0.0841385796221325 0.6332102581202256
P 3.887131353598734 6.056828886476641 8.295240384588913 0.7679178089391614 0.4072462856874535 -0.8106873386962038
P 4.8543435233565 1.0087702690342935 3.8039411214992835 -0.5342757511358411 0.5113589944386676 0.5480517218740109
P 0.2697078209184607 5.493848908530284 3.3233974974665004 -0.3549284501203436 0.5182122699150753 1.8278725706807681
Ni 1.3885713905345407 1.1858007297369073 2.503503056558414 0.41494339722139506 -0.6053330720939832 -0.01710272111855764
Ni 1.8821945753802514 6.502456664901753 4.661959227409555 0.4135958820545651 0.3180063802830136 -0.014363467810523651
Ni 5.8040314109731135 5.348084078458696 9.257279234580128 -0.15318066992245877 1.1597487885128093 -0.5319851553294516
Ni 8.64037394371636 2.457200490375562 10.136321061971024 0.008587741669011014 -0.43699934858017 0.1425350172831545
Ni 2.491301064124735 5.068833152839977 6.891190565768543 -1.458553141946075 0.2819890816481402 1.282048195475379
Ni 0.5055308487900538 8.911770090631933 9.272700783433969 -0.275628429537435 0.4855728866134993 -0.8144943711471198
Ni 1.3242524899814287 1.1146924112702719 11.29287131809592 0.09477497629005613 0.15954055070221557 0.3144556868172778
Ni 4.035198446393657 6.903853913595016 1.399636697176581 0.5650423428947365 0.21895488810479063 0.47200054724570323
Ni 5.742439111762932 7.733562313641399 8.056104806940098 -1.1217455697961585 0.7856393945886404 -0.500946283745776
Ni 5.169789630378565 2.980888517843657 4.978899548081469 0.9424818296334027 -0.793974139706581 -0.18567709988826733
Ni 1.0916517270743789 7.236092995775529 6.909094946971081 -0.9571101210695387 0.10663110429769376 0.04497450782816125
Ni 5.087296397033002 4.536775723236462 7.019908720358052 -0.49200424406113974 -0.10710341594842199 0.24201434102741548
Ni 8.090756118046617 7.028934493081655 9.135313481130943 0.369403503808067 0.050794971164680264 1.1249249959654046
Ni 4.724044481696968 0.3728049513656871 10.588851114325509 -0.7429760513921592 0.13824281766570387 -1.9456658622428686
Ni 8.137839647859149 7.322215678590819 4.549890495126334 0.35466748314947305 -0.5567063122252155 0.9494281790442489
Ni 7.316924988567782 6.066651874096207 7.226088535682476 -0.018185412659775132 -1.4310896464184837 -1.4358595570033013
Ni 2.2570842030707157 5.206147324444733 2.5311861858223037 0.8609693747802076 -0.013879843305885773 0.6848506080043366
Ni 2.4207434830154466 5.1613660573555356 11.367187455957069 -1.0935788775539554 -0.18007543743077373 -0.5276780433136654
Ni 1.1885815019674457 3.0889774955839515 3.801457386302461 -1.4449368367142212 1.6984841180819006 -0.2627811412611216
Ni 3.6534832868645983 2.684077196158711 2.502445821401933 -0.19675804029277727 -0.3876092281828163 0.2593664591526178
Ni 1.2700454884484578 3.2428047594278486 8.299918040733855 -1.5554305092911147 1.1362694744439463 -1.5254172507584762
Ni 3.5094970676028026 2.649371714164584 7.061612178182993 0.4251601898533969 -0.06275060086465967 0.08574063400192976
Ni 4.1448944937996535 6.720043063460147 6.004986444187755 0.12803219568128918 0.6637194824526762 -0.31644160689905504
Ni 0.9438825741612985 7.320897520325694 11.316141325716018 -0.6940921812072627 -0.47673754771005633 0.5930082319800433
P 0.37152110132937993 5.411617501141493 7.86077451755541 -0.3518503254156521 -0.2978859553840547 0.7583751595560488
P 8.479748233477672 1.511611533254615 7.883991257136028 0.31328814887173784 0.19114172254726436 1.3524843379097546
P 1.8002069369856966 3.3161431127676755 10.367105294446956 -0.6712726122095858 -0.4059090549332686 1.458626932606804
P 3.978373185292972 6.322997542738053 3.7026424645206393 -0.7183842209854079 -0.9600126394283143 0.34404856998304617
P 6.9566163581251095 3.9304500067225168 10.47210382304922 -0.1570391244366005 -1.1175886102049912 -0.4966630829893898
P 6.181322614680861 7.616083715382404 10.113909662919509 1.056791790632593 0.21900013952042927 1.58013032603064
P 2.371131978447879 8.600377771699193 5.849959295183343 2.012425070046289 -0.3740458876760848 -0.6022330930124209
P 6.736158902523497 3.903825015463235 1.6144847573663954 0.7687906984624179 0.22453418196478103 1.429812579478273
Ni 5.140022727638025 2.980256524154899 0.5175829684346845 -0.3099711686833629 -0.5589668261246179 -0.36458062849812695
Ni 1.3860524442607733 1.0771610146392658 7.038117361379321 -0.06971854754206057 0.30743760362823186 -0.1982269115288199
Ni 6.9350382878946295 0.7128753381980477 9.353306161346396 -0.37494114579684457 -0.3017724349226545 -0.7672261821887755
Ni 2.6451644418937037 1.6636601862887193 9.223980389967553 1.363466290842555 -2.392638777095983 -0.11991188056699993
Ni 6.4990348705011876 1.8745293947837338 2.6892134991520664 -1.002198271657429 0.6609133804624489 0.011096624133793791
Ni 4.022784284650181 7.0223978726436345 10.413975752101564 0.29661171665732144 -0.6473479830731883 -0.35786182171705466
Ni 8.315402788956574 7.406261810714475 13.507183994007692 -0.8646028577677368 -0.6643283196812687 0.4463396521444894
Ni 7.723775439946906 3.754205023890218 8.23358398316173 0.018862641232457837 0.08722570318788848 -0.3663909422339884
Ni 2.9481602732472183 8.503899420869526 12.28806455699942 0.5618186937511163 -0.40856526160919315 1.1994113972097538
Ni 0.021429100289558013 4.8951522586877845 10.219252176658083 0.5220974639020943 0.23967258026811628 0.20162873812151727
Ni 8.551840656402517 2.585206297793028 5.668278263779592 0.8254963786845784 -0.7302496049644263 0.9687201945046412
Ni 3.7040518104465714 2.63640681506376 11.25238309384965 -0.2705083347020502 -0.23664587762665049 0.6805890045145053
Ni 0.8395340962103297 3.26115063336439 12.58540765623105 0.20644364301165735 0.6696361050474274 -0.42401476339504396
Ni 3.221244746159905 8.123944815187723 7.859585466572415 0.09281605279147241 1.2813277723695868 1.050697504809397
Ni 5.54624118532839 7.826582756145431 3.485375674199132 0.1749625416842406 0.30273042796054955 0.2542386510077493
Ni 3.0248030507311277 8.534713627437153 3.5341231531093538 0.6515918459512069 -0.262462067358806 0.3317658959609512
Ni 3.5021930262570042 4.190750150159739 9.252667486348441 -0.6843898663178343 0.2934433462316688 -0.21086465489748846
Ni 6.924465936329822 5.829690354736721 11.351515818172105 1.689911288811225 2.308118131544083 0.7336835703466396
Ni 0.6656211700895507 9.208689754092095 0.3874157426016642 -0.6573102364922228 0.47282869957395346 -0.752241535854485
Ni 4.7400610074663705 0.27223489282536917 1.645379317417307 -0.687230421090423 0.7850177018442416 -0.839925923846347
Ni 6.300254798424002 5.731812589310515 0.4834002355059735 -0.9215504787973741 0.5152940678270158 -0.19662742825218396
Ni 7.884798403361386 8.510851351445874 11.355136239160565 -0.49561715822337865 0.49270049879721595 -0.07693100613009976
Ni 0.0018842440406280838 5.097507609347091 5.545096373903609 0.23608332025496115 -0.21085642736737234 0.5620110122675805
Ni 7.948268626675307 8.82618911669272 2.554073385836641 -0.33943832490454445 0.3444913139474196 -0.5066978415175726
P 8.434127317630553 1.6573402494011311 3.675447776093347 0.4425555025117088 -0.1924912945966233 -0.14915509370283345
P 1.6870981236604037 3.3155291760414527 1.6096752853949408 0.04170380749668946 -1.0193796685327217 -1.1444815779410933
P 4.756682441480727 1.1742533021951567 8.196584364077408 0.17652911484041212 -1.0858696818351556 -0.2792493141194739
P 8.358513787011194 1.532006872438989 12.185337594284182 1.0943887750497603 0.3634588561888579 -0.21230627244002145
P 6.368410803516007 7.810909312664212 1.31033869749934 0.19027474656127877 -0.42498252662495195 0.19578667751844347
P 1.6870439527727956 3.1570612728258123 5.924156257091755 -0.2487408611179716 0.35232392261796097 1.0409129146188074
P 6.911844119517181 4.051088573425308 6.083583887866182 0.3326195022104981 -0.3024846304983307 -0.5677538282886286
P 2.3895952226409047 8.497001661180787 10.192546831915516 0.48560451118238307 0.7894423132744985 -1.225031154660387
