# total energy = -340885.8913063595 ev
CRYSTAL
PRIMVEC
9.15142276343830 0.00000000000000 0.00000000000000

0.00000000000000 9.15142276343830 0.00000000000000

0.00000000000000 0.00000000000000 13.39403225428210

PRIMCOORD
 96 1
Ni 6.680703436838558 2.324214326173052 11.597129678294971 -0.6673259688570121 0.39829344736953987 0.7274383607678763
Ni 5.144206987525139 0.6180697144283377 6.096709045548922 -1.161130499351684 -0.034354823330785995 0.9396065649681367
Ni 2.8475567471030656 1.5464440459971218 5.181401115585465 -0.36801870764539846 0.15740962040214182 -1.1637586810031506
Ni 3.543229612514047 4.562643214155642 5.140508897534445 -0.6825152750029406 0.24119313067770073 -1.1377329463633503
Ni 3.6064018847381516 2.9440218958085977 2.7115016278240582 -0.43943161217074644 -0.6512434614728525 0.21918320206551284
Ni 4.977889027884276 4.644594206154317 2.8654660817028876 1.0935166568574521 2.5534443105535507 0.7856913308724985
Ni 5.380066609723003 3.496301115923403 0.4142400723527927 2.054312454308694 -1.3336250391114064 -0.0706487726658138
Ni 5.958061328164584 8.413534512878899 12.603235280766889 -0.8941970264850858 0.3663395201707626 0.4374325794628467
Ni 2.7346373400375534 5.708337300285203 11.722805253729769 -2.0262396073318785 -1.9657014407375049 0.5956986343280127
Ni 1.1735510174130859 7.75441243049893 11.7181975123036 -0.3531603024763273 -0.022805427930289758 0.07106272027478083
Ni 0.6030577203161515 0.5836759217729917 4.866788923689711 -0.4803196086343599 -0.6996138823564402 0.04440320870572353
Ni -0.06718242573541916 2.323720149336879 1.423236609316321 -0.21224610862604737 0.31906593189577953 -0.25784179497797527
Ni 1.9196116172679205 1.2603248092758939 2.735597324298934 -0.6816855800127938 -0.5181024838100883 -0.27353143779909017
Ni 1.9348121306916837 6.6653015921111685 0.5325762066281334 0.7504271083535656 0.911140853428276 0.5969602746492557
Ni 7.778956546695518 4.3206612900429695 3.9123568305779868 0.28936429106628875 -0.3898370890720706 -0.5230112339656153
Ni 7.873344322404546 4.313340151729297 12.791448019677079 -0.8143655588787394 0.09929394720633222 1.1772379464365081
Ni 8.12880629243727 0.037851200223977984 7.4489040740962285 0.12396316781823812 0.6943279513671526 -0.3048395038837524
Ni 7.005048166980051 1.604326795789598 0.5275712934484489 -0.01333348388411252 -1.0217337705871952 -0.06205691723174473
Ni 1.8053927081517316 7.21699512116088 9.329051095284296 1.102027779652257 -0.26169664994769126 0.43590894372946865
Ni 9.066964410219986 5.547080077503666 1.5798934118100039 -0.6957986223754082 -1.7340221630875106 -0.08046935830066142
Ni 6.792295887584717 2.4033192256522873 7.192528792058875 0.23590334303367114 0.43368596793622083 0.36593225743001495
Ni 3.7524128369814647 4.778415463105366 0.7854162940022723 -2.4621912313738243 1.6903095526909082 -0.05154393351556285
Ni 6.201370208596611 6.19116637207193 5.033825270027604 -1.3069146196997554 -1.2193762703674549 -0.2498148109084407
Ni 5.488446911034037 3.3419989745398553 9.583845011445895 1.2991966822302077 -0.5536950362027173 -0.33196387090437024
P 0.2553558135271747 5.9369764498212065 12.821170010946012 0.06794320080919267 0.2827943511582549 -0.774153505436228
P 4.115550448762531 6.770442289718403 13.127799416652996 0.5554963510775143 -0.51828168970043 -0.03512049785221693
P 2.4688434135596595 8.811996617023437 1.3831616133295648 1.5700420885567026 -0.8994407913825284 1.7178668934838868
P 6.635092745144376 8.059941835174284 5.829698894968669 0.6189501486567857 1.3851098372542596 1.2046441063636026
P 4.946316618906561 1.4618025356681712 12.807159182498221 0.4679343475961296 1.0912083204392495 -1.4630296896601902
P 3.9461576110299252 6.8113583014689425 8.465898954667445 0.21790690645625052 -1.4572143685299936 0.3768486472322026
P 4.725657510132461 1.5408799808787303 4.060815788444935 0.17423106283485476 -1.1162472656857485 0.03524622479680381
P 0.3531222945679623 5.732579419526353 3.9190273027240323 0.5456968484885892 0.9183628250980119 -1.4630744268551965
Ni 0.5974277649529369 7.572628566170432 2.5638727040134226 0.6072994517917347 0.7813312541315899 0.3986608580112876
Ni 2.0151433208384595 6.5321117833396745 5.39100439036363 0.5511961810402636 0.5206337348723743 -0.849287310456589
Ni 6.107540669684 5.9058616119880964 8.992311677977755 -0.3189036952863024 0.027114339718288787 1.5999776997738704
Ni 8.970581624320484 3.0307590819798373 10.804269616912272 -0.0061202539651249435 -0.19596022698183024 -1.388495208786725
Ni 2.565217048036271 4.95821346866628 7.257958720310459 0.017095779140022173 1.722478938334601 1.4655421716693986
Ni 0.4050630254766037 0.5344055760642624 10.06736959137242 0.7691555380010044 0.15595489023348624 -1.0479294551459566
Ni 2.0504861160477152 1.6802927572168462 11.569885892345216 -0.7091259356119336 -0.2821682875384817 -0.045176339426322196
Ni 4.273906670487276 7.200220562999678 1.8904734867795026 -0.44562797078944544 0.4464131856949021 0.365692373505067
Ni 5.959543858673103 8.047733837036233 8.006550603737246 -0.5133634264632062 0.9562359459947015 -0.15584690390071224
Ni 7.134723829360982 1.001769658305644 5.056166638734066 0.7091819856608496 1.2178261522715157 0.2533796454415636
Ni 0.6998504899612206 7.48959770627049 7.182429281755163 0.1422084871816712 0.9509695553894396 -0.31360979387721477
Ni 5.028102885293179 4.64617740231465 7.171647075303701 1.089255310477937 0.7749016964561622 0.3338914269443862
Ni 8.451494615035294 7.543096924497655 9.365348383901196 -0.2435958265819224 0.7948989655136955 -0.5927164117712372
Ni 4.741910437188815 0.37607223289674835 10.394894440968915 0.8054263474075807 0.7931225903395631 -0.1803844840307603
Ni 8.624895775994634 7.39751608913027 4.988634628644169 -0.0760779141011851 0.24426765583796642 0.24380022928324468
Ni 7.640394852686367 6.368319616417029 7.161092739282252 -0.3544581953521444 -0.36983107826378886 0.2182025833197984
Ni 2.3263466077069093 5.617774819345069 2.8412898527065615 -0.32879935713345954 -0.7113890206144974 0.1584131219659917
Ni 3.898121792269339 4.886722553033264 9.670183195579039 -1.584685035280858 1.2378558172288812 -0.5480242110701852
Ni 0.9970383726704329 3.3409008037928043 3.9413814834225427 1.2932438070808825 1.2884677258484778 1.8957376099538579
Ni 0.9661706232554096 0.3304798440483505 0.18296348273928809 -0.30855114840738473 0.6886085323848721 -0.8420599394702144
Ni 1.1460052345078917 3.6225358432969075 8.701620390379638 1.00793491703089 0.015606081968373122 -0.1270592902450586
Ni 5.434654847274326 3.356732765396122 5.143080447367123 1.1966104374258488 -0.9317310188748018 -0.3524203389865092
Ni 4.1474614603872535 7.277742266318581 6.4171479484000695 0.24449648401932086 -0.027833991493132707 -1.493521430491144
Ni 8.390408867230585 7.914672148185229 0.34399924108683666 0.2024427493823804 -2.0323578044144743 0.9723318231152996
P 0.4509290418694751 5.700485379443788 8.390195639077199 -0.25226970020683653 0.13086632269597462 -0.4010126460729158
P 8.857158888995906 2.0729071021333385 8.515309317146423 -1.6986080452542747 -1.5272972413900086 -0.2153617714368936
P 2.177562774327292 3.7244003315087735 10.677923242179483 -0.21343087296276791 0.21580657228379607 0.26540135249278807
P 3.95808191505832 6.545985340444084 4.141649391708486 0.9784361362408247 -0.6187166924897408 -0.19221515811710121
P 7.058263691097561 4.545264662083561 10.782503872705723 -0.4378005043252267 -0.7979292676995872 -0.578088120335101
P 6.49467331228813 7.910050679624724 10.16624430972544 -0.6816403285971552 1.640948228648961 0.9400081712819296
P 2.24302290227442 8.808519076324442 6.168166100917237 0.18258097746144683 -1.022781238015103 0.038376285785353265
P 6.9649466318669075 4.362648018271883 1.796072899078426 -0.010203165785246944 0.7136760168764612 -0.7946804217449862
Ni 2.989888827343758 2.2845703622045135 0.2885132489497992 -0.18994256003284063 -0.4391693596482953 1.5561383339914168
Ni 1.5923475832238507 1.2472382745402033 7.565418160073754 -1.130264405900447 0.7888357900387512 -0.3850882615331755
Ni 7.053569011153917 1.158176626954373 9.667169632020673 0.36152744349409993 -0.7074431485928719 -1.4916756355316567
Ni 3.1628232657356037 2.123413805074789 9.415187948113815 0.01184970024973443 -0.12105293614997861 -0.14795336008524843
Ni 6.217915981185512 2.5521671189921493 2.8470223040061673 1.1547634194830758 -0.7958371610572488 -0.2969117643962435
Ni 4.098144442421774 7.273093343489398 10.943352942026273 0.4417312068382005 1.1434788477081919 -1.5071727027259914
Ni 7.237567519822301 6.61484979770707 11.687458797951358 0.43605266839618445 0.19198941525954033 0.6334339440952576
Ni 7.902143850245957 4.175977294119009 8.791601755966123 -0.34811811206672955 0.03517037725354588 -0.8790347169223506
Ni 3.4311246820859305 9.011195639115584 12.660588163173912 -0.4497725890854383 -0.567640699749532 0.263999587049255
Ni -0.11963838175288533 5.676206654511071 10.58001308379929 1.5055408235495231 -1.5211109100736382 0.3389300178095582
Ni 8.930269606480822 2.6450174556553057 5.912018689309895 -0.7336501460055429 -0.021431687511214704 0.7372782296764334
Ni 4.058793323985783 3.2941095785455428 11.757803955438282 0.022125885364761896 -0.3351924051439969 -0.4195497856451549
Ni 1.0411573824332039 3.703196484667799 12.728510023879013 1.3376979236291993 0.5522842718981198 0.9224480509109791
Ni 3.501069007250183 9.007699795570806 8.05735472792269 0.21657790323218185 -0.009406123805248317 0.7858345413185821
Ni 5.611249854823009 8.399853135655222 3.865530829923735 -1.3280439454792032 0.31875919928863816 -0.35316827289612723
Ni 2.6945632591930866 8.355798185852697 3.9939527473684495 0.5336360606693132 0.7906695008133802 -0.6376112154013986
Ni 3.746729803365476 2.6602362719248527 6.997591587607575 0.2362974931482963 0.17829186316778972 0.8124120346967945
Ni 5.236993264228051 5.390188083441656 11.698253816394867 0.35563576060001334 -1.179237750475356 0.6154948431183335
Ni 7.893880115374398 8.93910072957169 3.357147324853134 0.5527223878768028 0.26044118027403534 -2.149117512505737
Ni 4.903881470955935 0.5652852223290454 1.295788403267325 -0.8624729559089277 -0.41552163832236827 1.7915048306850114
Ni 6.224184705866594 6.143020736236638 0.6504877148812812 -0.2305395076185965 0.157082061859394 -0.9466215628333889
Ni 8.168312985062425 -0.15603176031015317 11.831350280652861 -0.47475085629733077 1.1604838669066206 -1.4691388878817215
Ni 0.25615473274565426 5.191794386564013 5.975091211024477 -0.760711263888393 -1.6285416274544922 0.9887022940535231
Ni 7.070544900618747 6.499935380451083 2.839132862330896 0.32560964655156827 0.7054729122403786 -0.24833745503196586
P 8.604030531800667 2.027031019175286 3.5456144733197257 -2.152728626895763 -1.9037129148498504 0.6430552692351054
P 1.5922835232636061 3.4538751193956694 2.0026223440375004 2.8200193716394657 1.2636156998018044 -3.2781097365619796
P 5.115306794031915 1.5442019473885595 8.369194038682139 0.16870936168567718 -0.7853676289844925 0.22208366354175946
P 8.77944500579627 1.8300008843085644 12.559825506278253 -0.16784315703063998 0.13631654717726846 0.32893382582879477
P 6.7642193221517815 8.572037157369916 1.4545253241843803 -0.954579384227885 -0.7339597068261619 1.275741793641377
P 1.786330294267506 3.373406657905512 6.167858613108062 0.29593011720926454 -0.8965531854220882 -0.09890288241550063
P 7.195233037523487 4.45024543819498 5.986034482518839 -0.394490785793998 -0.7538317631597404 1.950037508948003
P 2.5945748126740993 8.950777945181999 10.415387222251175 -0.1198604585037742 1.1871413215931488 -0.07773293320610483
