# total energy = -340854.55376130895 ev
CRYSTAL
PRIMVEC
9.34815485353586 0.00000000000000 0.00000000000000
0.00000000000000 9.34815485353586 0.00000000000000
0.00000000000000 0.00000000000000 13.68196955411855
PRIMCOORD
 96 1
Ni 1.9975323656095603 7.8920486246513635 2.7249964063774788 -0.8063195486458113 0.7947467562065473 -0.8401622082268693
Ni 4.758902441433164 6.824685683585041 1.8571361713295378 -1.1005977320739497 1.8988558438678653 -1.4129757104265923
Ni 0.1093911700055527 1.9221581952821114 6.547642839824492 -2.323977724284159 2.3847364915297704 -0.41345010050532016
Ni 8.201070570392957 3.64205971820844 13.506908295913822 1.3504482813163323 -0.15044527326916668 0.45509220152613883
Ni 6.07930123049941 6.834725601597155 3.562456442751866 1.1361316633145013 0.4144618295992862 2.295437193642305
Ni 2.1048304838060696 1.7992393107930105 4.85497810006399 -0.8486201091862352 -0.07590359330684991 0.45717813752089004
Ni 4.229114477279933 4.205173853416781 7.001447133972071 -0.43929457237224995 0.7622788654858291 -0.44290054455595335
Ni 3.6664864461094226 2.203182418075583 8.35827381178097 0.7614658826662305 0.9876864511944989 0.07618718598553975
Ni 0.9953073656125245 7.3352631900893925 5.352769200742485 0.36224709526894383 -2.9567807196636364 -1.3010100812898626
Ni 6.953746305629039 7.1502632110765925 8.41371304248008 -1.1471149017988824 1.1688954880090836 0.11169232087068505
Ni 4.991260171516143 0.6083517248212131 4.990402010926281 -0.6950100650358417 0.5909189535511823 1.1699596676075399
Ni 8.88975846598932 0.9565312204409685 4.459172561337791 0.311590963674973 0.3046075903786044 -0.9872604194006739
Ni 5.384920308767686 7.883999863563439 6.163877724189172 1.0447803679940137 -1.398388813751353 -0.44172400774934895
Ni 7.140887012039207 0.8361157717466945 9.100863166649075 0.6326847246340588 -0.6419563797439718 -0.2754168277472612
Ni 6.466511141095125 4.954811716833429 6.903785093510094 0.8337912717035189 2.4710042016797633 3.0764066935591017
Ni 4.778253121400647 3.5905233420438334 13.136797094848795 -3.8153769662259776 -0.021781614651465712 1.3074062146241936
Ni 4.952474678190013 4.660840299955434 2.159288158274946 -0.060777536298688886 -2.039339892159262 1.242022289901745
Ni 4.730175562428296 6.556384299166325 8.197209782554035 -0.5290918929420565 -0.5342145588806025 -0.011985197386334197
Ni 1.660970756493954 2.257354973829963 11.972174083967161 1.423746061569219 -2.2869057591325257 0.18855133611226882
Ni 6.771176846805391 2.029839587816141 5.078418625499152 3.1682038181677568 -0.4355088800775726 -2.0288842440435766
Ni 0.06329074572553124 9.02527866284372 6.325366159633751 -0.6340425242135338 -0.9521707747863922 0.8141076772316623
Ni 7.058099755134844 0.23714585485560996 6.832953191489988 -0.18161501400375174 -0.51624614732764 -0.7563956672321747
Ni 8.165547583013035 5.793546841491664 4.285356714456921 0.44794222074491885 1.2779033200690701 -0.9624335901649813
Ni 2.7225004491063105 3.639498323855256 3.5948823865215322 1.0896006096324977 0.03100159058783693 -1.5302717506373
P 8.66656192738853 6.495920435383869 9.423907344251164 3.8424748508840336 0.8687904134865231 -0.5752933311987835
P 2.072813054391272 2.9625984511762833 9.99322771928096 -0.0006510033204375886 0.04181539337388928 -1.5339754247411321
P 3.8086064400928286 2.234545476670224 6.012555406843452 0.5804705045243487 0.06639051161009211 1.3489902087135672
P 9.319091161093962 0.36268222262533684 8.332701934944712 -1.322035020280962 -0.7252912325178863 0.717788496382938
P 7.401392035543489 7.75376137404316 5.364385217615719 1.4001250797161695 -0.16935008059346965 -0.5660345316046768
P 4.038281249813167 5.446188113843476 0.31102151600490036 -0.0784600411801165 0.490531001949723 -1.5735647569979805
P 5.471559005356399 8.737159190728837 8.591072774759827 -0.09060747517592782 0.544444721249043 -0.6334794526212122
P 3.742842172667106 8.463033906010729 0.9883691652879516 0.8577742648816775 0.11810465215493209 2.891412735780788
Ni 3.2884096825321767 9.050322368946564 9.144426501777804 0.18151988318678416 -0.1422398546402389 2.1075186060180284
Ni 2.1100841466764684 1.2063232588038304 2.0415827395915773 0.31990771107078453 -0.6552482117568715 1.3831267453859597
Ni 8.752331245601892 4.207791336697407 5.605748959814966 1.4520114841728153 -1.1737355897102042 -0.0043857877725214794
Ni 0.7705506200133909 8.12363045790473 10.473355481892519 -0.13340708683995733 2.083382117981141 -0.4213459583136292
Ni 4.056715810632431 1.5480824418623937 11.39744954077833 2.1640713056020924 1.5608066860013636 -0.4521603725913245
Ni 1.9546710768893132 8.737290064892868 0.1727884846932237 -1.6175131375544725 2.16644237693743 1.0968102400070594
Ni 0.63561655245076 4.051153658661102 11.226397943204896 -2.709711589821133 -1.236512158716793 0.6891376654154648
Ni 8.855749879650332 7.8152348385195705 3.2634781542842166 -0.4056272620267918 1.2953068602574982 -0.442491996263625
Ni 4.758163937221844 8.67607834874452 12.916203082481314 1.3112356156726126 -2.056105541653375 -1.1772562012689531
Ni 3.098529966831924 7.281558042063696 6.313366868422997 -0.1664910138781197 -0.526209686298255 1.5306985537620736
Ni 7.575379888468513 5.963271935931098 1.7862491151974478 1.4723805347474708 1.604053669615457 1.5851300932380765
Ni 5.2683394730795285 2.4988271546222647 3.397192287674984 -0.9518887247695994 0.6224813017384957 0.018112136219678485
Ni 3.985866147118635 3.9896521497209694 10.472411318280578 0.23436479490195763 0.13129158315885134 -0.1460296606999743
Ni 1.9383865916219913 3.5367994977089894 7.038470500161066 -0.6078350125802305 0.631037675948939 -0.4000734220880981
Ni 1.7143674154187196 1.4256683577202705 7.9156891727527015 0.21255618366729845 -1.6892829111986067 1.2418279145027518
Ni 6.764231167957159 0.31538803900625856 3.4882180732051173 2.2630009274904705 -1.7921172674580295 -0.39755965452730885
Ni 1.1233116461896988 6.090584453069821 11.144648331458209 -0.28227961630536547 0.8260589360562676 -0.32658975107665045
Ni 6.305199385771988 4.223141006507362 4.984970733118982 -1.2423238803025636 0.6150986361211793 -3.4943641950164728
Ni 5.7250622610850055 2.4133195847369646 1.0822536164867114 0.7892520516405632 -1.0704381777714338 1.4705362824498802
Ni 9.206586120799923 1.7619682185078143 10.087086930462371 1.5031586964705919 0.41812385183190576 -0.4797609079174124
Ni 2.7463662877328736 4.539921920545097 12.294425538061406 -0.5099847397989604 0.8899680760054027 0.8011457177543557
Ni 5.447412722092626 2.2112592236272284 9.643954489576087 0.5887206603482829 0.3573280607007717 0.44809443005206695
Ni 6.750947440307983 7.714807613934704 0.730101155173149 -0.36065249708831437 0.35228407051896105 -0.9809653304205813
Ni 0.020223797604663574 8.612314586397561 12.75694511671801 -1.1482469585207966 -0.5461115674285046 -0.3138360509554079
P 3.378666114940898 2.7370181331592103 1.2775468485005725 0.15513188011155862 0.9810455488392137 0.9862636027050433
P 8.109327781407023 2.314771339221404 11.825476298689033 0.3960301052566598 -0.06368108309872904 -0.9373977302422759
P 6.458948484045031 7.370945096097066 12.168934976249089 1.1882978037950953 -0.10001539875338904 0.3090293735953839
P 9.105616703249783 9.134689463973876 1.203691753291344 0.4822106550094857 -1.4245569875062885 1.5421936988858667
P 7.036468125451387 4.092117272002895 1.6765887183401735 -0.5572503576541434 -2.7979346239252845 0.19616977188947504
P 4.48662809132064 5.574416750130418 4.477493074671257 0.2849538207034189 -0.1610420749484065 -0.3998584778638146
P 5.366392266402685 4.463538149523692 8.913829964016504 0.8690938036595548 -0.10305084314560317 0.15086024931939826
P 8.120891448614646 3.6881367721020273 7.462542988687108 0.5761585074125561 -1.0466482744406878 2.0119105923037153
Ni 7.212615402082928 5.695821233578586 10.506520864688962 -1.964586610406771 0.1659449115666626 1.2489251876691652
Ni 2.538603552333203 5.164014068037444 5.373306161525367 -0.5016106568026523 0.511173617900739 -0.09932402911331926
Ni 2.971965302059094 6.572276161941553 9.714608776659293 -1.0820706198040395 -0.6031615183639613 0.34714109286544087
Ni 8.473186001877728 6.333477553357319 12.635024615137377 1.1390264683637932 0.3157970313365206 -0.2950816531660402
Ni 6.195414658458884 3.9937746858879546 11.709275932892025 2.2423426278101704 -1.8631560764734105 -3.566573370190871
Ni 4.690128068234721 6.543502542163817 11.123536459169046 0.6890147666843554 -1.1096585567246373 1.099720471675319
Ni 1.5711349910410477 7.688959966538524 8.27811151668089 -2.012033233924509 1.1508296316463082 -1.5495473110374605
Ni 2.494816796310163 7.0180709572504165 12.725544665505074 1.219334875606558 -1.6593105332062326 -0.7201353993485597
Ni 3.6355253581614493 8.12222823471868 4.2961790730068525 0.6939654258214113 -0.03902291823041667 -0.6017237574761701
Ni 7.835716645190468 0.1244360899764067 11.196475435230054 -0.05073480735070617 -0.16879163698683833 1.085802576042646
Ni 2.522319067065881 5.834903077325551 1.8734449617987512 -0.3384415082089139 -1.2018943115326075 -0.6548946850721947
Ni 5.532452884249243 8.837810771023472 10.832918225336623 0.09523443242497794 0.7981218433263674 -2.298674212522364
Ni 0.5589102700965644 4.624634897291635 8.940851739627135 -0.32368980382103607 0.32363915308875874 -1.0971264856958978
Ni 7.42596833391765 3.4693338661508597 9.6134168730303 0.5576180254062074 0.14521796343195634 -0.757571946928463
Ni 1.0415713825975852 3.4935923272695164 1.741345254702855 -0.009209948634042201 0.06818617005793419 0.09997786064723427
Ni 6.594094754716483 5.372692922585334 13.34427097227214 -2.3273898352895013 1.0024870065424412 1.4303198581319947
Ni 7.348687140057174 0.5441794481193855 0.3222421059396686 -0.5425415906890592 0.42046766947373393 -1.3001454192967221
Ni 0.6896741259038839 1.460536974280035 0.22797811966521817 -1.2247275073770392 0.956718542058075 -0.00953159363951907
Ni 0.4391987374416872 6.858254906659066 1.0324905852447284 -0.14089336791467347 -0.07453679486631035 -0.4719434687555227
Ni 8.57329538920709 6.4365129130682375 7.065984923517729 1.3279583277439324 -0.4997808026827651 -1.2994064842481687
Ni 8.07165471847516 1.7969583610770365 2.0661281890556453 0.6347930292263132 0.961397435590983 0.25049306792238796
Ni 3.7080670376530778 1.0728129151827686 13.567163695849285 -1.6521081019205224 2.4362292600924236 2.0284425285204675
Ni 6.067522555736593 2.5495969821118307 6.927755631467882 -0.9616825709315695 0.1515343925682874 3.391756095835243
Ni 3.9512031899594913 9.369468366091436 7.077641137455631 -0.1516781172350033 1.7031740673584024 -0.7758306360283348
P 0.9330626783837863 4.628794826076915 13.566726202215238 -0.7023780753651387 0.9639335717492753 -0.4974210442013368
P 6.103625128700082 1.8311071697346293 12.729142770200479 -1.4076509557795691 -1.0108901430044719 -1.4821016186899765
P 2.6050502350428024 0.22686195000912276 11.128940627328081 -2.2600403022002498 -1.7783644366483116 0.8389694734703488
P 8.632768348604737 3.065456195950303 3.7009867453789855 0.03691152831436868 -0.18879276269911355 0.8122019755685174
P 4.876081559014035 0.47205469632174224 2.8805740036851306 -2.2716328921338556 -0.9838105131788606 -1.5236321338335952
P 1.1884963280318541 5.261440535004165 3.4602932658626697 -0.6963128430076653 0.42382424465079266 1.1057854469224762
P 2.2646278380882734 5.766306319064009 7.7687315087774245 0.713223759830391 -1.5660756477097866 -1.010876259047401
P 1.4691185801786582 9.154105581023375 4.413776053097166 0.351260257240137 -0.014100186846807975 -0.7874995877258308
