# total energy = -381164.7943435777 ev
CRYSTAL
PRIMVEC
9.32913301577788 0.00000000000000 0.00000000000000

0.00000000000000 9.32913301577788 0.00000000000000

0.00000000000000 0.00000000000000 13.65412917181587

PRIMCOORD
 96 1
Ni 6.6219863643456325 7.2049358837278765 13.175292586153777 -1.2885813686082066 -0.8119368948325888 3.7121235201512652
Ni 3.9478930763624205 8.21363903532238 10.97056009568838 -1.2474480889030064 1.147012057672431 0.6070855360087157
Ni 1.3659902784096998 2.7626734036318177 3.5503871252636325 1.5753686429759386 1.432342030768346 1.7513048614273579
Ni 7.553677524925999 4.0314541185809105 9.449189379345688 2.018801148775962 0.15729572053209687 -0.3597436121207998
Ni 2.3663531853080624 4.380270392841189 13.535064993938828 0.8555728863549845 -0.3746490684777225 0.6091784139820025
Ni 8.004293295969594 5.695650125975094 1.3944002864333647 0.7230242908605806 0.541691583983938 0.3911272686384038
Ni 7.4245436691273685 1.4534322398603978 13.135394684037463 -0.23592314052801305 1.3096839549147767 1.7976466819166912
Ni 5.323091208815845 4.4464979063735175 9.909716421043845 -2.2681467333574683 -2.61978519987263 1.7016663724646244
Ni 5.691526649290871 4.441833339988651 5.485969470755874 -1.014871239139407 0.8463297704901618 0.5400630472415795
Ni 2.127676652527239 4.522222477065432 2.183281082574673 0.9768669919814917 0.8523096422226806 0.4528355442814782
Ni 1.2886797551469307 7.958636520194526 9.326766901661601 -0.22759662294018868 0.36335909738620004 -0.4956804073611464
Ni 2.627979384702427 0.23413044638213323 12.93882985657921 1.229537784281489 -0.32845380086858267 -0.7818431607710018
Ni 7.936405196804254 4.352180374071526 5.9120878720594305 -0.15362289966619994 0.6260487073747799 1.3693836847682546
Ni -0.11494051320276014 5.895648074292608 8.1070574250813 -1.033303991923298 2.6291054488322914 -1.4148927249436472
Ni 9.650987850287759 5.455313007561257 13.081201751778089 -1.9295864401825027 -0.20078155962987357 -1.5712430508433393
Ni 3.9576233618412506 2.4044440344068785 9.549820868706233 1.0678861007735414 -1.5018556613884524 -0.05008380403026858
Ni 8.240768153416761 8.75042800575999 12.983724442206992 2.38647121483269 -0.06219704235403482 0.4516962884707124
Ni 3.4281950771589598 9.440802488985698 6.6012523667649035 1.4184207927015637 -0.5962020563269925 -0.21087699619266265
Ni 7.648414868202627 8.466122684602407 7.855370483739808 0.00982829894433146 0.5426770878256589 0.04965905778802416
Ni 4.115836124483136 3.676928415065554 7.473437653973533 1.1120270569568138 0.8114188175455895 1.086448437156761
Ni 3.3560155769195434 9.136635444161355 8.805520266418364 0.485246613622332 -0.05119657747847312 0.5618773149031936
Ni 2.6220553853936472 4.213941284689638 9.548414035484557 -0.23513612585034344 -0.16513064319548335 0.5206033958550711
Ni 1.2371362965941612 6.734393085088134 0.756892132787174 1.7198433004839668 0.6239823117640544 1.0125752440163789
Ni 7.205672885216685 3.2363881074132697 1.4274030265195685 -0.6496532341675972 0.272459287780834 -0.03408357194727033
P 8.813651538540464 7.438537368281966 6.4949552950733 1.4992102533458052 -0.42753588917442503 -0.6450941540420051
Ni 6.155380459734717 0.3812657967732386 11.75229944069446 -0.4344465002513292 -0.53157814969902 -1.0830201282015026
P 3.2776881781848735 8.271824836407198 4.803481836373698 -1.2546366362316457 0.410994439875976 -0.5803002974950716
Ni 2.3782105130583924 1.9417656946920197 7.781583573924167 -1.058813706158628 -0.3769502058070734 1.638224916180527
P 4.5901572218946205 6.595715526466067 9.32800954214653 -2.0342943593155547 1.0070874814289301 -2.323214363755573
P 6.975168672742147 7.823933172132365 11.416845283300267 1.5857435584523594 -0.4184385548588472 -4.195351303571355
P 2.28081436694239 3.5060280318568338 6.3521057482766095 -1.1142554320667002 1.0871313221563987 -0.9479037719799223
Ni 6.825016280813311 1.8028735660162496 10.043307736479854 -1.2802175700245437 0.3745338830560969 -0.18720510649701955
Ni 2.247332109431822 1.47320067219946 5.466144130706916 -0.6934972279357411 1.054348471298423 -1.7108112721886861
Ni 1.5997503582208745 6.660151846506607 3.2073278588355545 1.4991084376606183 -0.325249177888356 0.10434127982225257
Ni 4.2050039754962345 0.930565134255059 3.652302303293293 -1.3308184229005466 -0.9956028778280982 2.572993179219756
Ni 4.422979162661023 4.164226336159736 12.286995886651818 0.6178075504119102 1.9749304155349405 -0.6045635409178105
Ni 5.979703560547893 5.47437242580982 8.203550511145192 1.4982756573466778 1.3118585939685925 -3.8073723507539454
Ni 3.072335307657532 1.665184895467775 1.1166197607349322 -2.349107429472251 0.8191349552429247 0.6839476365740931
Ni 5.1868578829794485 1.5915127339852013 1.5109519408654575 1.0139417853466022 0.21703735936710364 1.4042195615005173
Ni 4.643174683425007 2.4150885748971427 5.585508518669084 -2.314427104481246 -1.243450280597523 -0.5817043769314498
Ni 0.3363991985437664 3.491595863462058 1.3805278660047733 -1.224159036468079 0.7051646369713404 -0.2796444926753635
Ni 3.5903727212279803 7.275482785732589 13.368033402089717 -0.19736739174200205 0.24900774162611308 -1.3969309982589038
Ni 2.50013294922602 6.260351861659742 8.507737147148351 0.8639071172522927 -0.5297063865976038 0.09721855273454225
Ni 4.5430637596730135 3.815130187916364 1.2140924057396463 -1.2957344347132198 -0.23164791019142683 0.8217428251794171
Ni 3.364243872022447 5.548436410868723 5.986066029096851 -0.25357864882624714 -0.8066576487115203 0.06727882775231639
Ni 5.872763711608455 9.132894461920692 5.62959706722556 -0.19506214064759309 0.14636338989030923 -0.08265968108376086
Ni 4.9192237220813775 6.958115018039076 4.828809498930243 -0.24882339352944885 -0.44629440072885074 -1.3899082870841677
Ni 8.19519533983662 1.5978658734013889 8.076595007848294 -2.169631316188373 0.7847469646813582 -1.4048988469557289
Ni 2.6584949779922207 5.808346049833456 11.567423083683403 -0.09376838940241271 0.5109522459185523 -0.40187113741846914
Ni 6.780283089182446 2.142789847614205 5.869841827224976 1.6517980268792714 0.1075397321548922 0.6268089825795721
Ni 0.0891893080184689 2.5176903770986554 5.877979629740013 0.09042184152768298 -1.199102093499451 -0.7826610286866069
Ni 0.41230568732469086 1.3833704527597104 2.289169538250962 -1.3879097685969 -2.455314815968965 -1.0972704674729297
Ni 8.17498843825738 3.226377947951347 3.702044306308227 1.1481004056406032 -0.3982991037964947 0.3726898878688227
Ni 0.8817429837312205 1.9966023371125046 13.14803845768028 -0.6124033486772035 -0.5904798091312347 0.4873286929623414
Ni 0.2504097830653156 3.8118743205797276 7.826300906029323 1.0868143051366121 -1.9741809389634262 0.6529583872814304
Ni 8.302265796634833 3.4890956558797703 13.086035175466089 -0.3523311217068126 1.761925831476314 -1.5321900507059354
P 0.9618895633559882 9.372419945783562 0.6155063269220546 -2.7098540289362685 0.772977739960572 -1.317478511258531
Ni 1.9011000049487579 0.6125070107365858 10.606117524038801 0.5970438355019976 0.43193478957306897 -0.8903838233865827
P 6.436803078866452 3.2521450126613467 7.776627005683608 -0.5093190811905035 -0.6353149631680542 -0.38002190275386166
Ni 8.595275198666577 7.154157414062226 10.05293446858494 -1.1638281007885054 0.9293100681381351 -0.11605959670044527
P 9.206603939934345 4.9769803830587875 3.1368313341477974 1.324196803818971 0.5095936750081289 -0.49672761767873813
P 3.8262971598417335 2.824525553895141 3.1851944913393653 -0.9723004556567318 2.5347559901154284 -0.8768233110933287
P 0.5464203671090813 1.490431580425155 9.146300425710798 2.8451755591901198 0.21257520983069197 -1.349628099407882
Ni 5.123279843153726 9.23429280599491 0.0838035996705026 -0.5694232455712516 -1.5747934871987588 0.2708423210027013
Ni 2.473535591699514 8.527433745165085 1.581803905511741 2.216795118358369 -0.7687806711600889 1.9791945901279335
Ni 0.4960803666836073 0.1743157787157195 7.065397246151163 0.7449964242562976 -0.3978075088720568 -0.2365057525043604
Ni 7.842078335369494 5.498432259222959 11.398971597826737 -1.348424566018084 -0.4002924800774396 1.2274040257679377
Ni 8.975605283423011 6.825669320107192 4.356090213615322 -0.5548985695925153 0.9147128870502503 1.0426106140362044
Ni 6.125415285278337 2.437571784872197 3.433371812932884 -1.610472171547291 0.5320052099341096 1.5044216223434155
Ni 5.97146593631222 5.277956864475882 0.33955057959338186 -0.09202929522411893 -0.9689410522661958 -0.663245113919419
Ni 6.11976183081988 8.471944063450719 9.501690006920631 -0.9533593957778549 -0.4485461728775049 0.7413009776825814
Ni 1.9212136152003 7.372505766537803 6.532148681599668 -0.9130007894551502 1.0717504688249542 -0.776032981847128
Ni 4.862623873567413 8.643628093812097 2.4978725003559132 0.3140350543400915 -2.169121209321174 -1.996639525077258
Ni 7.184831602609104 0.9459460754525162 2.085899863071102 2.2452880835917397 -1.9155962965509976 0.36327502231282593
Ni 0.5655786741650028 5.284879080991023 10.131295452197582 0.5894634520515784 -0.7521104095932596 1.0935014873488007
Ni 3.931921601060639 4.991309930993097 3.6060960415980867 0.6895287302062963 -0.4639995313180977 0.8712586725213576
Ni 5.566572244973081 0.7888677353554305 7.802624499973019 0.03464124422295325 0.8703191914262238 0.05138632489177602
Ni 0.7881979036225638 5.240537712936487 5.843994531973156 1.0498672955986177 -0.3626718415111883 -0.11641877981207692
Ni 6.695481272305582 6.79476190324107 6.173331577010235 1.4039745353692465 -0.16572842468048232 0.2918837150540328
Ni 7.096074233437873 5.472077459148466 4.003117810706126 -0.9668923972672833 0.523650153101195 -1.644673242909032
Ni 4.012450675128966 6.204871509078145 1.5840568910756314 -0.4635272196673695 -0.06359520825314208 0.589424628393843
Ni 9.00144698119517 2.246763032332868 10.896363636944148 0.3270921446343657 3.294433413422668 1.7808152121816492
Ni 2.6754460122348234 2.468833708783569 11.723871707318532 0.36243787112351133 1.348424051797452 0.17402897412637772
Ni 5.1538514112401375 6.335414063925006 11.167207019515008 1.774266612429854 -0.48440714844017224 4.1277878546990845
Ni 0.990128848249967 8.961490305542407 4.195394968743411 0.3084387911992365 0.24515545775955844 0.533799582830371
Ni 1.2019281495211926 8.087891654719161 11.694488670746983 -0.4612571926862701 -1.5947113091686083 0.9591340934781029
Ni 4.800594469781465 2.1863289102505443 13.061484629669259 0.5500772369444721 -1.0393782231418358 -0.898728595806852
Ni 4.4355548336346216 7.411809402896684 7.332813105342424 0.8198996013230911 -0.01563179299998598 -0.15544478336628714
P 6.032665047281662 6.750597788709158 2.092140119980776 0.5092697160098067 -0.633756874652315 -0.14939292074525237
Ni 8.799228699278459 9.508811866877044 10.387966016264665 -1.3847917917932087 -2.9364661764760007 0.022249555426819747
P 6.560283480206626 3.585092432080313 11.521695406499285 0.2757742110866799 -0.19737124839674394 0.6842356001281571
Ni 9.311733937116456 8.113276224985603 2.1375132901196445 -1.1507141891143666 0.664040613237521 -0.13873724080361913
P 8.074980134965852 1.103888293244079 4.459738744513597 0.27144910134876477 -0.9384202579695193 -1.12778303423949
P 1.1178540050003678 3.994090941838133 11.81499960912655 -0.12026823546515415 -0.5891371790604112 -1.0321475097213517
P 4.242124594786998 1.067019560538098 11.209070569905904 -0.6881534471253246 -0.6320167520327566 -0.5392680621441099
Ni 6.872259009159233 8.033558785468243 3.5840858186544584 1.423932466548412 0.277160035690613 0.40158034565092776
