# total energy = -340892.10443279316 ev
CRYSTAL
PRIMVEC
9.04450347621218 0.00000000000000 0.00000000000000

0.00000000000000 9.04450347621218 0.00000000000000

0.00000000000000 0.00000000000000 13.23754506986037

PRIMCOORD
 96 1
Ni 6.568254251225848 2.037554837025413 11.724745589468876 -0.8438445421744629 0.08127514203140841 -1.1141842125091326
Ni 4.904174105298621 0.42248233437223986 5.996793565332478 -1.3318692327625643 -0.5451396904335385 0.24015440500054122
Ni 2.898446876777664 1.755782368895878 4.796757057159041 0.8600774590935574 -1.4478462970515324 -0.6218426397132323
Ni 3.3654055580725135 4.144055925721604 4.809398559974239 0.47388825118671934 1.104083119519389 -1.063152699853614
Ni 5.306781142800004 4.312337961480035 2.7539392234332194 -0.06766166501303185 0.5314773624550976 0.15557256719340307
Ni 7.367046728604811 6.011058556561017 2.567104197244215 -0.16909502715987007 -0.17404542918660992 0.30112760224980395
Ni 4.894686420922044 4.574185387968388 11.699409221266679 -0.036683728574278755 -0.38949358968972275 -1.3346213415864048
Ni 5.699927629435897 7.853116446208248 12.449276360355215 -0.040355778109227275 0.7780770088603502 -0.05363963970232698
Ni 2.1654531637834453 6.498828640859208 0.5377870941846616 -0.47369387578772615 0.9328335079103612 -1.1683527281317363
Ni 2.5223221460966974 1.581576183216897 0.310173114183767 0.06427346526708931 -0.6732898997499308 1.147939711693023
Ni 0.33049611398755024 8.792062552852643 4.675275805772965 1.016708806568778 1.345957078314198 -0.22943367614892746
Ni 8.645125545815588 2.2161204734856232 1.238106633128525 1.0712375337442779 1.5191278182053387 0.8471391537653346
Ni 6.92759238304797 0.6782753700868269 4.724202048513759 -0.15614849430153108 -0.9008944931099195 -0.11717725524465626
Ni 0.9301277155412859 7.20083588419265 2.4413611757168194 -0.11590353073855524 0.6005875869891979 0.39815640757104337
Ni 7.494031560489599 3.865268143811584 3.986619154344446 0.2177161306016831 -0.036659560204562666 -0.3675723641365992
Ni 7.608905801926115 4.1666310069455665 12.534935950404904 0.9410996045738954 -0.9402483123171935 0.15043858840094737
Ni 8.070781472144095 8.683465196980803 6.944918938777435 -0.4590756116539191 -0.5845032798328257 -0.37534172366937296
Ni 6.7767029278959825 1.0036685750893775 0.5175644883718984 -0.22799565815082024 -2.3350095566182882 -0.11357102595063667
Ni 1.8775485221483632 6.639968121027449 9.341034080307159 -0.018709660594361327 0.04634619136470728 -0.1050133661886127
Ni 0.11318563259656662 4.901297953123452 1.2114615252415888 0.8121821780741755 -0.28841272578629684 1.2246843128439295
Ni 6.4213624667072695 2.016824834555332 7.1355797900296345 -0.25599959956291396 -0.34489549136437375 0.48093358806927494
Ni 3.1245866026761924 4.282029829596421 0.18752873962244887 1.118177907049558 0.24502304594675217 0.6617757284627441
Ni 6.003551618493755 5.7546830548084404 4.726332933584419 -0.6142494007470066 -0.8858278285847841 0.7851025482485641
Ni 5.22673728509485 2.9712822650375066 9.404336561671947 -0.9239009813074217 -0.39613577759658875 -0.7600211797999039
P 0.4517223103694143 5.671509798824644 12.489650120401548 0.5327672849111147 -0.12095806244332719 -1.8725336610335683
P 4.043960403323531 6.339446396737147 12.608457816495235 -0.4775495020883904 -0.38022501990360325 -0.6345693432512813
P 2.449016443644689 8.683483285988194 1.5280499058965726 -0.4805060136135531 -1.0290603861555954 -1.158149305236173
P 6.316048265676895 7.704334360417311 5.872704783530989 -0.33465401614202367 0.20459759094185412 -0.6225391515596246
P 4.661238736037553 1.118768929118281 12.872083392410126 0.7671472493217241 1.2228233483757909 -1.3014883064778617
P 3.69846036215552 6.2601170548239375 8.205477647879663 0.6316190023737057 0.23424446727400947 -0.9404118344782515
P 4.9475605895259225 1.014124021361373 3.712681035315951 -0.912872234297086 0.005044504402442925 1.508953705885814
P 0.23692891435688768 5.523541718366301 3.689502685695499 -0.1967986637227256 -0.6235372538068358 -0.3420004292047658
Ni 1.5631615736928641 1.1973837552395468 2.7021802421349945 -0.9979618649785782 0.4146289513047698 -0.14787442721819696
Ni 1.748655299983826 6.566454394990443 4.865248370293938 -0.8358756650363733 -0.21498407638250075 -0.9998433982720071
Ni 5.798485586205735 5.477568506082087 9.018368697619168 0.14687555364003738 0.4908966128192577 1.6846880927390728
Ni 8.629758934036937 2.3703111724864683 10.309069119737014 -0.4756381439982906 0.1924020773169267 -0.48411455690041794
Ni 2.3167315325943396 4.938136216675214 6.80081557474818 -0.810319928054456 1.5823792699658168 0.6421522978048618
Ni 0.6536417598217695 0.08696290303221019 9.185453241088316 0.6655984446429439 0.44588122445083206 -0.06863739866273985
Ni 1.2988630867030309 1.0850148413266836 11.413173290563416 1.0229817840616835 0.11639846809710275 -0.10453359833871674
Ni 4.454933606743251 6.5120878832768065 1.598129433880397 -1.1751543244346019 1.1676855268613826 -0.1972162108761184
Ni 5.468379290327461 7.741941406783191 7.847242945508391 -0.4386528250231929 0.3211796358046727 0.7898583177659946
Ni 5.4138590220510014 2.8088610676737593 4.925597821202146 -0.5782842955063072 -0.011070913102180934 -0.06193710382442881
Ni 1.120315539250211 7.4837841378025995 7.069590186616914 -0.01826048887208468 -0.06935679332726764 -0.13883185739995443
Ni 4.975679951515225 4.806014106691384 7.0165477902442985 -0.4896683968391115 -0.8544014917547027 -1.3215789065801498
Ni 8.515608252896062 7.199081250475723 9.521196976119993 0.010871909717497406 -0.970323277325703 -0.6995848288907178
Ni 4.712177380850595 0.8925812673501664 10.593372240000548 -0.7421427568575863 -1.548662851549978 0.5891924577783788
Ni 8.048993262741641 6.975700098204322 4.845761987081987 0.7044843230748641 -0.11271716259077362 -0.10326964402462858
Ni 7.212132469308328 6.063851324631637 7.0831460887557265 0.5902787488640221 -0.3040218930784635 0.08166389282939485
Ni 2.306592643951687 5.2481637143494835 2.5369091216567963 0.6339954730256823 -1.168768732623232 0.971016703848302
Ni 2.304349607035203 5.155104815826508 11.300376571625755 0.15807630745186324 0.539355993872226 0.11011623463281682
Ni 0.8641173097700656 3.390666856894039 3.6730217910615632 0.42518692932627417 -0.2892102819869277 -0.2248365436965483
Ni 3.814076252895067 2.5114416081510136 2.534778236586137 -0.908091782189307 0.34808340217405215 -0.35611141468485125
Ni 1.07114057265779 3.234983814783437 8.155334014941456 -0.8300634292299705 -0.13981864679325595 -0.4209651779354427
Ni 3.4110622127273857 2.833299316658994 7.05117738599362 1.4572717041304903 -1.0202206763767785 0.07731127228765394
Ni 3.829614710243932 6.751767231207495 5.74787435242647 1.3545990702599122 0.9753922072081782 0.5752262254062739
Ni 1.0726419602712427 7.693924136663793 11.634425366664896 -0.06699343530141365 -1.3420801118572951 -0.5183824769443524
P 0.257888647220834 5.671799222942899 7.946842829103951 0.04557666018853441 -0.6658843513144791 0.41734866422877803
P 8.31703617426141 1.3951870510600812 8.054530307904026 1.804206594522396 1.97568092054772 -0.189209538521558
P 1.6424637820949877 3.1964270955295304 10.260076852119242 0.5135166642116188 0.6557922571857996 0.9744169877791025
P 4.138936736629953 6.052147736849663 3.573170470263269 -0.902237380291059 -0.7792977686413289 2.3707594605243876
P 6.6835897623508345 3.8368864912151124 10.520989076925481 2.0517092123578924 1.6444701257592906 -0.3261542062011286
P 6.519757622410588 7.71102729315198 9.835204959870651 -1.3223954889441742 -0.532833876482992 0.9085365830362095
P 2.389675454898528 8.669970797467121 5.487571727169307 -0.4236818055356574 -0.42537950495305454 1.6879330820389318
P 7.153288928265419 4.099828302650621 1.5152220863052481 -0.9567835909680555 -1.2935032313898565 0.17115165257858267
Ni 5.356471646103068 3.165684827468534 0.5109828030326846 -0.09382289678943197 -0.7458981101349605 -0.17144578678023378
Ni 1.4151663597234354 1.0544082408211195 6.897277015561401 -0.3560736194683803 0.01563847786820533 -0.001574543575971482
Ni 6.825217645718632 0.809531921066998 9.4354840234985 -0.7107809547168532 -0.40380640676796903 -0.42525892021479017
Ni 2.8224730457354834 1.694713879943878 9.195063930715152 -0.5212639122572055 -0.37375561012917563 0.5669333892698623
Ni 6.415528761823674 1.9560819477363696 2.572809470175335 1.0252407552991891 1.48805526517025 -0.1522062218243314
Ni 4.167038009611864 6.980755975770106 10.315555837787425 0.6944739900267136 0.4112011565701434 0.5060090429806641
Ni 8.060633538997747 6.997931488287856 0.03221471326262364 -0.35009529039775833 0.7249418195982675 0.5198251229281499
Ni 7.751510491693027 3.9591048696523723 8.377989798016477 -0.8062483290882437 -0.6293363769871161 -0.6369095613486838
Ni 3.1635503245963963 8.52720330663369 12.579083077393 0.8150348170316222 -0.5885645943863927 -0.2687954657760016
Ni 0.050985676232259525 4.852358143627114 10.145095885539119 0.21062579941380496 0.35828193997360874 0.8189169256948476
Ni 8.471688142950725 2.130866981651862 5.701277973837636 0.8991111759572515 0.5965720380719017 0.2836731542187825
Ni 3.3301229491563773 2.65166759344601 11.6642496176008 0.576546229769278 0.40380794942986586 -1.3405734454047815
Ni 0.8844990988478696 3.4221236407469795 12.559743215140916 0.28998109871468125 -0.8065059536250045 -0.6374705760584763
Ni 3.110079218748614 8.63178490286473 8.042218929473712 0.3022362619329505 -0.9042958054819846 -0.3689957268466871
Ni 5.64236840791775 7.888525678176121 3.54134828846103 -0.35836447238508606 -0.3382067664902885 0.47250268369310233
Ni 3.2352280163832154 8.61298137968179 3.5404610226485014 0.3857361795298196 -0.8786685918321835 -0.1059433342020498
Ni 3.2770136234564147 4.292105406713206 9.035974728512825 -0.23128384198378876 0.20688330165223726 0.7798307583266635
Ni 6.957421156235721 5.996542128129744 11.237245935831181 -0.04723347906566704 0.9830867476389584 -0.9884996911244137
Ni 0.41810569903398853 8.89132598091073 0.5104473684139113 0.8328384208719463 0.14938186500165884 0.4634362026154599
Ni 4.778934862627064 0.31349877819260147 1.6386225813755098 -1.1148822670174219 -1.0888081956381894 -0.3526771921923217
Ni 6.096257781372605 5.6278791129975625 0.2776744035051047 -0.36603021646045997 0.18703335680584562 0.5487029823047647
Ni 7.937872490338757 8.7162153448622 11.36432663945514 -0.5001633828331644 -0.3079309983248826 -0.12239248089700856
Ni 9.025446926211266 4.6389169009170645 5.857825670501526 -0.03981404667314433 0.18637155485213064 0.3906500718916691
Ni 8.00815732855647 8.38308818474963 2.597417755830045 -0.5406975955017849 1.5012766489565306 -0.16755339370436304
P 8.423797495883065 1.463120318316964 3.3132784654738825 0.8601075410005445 -0.1252212085950553 1.3108471219849427
P 1.7962293894221437 3.2260840231470675 1.435042561044661 -0.8107708995489457 0.26186042921906516 1.783807976261386
P 4.697914198522796 1.1409279631722504 8.249082104646028 0.6109864137250187 -0.21989925429593096 -0.8159534721911496
P 8.529527744083433 1.3673661576927303 12.488035676491902 -0.07578429412016625 1.220152743522163 -0.28283548880883547
P 6.304616013005785 7.643564340087262 1.4523175631030618 1.0736919088220411 0.5767192650120325 -1.114898207857022
P 1.6183330462354 3.0219495747396845 5.812010737031983 -1.118443502006119 0.9420300868079647 0.4633855518831826
P 6.854042478996183 3.8839812219575682 6.177604952060281 0.41828711688264736 1.3071442192120586 -0.2886577519175674
P 2.6963293526943772 8.693585996616065 10.301775631956964 -0.9354961423441889 0.007452085402671036 0.039466176415422355
