# total energy = -340877.21652072435 ev
CRYSTAL
PRIMVEC
9.20870274275759 0.00000000000000 0.00000000000000

0.00000000000000 9.20870274275759 0.00000000000000

0.00000000000000 0.00000000000000 13.47786729396367

PRIMCOORD
 96 1
Ni 8.484493411756123 -0.23215876002880673 4.944301618012074 -0.7851092331167834 0.22800362857062023 0.6844513156833889
Ni 6.619040478376955 6.4275547160830575 10.202259935116013 0.0860216555774583 0.10623412596959124 -0.49726523534976297
Ni 5.982857257829012 6.1217797455642105 12.961300507306458 0.3922490409476729 -1.751748890943312 -0.024882622174292632
Ni 6.5241724239789685 1.1129453813271108 3.7009821875925177 1.0956650706590227 -0.18063079571361149 -1.0798381309290952
Ni 2.035942853697973 2.7749044041950466 1.5192793844635086 0.5415368035736287 0.2608417581465637 0.4809351307311718
Ni 4.769012121887385 7.480661947781153 11.577150545968701 -1.1597696144484155 0.8086510249924652 -0.8036191189955129
Ni 5.9253397012604 8.633619141995009 13.416124775832438 1.0602170142640581 0.18967747929691203 -0.809697978199741
Ni 4.484371123882941 3.566152968172199 11.45183391635552 0.7095563382811327 -1.1445237440329386 0.007299618985206783
Ni 8.55460847350979 2.276787262038581 11.876601900397944 0.5820733302350943 1.3106694587564975 -1.0068748511974919
Ni 0.5496407541892916 4.458043443090489 2.631567264423505 -0.3428357806218676 0.3957033180448605 0.1062554661258299
Ni 3.835958746254767 0.9794836542459593 12.600862678031405 1.2370554328147727 -0.4042434943053877 0.6263644388429858
Ni 8.221253438642082 5.299166340461108 8.345509225713364 0.15186220822135135 -0.4860367136237953 -0.4014024253121668
Ni 7.744592573591742 8.899133664656352 1.6564301178144945 0.9712964398722498 2.1217833434671585 1.1976309082705634
Ni 0.8818575934130862 8.147712739513532 0.8157151659699703 -0.07221380316008853 0.09284073538182075 0.6929464976385937
Ni 1.1595229991823834 3.9478997353114478 7.576919595404596 -0.9683625540549065 -0.285567800138334 0.3605884766195983
Ni 4.1196604565919035 7.591184796634252 1.011384441864432 -0.9689801330342472 -1.2705844178101537 -0.6077707350011984
Ni 6.557093535847809 5.748569445754309 4.236821859164234 0.45770958454432786 1.2427995343874016 0.8507322704332316
Ni 1.0288883438057728 1.7928515219179246 4.630725955503272 0.34587045368313335 1.1017436727529348 0.5308885798311632
Ni 8.566635039132365 2.4225610245235485 6.428861430984928 0.24523439062660993 -0.7101129821155513 1.1146822351914738
Ni 2.410543667603594 8.368878150353801 10.51659071123971 0.9717700370745586 1.670419755745517 -0.2171384037213422
Ni 0.7129663038692269 1.1573681627691499 8.584215373305456 0.6861117341049474 -1.0967315642503241 -0.8198502361423945
Ni 2.943442079558273 5.59067703062056 4.33949613077375 -0.5990971184866004 0.20147421482152397 -0.4930853929404605
Ni 4.525847120486371 3.510596865261788 0.5390240409379385 2.2143929366747797 -1.4016206904250894 1.1711490599299508
Ni 6.965453453560752 2.1307372384749947 0.8990327446708697 0.8821663205727968 0.6253917905170714 0.12359035785985167
P 4.578585360394861 5.464922987632896 10.57900729760251 -0.29864185971347273 0.797405276875317 -0.5086523941407821
P 2.8420910985153447 2.6314696521757255 8.573567350465193 0.07757892412674382 0.5881773862503032 -1.2508434877378005
P 4.87482011499871 5.743477033205086 6.14710736125206 0.21564150746084151 0.3368731352805295 -0.559198739629766
P 4.877812943350421 0.7892226494006083 10.605800938747567 -0.410436510489977 -0.23404520677900983 -0.3267715280701533
P 4.89353219872388 5.528149939826313 1.5804684507669742 -0.011677950558560532 -0.056395090960277075 -0.550235102678575
P 4.615493840498447 0.37207762938756156 5.680921395432716 -0.5155732896303314 -0.8187521179822093 0.06202400711128028
P 0.8576396263910259 5.639252936944515 6.004834747503465 1.816679015957794 -0.8212095783837663 0.04318630557948691
P 0.44530707436753353 1.2633234951224055 1.0616740877460904 -1.1814255021552944 -0.703824063783046 1.2287970494607223
Ni 4.282378231898876 7.420390989128966 4.780181357295977 0.7095069731004362 0.06334144037112317 0.8655631647984772
Ni 8.585365540262776 2.285314520665308 2.8095963495778395 -0.10138631095898669 -0.082525983719374 0.08143377909645974
Ni 2.8396139575103887 1.7733474897673775 10.519111133146984 0.2182753455392628 -0.47370981662732614 0.7472661941270808
Ni 8.208876942319922 6.458689339643491 6.088748129263921 -1.9244110666291505 -0.4211878354692101 -0.7653215089668949
Ni 6.610043575916575 4.284643572743557 6.352092160717577 0.5927359521552631 -0.06269480792605978 0.15107287955083656
Ni 1.369591923364763 6.036829463888669 -0.14932647995601583 -1.213272214352246 0.29277897317479257 1.330551285282089
Ni 5.814494547815578 4.610999993619567 8.797057958717179 -0.24516702772378424 1.1480813794772098 -0.5319687002692193
Ni 8.373390414637921 5.243591820145455 12.382992140988806 -1.3820558809192844 0.9750870172629337 0.04101989405578742
Ni 3.459783244201014 5.1823447390154795 12.993755658822694 0.9701425287734647 1.5443279716200502 -0.26860083326669226
Ni 6.190421414898572 1.5966324864770098 12.116723425582832 -0.029989604383554802 0.25339584339147975 -0.37459198998754195
Ni 0.6356122809854637 0.019583226993084728 3.2021393996695444 0.8754225740910601 -0.06045023486625718 -2.4244420376495084
Ni 0.9974406243562363 3.0130414539651826 9.824448967476831 -1.4317802447276051 1.3702699440279498 0.7171043258317199
Ni 5.879996049556296 8.928297625855967 9.028594210448828 1.2975262365063203 0.12754342897032872 0.48939868811749265
Ni 5.149745931738361 6.866938752924985 8.06990012323926 -0.9281291604561565 -0.21459609691546266 -0.6278446229329381
Ni 2.7811479045718506 0.41768464998661703 1.3734752332598932 0.3124276006436555 0.2826562829184938 0.47133540285787856
Ni 2.6302633121324197 5.338957144484958 1.8611856205847566 0.905512451497905 0.5944904729525246 0.2674314955489394
Ni 4.651306484990173 2.5921392832829087 4.955636610067838 -1.7284215290712814 0.5338746590426805 -0.013167647730209581
Ni 0.43431188343847155 7.72233513935762 11.797015687998934 -0.9651461040001379 -0.28609153385228797 0.08059611368651282
Ni 2.6527785900399214 4.904352424303149 9.25496806349134 0.9436113152521556 -1.524536905036052 -0.16108269837835482
Ni 1.387742276230074 7.487835527122643 4.981944952584788 0.10884302434734802 0.25816549686598117 -1.0759225979247728
Ni 4.297793600085852 3.8374045125662097 7.096932546967676 -0.7389296492369274 0.058465343225744475 0.32787607398824176
Ni 8.871829861386109 4.167499666706205 5.014076878639038 -0.5104053722761468 0.29253189016099296 -1.2779958797828765
Ni 4.902169961782054 4.36413309376505 3.438931978857065 -0.7620700919091327 1.0431047800638036 -0.7895371869811499
Ni 6.626646866741616 7.001183219728893 1.5791341097572413 -0.24516908460631326 -2.164325587704744 0.8549954165849597
P 6.664227582136509 3.317637710548585 4.383043164596565 1.216581738341453 0.1686599965049805 -1.7720436366366061
P 0.5800128971727355 0.5817745219840669 10.862419854677356 -0.6322011001294209 0.9169520607934144 -1.6313328170463839
P 6.7722732899846525 7.959210596868726 3.540918360380818 0.4594000848728733 0.14876377180168573 1.3608568782441661
P -0.05259090066656018 5.026165142569172 10.220226113928911 0.33716855503376125 -0.8702484860892884 0.9898932290378307
P 2.8268046521650576 7.4274908988494905 8.511677501892297 0.2246074584048777 0.958940489410058 1.3868214206287277
P 6.988705427677906 2.6755148768103183 7.968087786195037 0.5122097724747373 0.23125427429743398 -0.4851237148912226
P 2.7247353923177187 3.118140376974717 12.892011466177866 -0.11847514812047338 -0.9550483534445036 -0.6075825302497924
P 8.832195605306811 6.04681169752946 1.3162376212509508 0.1680933253682331 -0.5196870546883888 -0.48819335495548183
Ni 6.4935719051705325 8.04080891079035 6.023811120993849 -2.0173060522876742 -0.09258722461011797 -0.8613807512860133
Ni 3.0137781501748346 0.4337077925465566 4.046877633689033 -0.418908295406414 1.0544070924505002 1.1788045195926795
Ni 7.854047212940847 -0.005553768550516975 7.431830960394606 0.6488219965155535 1.9353287419829184 0.12862174963617204
Ni 2.7564962076563573 5.830241429296897 7.1550090717853605 0.42248058613870465 0.3843027895174027 -1.8647121081066207
Ni 7.09084835714621 3.817274288637458 10.546592664377803 0.627122914275565 0.3743099399707489 0.2856032813619598
Ni 2.2734721290951456 3.8371282514875906 5.620931302210459 -0.368531642726075 -0.31953130156797227 -1.5627165014295668
Ni 0.92395517744341 6.835233189802071 9.53859610420751 -0.5266588580205317 -0.8648062320277945 -1.1052619703188384
Ni 8.34496314964796 0.3163557698299787 12.914883120876786 -0.5865429359706736 -1.2965900978452962 -0.1095243666850888
Ni 4.848492434206257 8.80095968601755 3.0023298910768363 0.5362920102349216 0.26773308594975825 -1.8225141345823324
Ni 7.124533791332564 4.430527839659971 2.0944604753711866 0.02805484925468717 0.061313354197500856 -0.12259379827453726
Ni 6.356721375524979 1.6342868714928678 5.890744447255123 2.1049289909139812 -1.091512739053546 3.0352011658550695
Ni 1.5341606478984868 0.9922929595912903 12.664706613300403 0.07962012292648868 0.31415178242361375 0.8040765182479055
Ni 1.178106161070865 4.249309780788104 11.922413354195179 0.422801202702917 -1.7624256539308678 -0.7468712726815072
Ni 0.5578779386834674 7.586829080294683 7.286094953590383 1.080703564253184 0.8346183955905047 0.697929552675482
Ni 2.370172715314643 6.056001982744872 11.119725739822648 1.1082979289316848 1.218482812018908 1.0522995591891944
Ni 7.730052032153728 1.609386539606617 9.747813223397479 -0.3989899592159322 -0.08737559850219145 -0.6140313711989296
Ni 8.465587945275919 8.505857601836043 9.678294885573631 -0.8182055014501198 -0.6312004267790483 0.7403635534699766
Ni 3.055300190291368 1.8210854041528524 6.473149765368706 -1.4249881615064361 -1.699642657166376 1.0903984229434447
Ni 9.153846379143667 3.3658360600650927 0.3440472594805501 -0.3040301206085796 0.4760898868237285 1.3733701802198284
Ni 4.601883378025119 2.2317659149261995 2.676421013148191 0.052299066514032516 -1.4263122796344985 -1.4725967645233347
Ni 8.786152092203537 6.941566078962772 3.315123734733146 -0.44904625244237506 -0.19372053901803413 0.07013326648197599
Ni 5.1661466311057485 2.4725182362406017 8.990303504081883 -1.0806606268303907 -1.9113251799794697 1.4422919428922063
Ni 3.7351602873690783 0.40766466066508245 8.569403175140133 -1.0529832155197802 0.008274067083334138 0.06096265572630146
Ni 2.9057692771371735 8.399174781975756 6.642688426706797 -0.19245118538730727 0.9284217519959107 -0.8002630580390864
P 7.248418467688236 7.630128400017003 11.784683393449352 0.9683386427955066 0.6545527283517437 1.6335537359571026
P 7.362661632400081 7.255407872977313 8.167143102043113 -0.49373742470216264 0.001697699417397076 -0.7035636110328077
P 2.713454731607416 7.761361621063956 12.620890685361067 -0.14304640970193427 0.029625793286232847 1.1625584900474624
P 5.1992150822165195 1.0249378103815119 1.0835217347135941 -1.3468291965065062 -0.6865020275648306 -0.4861616692374337
P 6.724535375599178 3.705720065090845 12.721246205650703 0.15074814922156618 0.039716087642699335 0.6307548546011975
P 2.905732442326691 3.014072828658696 3.6061242627674135 -1.9185669491435475 0.9181962176131605 0.8744165014240489
P 0.6849479052756223 0.5443135197232426 6.446100122290794 0.6604593236441657 -0.34875780253325744 -0.1697822830348818
P 2.435628173542258 7.918940940308602 2.849180878662987 0.32889294528853036 -1.4291775169974354 -0.0122253384215983
