# total energy = -340865.5384765578 ev
CRYSTAL
PRIMVEC
9.28506100675977 0.00000000000000 0.00000000000000

0.00000000000000 9.28506100675977 0.00000000000000

0.00000000000000 0.00000000000000 13.58962533174018

PRIMCOORD
 96 1
Ni 7.572682011783105 9.1921637420565 12.050789757614943 1.254204948010866 -0.6752863613546692 0.7266485178767291
Ni 7.535588193986534 7.159784644174672 6.407983486780747 -1.1090119242795737 0.06536155612494549 -1.049493457198967
Ni 7.764177105209003 5.707201881333905 0.8391550091661737 -0.4630227692271251 -0.33197698353049276 -0.10012261375521465
Ni 5.23877056522953 5.772661559798441 1.994548974765792 -0.5165708776569105 -1.9161421417521387 -0.6512725149385752
Ni 8.089339933553408 3.5551476351216635 8.871375105843251 0.002778334076085538 0.3463391657894358 -0.23157051998627215
Ni 0.9578190143781761 1.2746809983896308 7.075804983488098 -2.05812745717941 2.052644322577652 1.0717000752029928
Ni 0.681906005397118 4.144526152882641 1.7797790194949208 1.8598547800143195 -0.23850864186700216 0.9282119499779498
Ni 8.295319721788482 3.1510432200672613 6.299769817471133 2.624472063825338 0.6370584282217221 3.6214399403217628
Ni 3.1962057556774037 0.15880239443673183 2.606584897830196 1.2430802988526142 1.2170617633016652 0.09123559567822996
Ni 2.620244150736463 7.142709417409241 12.475234955309382 1.315730932439805 1.750479280202269 1.0008345585406828
Ni 0.5315418741928075 6.834361834128565 5.7149131243076345 1.5304985219361253 -0.4922628970391651 -1.0972915505188523
Ni 4.106968082047315 7.423090397635283 3.34185214750188 0.8893353275174103 0.3926339350909173 1.996766023352793
Ni 4.932428555076276 8.655431518890406 9.163606609136568 1.2344696743654675 0.178770345466105 -0.4128245511061793
Ni 2.0729640985298414 4.959206670351698 6.37373832562998 -0.44305969584163696 1.1220381613359127 0.38114907437976936
Ni 3.0995761281908183 8.030426222935326 7.6852726587421065 -0.3955701349011058 -0.3738286294589562 0.2392367782822783
Ni 6.533730136352005 5.053162200335051 7.767000692190716 0.613724381481472 1.234311037300416 -0.7822820480806334
Ni 2.758340859644696 0.8306461794718615 9.227885227870509 0.27850600819554616 -1.405087051707135 -1.198865552008613
Ni 7.398624262492864 4.79319906875348 4.968787924565536 0.03103501492893365 1.273513932752123 0.27413307593883113
Ni 7.2531830705115174 2.4539951375580915 4.666894387029638 -0.2788513073501069 -1.4569472309115359 -3.206883751236458
Ni 2.7358710125689263 2.9737542696272823 9.88399269190398 -0.20903171545380775 1.0106911396197884 -0.6826309746451986
Ni 5.352558985028522 5.925790782101579 4.835269679125511 -0.1870708949120004 0.09007628526280616 -1.1883564249471725
Ni 3.4023341048848788 7.235262903215553 1.2755482230660264 0.4542699627351596 -0.9136191397654394 -1.7257622370715633
Ni 0.6397295453322516 9.208579729506898 10.685807829163043 -0.7843952377688943 -0.18256015152584043 0.16109966765921932
Ni 5.693738543209992 1.0487754697311682 1.5183144935860138 -1.8636278739035064 -0.24897534572628088 0.8357383681275606
P 0.5157758409966682 3.2655651596674864 10.15002268219601 0.41443714700893786 1.717611840050287 0.8633286190410034
P 3.5963733049631585 8.237845195590541 10.77995648841052 0.5709193705008039 0.6147345679135413 0.3015065828557775
P 5.577888839918927 3.8026316450214854 5.944183558990998 1.9949346265710095 0.45133273448370664 1.1520334221464223
P 0.6026580116815414 7.98540296323681 12.627696581742791 -0.8865359103954022 0.11907010139199493 0.041251293340303155
P 4.468983316608137 3.8502640067978073 10.684611913335209 1.0215237114589182 0.0348153079069723 -0.5776281499795471
P 2.780430019228686 5.62439770934146 8.46503206263597 -0.5345467454090407 -0.16513475696054142 -0.16152287123956696
P 7.045745527734752 5.883822307398075 3.1210608303183487 0.051285023427221355 -0.6268192669922173 -1.1837983732628452
P 5.4394764389443395 0.6289375191933395 3.5991718222807774 -0.5104688785242305 -0.6434784728154531 0.9656796079061046
Ni 2.4594826084761827 0.7095039915389819 11.625530260090526 2.7149198734949502 -0.6438386843683491 0.80656868854214
Ni 7.891828120745236 2.5665950695778688 11.247589289288234 1.0135247524138415 0.057640019110971705 -0.11211269623755529
Ni 5.193273767431483 0.3942176823410636 11.624456907064923 -3.316528702659811 -1.950683627172434 -0.4768437342706175
Ni 2.515062982276 2.0576623183724574 4.208122319649612 1.0331893207223044 0.5211610681307541 -1.0129639948143652
Ni 4.197720266063254 2.797923073728996 12.78256396742303 -0.34934041450960485 -0.1324164407919139 -0.5368591955923012
Ni 5.3109804828775715 8.083481060204313 6.361955583506364 0.9889851154012644 -0.21427136658619228 1.2178976289393992
Ni 3.3600685082365715 2.497114959797709 1.7679693506950565 0.9730514748901435 -0.9206328520791113 -0.23512584143769832
Ni 8.75153189791281 7.263164510844763 10.874649252219417 0.3729611392523383 -1.0054448036191845 -0.7012269924798311
Ni 6.719747043920588 7.697083256048049 4.145039616743504 -0.016559961241210192 1.543384119649542 0.8952172402194841
Ni 5.436598070104055 1.5624900272357618 5.694256649601244 -2.407377625968054 1.1032680798172614 -0.0013634560064299099
Ni 1.831106835459737 8.90600745402834 0.6956525378746705 -0.5258188786177396 1.0502593888307137 -0.4137879434607132
Ni 8.650686852834324 4.976690439791233 11.780302009644782 0.6067734040849356 -0.09443173401802446 0.6151279466972179
Ni 3.720412431857873 9.049405932639162 5.143890243192976 -0.5329791438116046 2.349412619417496 -0.9160650302027707
Ni 6.873795487240463 6.903210559776015 11.969796172473645 -1.499509786864095 -0.5721630130999178 0.7400591348556803
Ni 1.0277912323794163 0.4505455035332775 3.7423381743722213 -1.3544082944053448 -1.1867479428094723 -0.08359093464877862
Ni 7.621790698222669 0.5691556553927841 3.0656290174909335 -0.28357930895339545 0.6855563758221097 1.0177750430497632
Ni 8.687669249901592 3.082695887701666 0.03660078106941199 -0.6941310048649981 0.4023208233613781 -0.36051031508349524
Ni 0.40308862940560514 0.9577540189527504 12.799212081392806 -1.230083886592946 0.015979663257707964 0.26995117664699964
Ni 4.1172930696292385 9.24876547254158 13.545649259176948 0.06688981984401383 -0.07611365243512698 0.7585952459866548
Ni 8.800659154473925 8.323425600754744 1.8225859351864173 -0.1892164805000935 0.3711181725063286 -0.4272021599840901
Ni 4.387349062273357 5.783404375115245 6.825158481888273 -0.8355182816969546 0.12616403212429883 2.220709365811111
Ni 7.448234342214286 8.76535735340695 8.058308331936908 -0.35275715350063763 -0.024038014785810215 1.7886691610084293
Ni 9.215589950392108 6.130127114579458 2.9259956310244193 -0.5051328110232979 1.3561674431882966 0.8007520818603628
Ni 1.7850250788328588 7.2917160727282315 10.129203718926055 0.8151098932439317 -0.22026177984167225 -2.623620000237688
P 1.7495004363072824 7.832626573243126 2.729544172156765 -0.22837181054331634 -0.7013671176021211 0.10410473833141427
P 2.3922123431605 1.7024530333597923 0.08923871910959653 -0.27444289386976606 -0.9949593307068284 -0.1285394743350109
P 6.794853900530465 7.063312862721263 9.652248717030126 -0.2635617281808881 0.011416726477373886 -0.33340985932227735
P 0.9690075126121854 4.73363540388114 13.392656527267203 -0.26041161258768053 0.1578852744869797 -0.6882215813590986
P 3.2102169123870468 4.286234750432392 2.693518136349333 1.0932950277649494 0.19194544939548233 -0.24715217647461307
P 0.8751448332365834 9.00273921718345 8.457502806853432 0.853871844503478 -3.171308168124693 0.32304162871407593
P 8.668105626848433 5.426746620621662 6.740005189519726 -0.01928301659932808 -2.967486536116915 0.6781222881415676
P 8.724001692714605 8.413852807643554 4.761179536670508 0.4601189653167689 0.691747592234486 -0.0695722517721834
Ni 3.796679921064639 4.0324833245093705 5.041927276797167 -2.1706684992036362 -0.5293294628741594 -1.55891615384687
Ni 6.11787083435631 7.928541251050027 1.8852210981631645 0.4542064564870758 0.9943602636702489 -0.7647424965349733
Ni 1.5368354043141286 8.917808766273506 6.069004488002976 0.6201709084377642 -2.898963551544852 -2.167927189013073
Ni 6.342058626771378 1.6848949834340565 12.893700573864649 0.7968262644433953 1.9390594126699445 0.8455011039412793
Ni 6.686190834279335 4.7948053842675735 10.651928499406816 -1.9878352965220667 -0.044371069916207456 -1.2610967900346925
Ni 0.3226688610202095 1.4976895880862586 1.5586348700019355 0.28246859238771993 -0.14022025310704883 0.376777427674635
Ni 7.242588816167116 0.3087291992785346 5.835751690753169 1.2173402137740323 -0.5041737895441382 -0.009353416190441955
Ni 1.621227321699117 5.5152611049908 11.470309113594757 0.18267919360220797 -3.1073159815434486 -0.4884764334135393
Ni 1.7295097004584672 2.846242530002676 11.976672688483694 -0.8953080001610776 2.411008280742106 0.6458968524489586
Ni 5.7598388908680125 3.1307182220305423 8.693704539405415 -0.5922124755516252 -1.4765004704531153 1.2796593835282284
Ni 3.1016838369867687 4.836569587634025 0.3892000354981933 -0.6746435855643478 -0.20151072448641424 1.15836733478425
Ni 6.651678263378246 0.8563657978189204 10.260832454498345 2.0074204177428463 0.9901436544857399 -3.6648563596341845
Ni 4.464433636828332 6.19361836015967 9.703807731008244 0.4415332318947815 -0.00740040622912919 0.009016601676313504
Ni 5.593608447811191 3.5644605510791005 3.51467126968472 -1.1293881739430807 0.5678939534109188 -0.6360186741032982
Ni 1.027020572335082 3.372111232061891 7.813911604744812 0.10176477734432796 1.9709812010792056 2.4634870673671116
Ni -0.05680878734036464 1.4361482052688197 9.300304059385992 -1.019814184966979 0.861356325805981 -0.7325173179526804
Ni 5.805233552997532 3.2758065817024344 1.1241553071278334 0.37257881621225514 1.9423794781821129 -1.0322084448662738
Ni 0.9176434849103462 6.782811176705145 0.9664819760813551 0.7115646269604132 -2.227295760779377 -2.1339850277396732
Ni 4.38851897993102 5.406858020441374 12.144925417777333 1.0410196154000007 0.5005755306699186 0.06130075579201055
Ni 9.170176718141036 6.972347122307496 8.179935200042248 0.7422743973394442 0.2523959413720556 1.3054303218447452
Ni 7.844335034880541 3.7486947269788624 2.5595105682064583 -1.0091173673747653 0.4196618857429869 -0.18464480196901104
Ni 3.803365164822719 3.3401149126308565 7.337717977832443 -0.7133188906473586 -0.8889540329185915 0.7043709374254514
Ni 0.5051964427495063 4.603440281692526 4.4565004809020765 0.04635750421861694 -2.6474327863865694 1.0027081214143119
Ni 2.5557129783494377 5.7558370296739385 3.928013391704281 -1.6132291654671378 1.638053423599669 0.23785043945771295
P 7.564399737571705 0.6258567360281575 0.7454928871033141 2.095874851131513 -0.6157766360248104 -0.3985369308389136
P 1.714839304433791 2.8010149989671085 5.924030334578618 0.978050984987264 1.6586703285190723 -0.987490533133609
P 3.080383907568663 7.081010188558626 5.615613113342127 -0.17715620690144976 -0.33082487220392054 0.07696648735372551
P -0.0518589214411527 2.439129755257138 3.488184705317637 0.48606653842046604 -0.14654593821476053 0.7602687770343358
P 5.467155205114947 7.047769670983727 13.608922305828944 -1.016383304908559 -0.2111004250573784 0.16486556245955478
P 4.270125169987574 0.7800472407778914 7.3456678468680945 -0.5330652757675076 -0.7927227837979832 0.9483542292537797
P 7.686999680046277 1.6144677974548358 7.7890842807382406 -1.2249815323693742 0.47450120218036995 -0.40602758278900397
P 6.8999143632008515 3.9860765907553635 12.680302022070263 -0.8199224841412266 -0.24777978275628296 1.1158654568662976
