# total energy = -340889.99297117646 ev
CRYSTAL
PRIMVEC
9.11874307043363 0.00000000000000 0.00000000000000

0.00000000000000 9.11874307043363 0.00000000000000

0.00000000000000 0.00000000000000 13.34620222025998

PRIMCOORD
 96 1
Ni 6.845969275521515 2.1888721943228844 11.577189883142683 -0.366642139012846 -0.23708322227438525 -1.6456903713196367
Ni 4.930084891120453 0.7606536274958648 5.801994478508564 -0.7567216831130258 -1.9823405919560828 0.8287015158854373
Ni 2.922630089268246 1.7944774397740402 4.735872990312223 -0.49303962730418954 1.1952505809638447 1.2158042367454802
Ni 3.6181348572261993 4.730794762321929 4.525871074082922 0.67372827283893 -0.8151762277054928 1.4090768895928185
Ni 3.688568028346757 2.8208375608867344 2.7433519539110955 0.031476730452042564 0.32822754379038954 -0.883072377326834
Ni 5.2362375694220615 4.737396732271602 2.545854569991171 0.25147317244747014 0.6095288553428857 -0.1656147819207535
Ni 5.578017176720048 3.112546150237675 0.023297476553070257 1.5958076275565807 -0.039620185494783376 0.8984349758258333
Ni 5.980035200437301 8.106216036467353 12.19957692203369 -0.47340154135828794 0.4921675091118814 0.37851086542597395
Ni 2.2093255349266405 6.715844812563156 0.5026269392541951 -0.2396926348727743 0.563471655973507 -0.9605929374118166
Ni 0.9186221722792662 0.09223699756622997 -0.1379355782330708 0.22234771583642352 0.9964559698570129 1.1539445231262062
Ni 8.298858601601081 9.01723317706426 6.731063994670898 -0.49997260697859697 0.30956801970767334 0.4563106473142722
Ni 8.816985580248172 2.7149598356302866 1.3377697547678766 -0.26622102018060606 -1.3616243525378098 -0.24351355128076124
Ni 7.152514059773174 1.2478270329465888 4.841001154892065 -0.03081698538085661 -1.3148426162975808 -0.5229778096245187
Ni 1.2485200574164443 7.963908932828379 2.750598618992596 -0.07355154813490558 1.1656016477491602 -1.4887530625682233
Ni 7.822641365894188 4.510221487304427 3.7509238168962913 1.182868405249408 -0.7773249611856742 0.1871572839782196
Ni 8.140639291384508 4.019906674881792 12.586789754576508 -0.8586574388175794 -0.041880699394185934 0.0014521590654942734
Ni 8.367048561937635 7.3028547760166544 9.162607825856645 1.3412337046965996 -0.33626352672098864 -0.5005678173604347
Ni 7.361798330926454 0.7770710124370162 0.2622687274966261 -0.7485103509468269 0.22883409489171558 -0.0970599156694909
Ni 1.7917144606376434 6.734985054171396 9.22022369178209 -0.06501137187437836 -0.6982200873327071 -0.7164857184111144
Ni 0.23476751040930194 4.943881549316388 1.405288575617833 0.3752486497349344 1.6037813897906767 0.0397363993576735
Ni 6.482550891026598 2.148631181356154 7.04985069143283 1.8325563493096826 0.134536058238078 -0.4713374597404076
Ni 3.6699566738339326 4.1239880077624305 0.2137807233386177 -1.6124742895789843 1.960308551856708 0.5180538899603401
Ni 6.178212842586848 6.117399945357044 4.766595859310073 -0.14979478416936137 -0.7160972247234442 -1.112327361806052
Ni 5.522256063125769 3.060368702651989 9.035378563808537 -0.45721413296514807 0.8337023115341384 1.7959456400651845
P 0.4591086500444912 5.620382856811466 12.608958330743157 1.0932384634954013 0.6287547934520332 -0.6193165308572689
P 4.09593875421934 6.1625012483557855 12.737108585836731 -1.2846401245722716 0.43391865277231717 -0.8985627596529492
P 2.6529432643212605 8.99543026249289 1.0825981449671505 0.46698766741214415 -1.6413850590760635 1.6465727739245901
P 6.4836177839604545 8.059236272405583 5.760167716129889 0.28406010524455594 0.5127736153980073 -0.6233184529278104
P 5.187470531727507 1.0861152441516662 12.72888712712592 -0.1484218150812347 -0.2992290996755105 -1.211866849364287
P 4.080528078508083 6.2450714664418365 8.066378071942301 0.7788064308272071 0.17520011161634344 0.08325694834812758
P 5.274499815152495 1.427940445164775 3.7442507207510265 -1.2625566624096707 -1.525774891208211 -1.4084929920648905
P 0.5865786469084443 6.1059923978335044 3.271915333949626 -0.6720871376910813 -1.1986588353144454 0.5648497672679563
Ni 0.6681467151361122 0.41661621942503363 4.679859287536168 0.6307090889649267 -0.6077026007674243 0.6855507193951548
Ni 2.352334781778494 6.809594609597135 4.520198304047435 0.2525016137119845 0.9473180746797815 0.21702758917509077
Ni 6.211049436217755 5.819344710861113 9.273248270594744 -0.4461738159905865 -0.17224180031896788 -0.647073389255563
Ni 9.050270383041704 2.550667442559455 10.003231917802303 -0.3821278933532709 -0.8642513879655891 0.43326070747334416
Ni 2.3795177547342665 5.484695960608216 6.763401793058371 0.7204986962252494 0.14666138074670226 0.9880975705899886
Ni 0.8854162695558699 0.25889205695468637 8.860196567817953 -0.23305507495159863 -0.49701223879869244 0.33532661672901604
Ni 1.7353879849758505 1.1653115273186845 11.360020634896193 -1.0367981211194852 1.2260361988861337 -1.6146211607186582
Ni 4.5987918383005395 7.730706198722066 0.9096320035314984 -0.5549031975782055 -0.3842490534613318 0.7146172977438079
Ni 5.845944084263322 8.20938549504555 7.824437758269997 -0.5971975874710425 0.4319291331461142 0.9001295899194369
Ni 5.35365050460439 3.0187234032594996 5.0306910710344885 -0.018322709568587798 2.1758986372543236 0.017447763162802207
Ni 1.1460527420511262 7.640594780154826 6.720133357407536 -1.9127485426895574 -0.3723643862086039 0.6762572099083709
Ni 5.460157423129523 4.62570124896558 6.93069607633284 -1.0974625288790778 0.3263807203896379 0.7396539289974615
Ni 0.9884535063602135 7.428766379697736 11.488917715043467 0.5275109216081818 -0.0722791091803852 -0.6336697142551474
Ni 5.316509864265961 0.615808777673197 10.265538032145328 -0.7008734657951543 -0.5475125615410893 0.00849415351394021
Ni 8.306016814875244 7.659561765645603 4.539243710728222 -0.2674584921321329 0.03418410208087661 -0.10199540529789532
Ni 7.252090733599752 6.254153734494151 6.934432937224242 0.935720342539853 0.15441788476366955 0.26907108803489144
Ni 2.7226560547428904 5.437515584199908 2.4587842522225727 -0.6915542452767574 -0.2550506053860833 -0.803273819840952
Ni 2.4102387999835106 5.305549135150618 11.344605399813426 0.4722358031849609 0.20261012819818008 1.1149131202553573
Ni 1.3677202662315582 3.6366003118506334 3.7462924073141926 -0.675063703820902 -0.0029390280236659063 -0.3143878096938199
Ni 1.3155884123609947 1.23338294399592 2.3694315130749644 1.1736944520596237 0.8282567150385349 -0.1728292973913217
Ni 1.2278387482370776 3.6561235406658996 8.100504055836861 -0.40251879830479714 0.06611668912341516 -0.10263252466126196
Ni 3.6916410447459844 2.8970337775987214 7.1042631429337995 0.623095795394043 0.47796293547672525 -0.022206618004026273
Ni 4.292593566283809 7.053785429047864 5.987626554005124 0.3968569720333294 0.404850017541135 -0.1969033076213899
Ni 8.736576504258906 7.472518108728864 0.2085091779962051 -0.3058399201238088 -1.6200022225249133 0.3428841173612998
P 0.11010335077396043 5.845314890994638 7.7990001127290975 1.1724628936453678 -0.8494330920058338 0.4239641126627666
P 8.635777918867056 1.864363486313134 7.759681916556438 0.7576732483930178 -0.18312528000069106 1.0122230028832826
P 2.0192362178397474 3.2834587507442294 10.382184081039304 -0.16804704551132996 0.3425516737225455 -0.5946856196824661
P 4.323287255303979 6.627155917907724 3.512599996707469 0.46551648218325636 0.06138894463044266 -0.23690992992131457
P 7.245215201359347 4.0679715693634675 10.404431990270263 -0.8909872612985364 0.6417329508792561 0.8555353482488297
P 6.543573519345964 7.789011441620157 10.115900370989028 -0.9647223861991581 0.49981885500955214 0.3930013457326651
P 2.561491390529432 8.744008279823802 5.737745638907161 1.5694445641820196 1.5550209325575217 -1.7439502208344997
P 7.136610971938599 4.291152804885952 1.3314240214971884 -0.3640486672540569 1.2707757078853532 -0.4785499183284468
Ni 3.1852042946561894 1.747506794455294 0.23347447264844032 -0.394778749348062 -0.1680925540372847 0.22573283025857252
Ni 1.7958087762556043 1.3951494452489892 6.900520331916455 -1.0400508237288282 -0.15401602133956055 -0.04022336629642105
Ni 7.597964656515701 0.418518389219926 9.226496475108583 -0.5646160539905954 1.4750529393733114 -1.0159223061117406
Ni 2.9988171872372082 1.6323279513139457 9.225922906172347 0.1020152027922372 -0.5832748067423632 -0.6014180533102932
Ni 6.653846478740179 2.699211766427127 2.5971438520062784 0.10672880621782263 -1.5516790126684825 0.4310863255298447
Ni 4.136343904560509 6.773493505963488 10.408836343151053 0.0945263506143598 1.3912514313756232 -0.2639265677194745
Ni 7.701334727440435 6.333094692856485 11.397830590972616 -0.6463033438587579 -0.38833685037746024 0.5280256564610712
Ni 7.652895964494759 3.962741274861753 8.327576259007863 1.3034426019907552 0.1929054993159065 -1.3523406132430387
Ni 3.2611451865634926 8.705426878087515 12.04734953785846 1.614871071945935 -0.8408484356606164 1.7083504693530192
Ni 0.24060532969353052 5.00326280389136 10.3041887363286 0.012282931132411103 -0.2918711166485425 -0.6677322031564952
Ni 8.826040492071414 2.742389014647718 5.725320439662098 1.144916608595983 0.9317898971371953 0.7235261701976636
Ni 3.86175119586639 2.547229676439252 11.380159378865608 0.8360972941288762 0.4525560653678464 0.11241325819710962
Ni 1.4558346800764512 3.3969415076830365 12.557227701565667 -0.9588006213980842 -0.3698814718857501 0.3205299180358157
Ni 3.143695776409066 8.236531993029224 7.799640248489411 1.1253165749768683 1.3133765732750153 1.408846261639251
Ni 6.036115470037435 8.15068814619741 3.2820845561704504 -0.8123127901147688 0.416256973826496 0.08214674600308433
Ni 3.4140847445689313 9.180568102117528 3.4367803840823905 0.5717050996268928 -1.712153130928561 -0.8814494970114304
Ni 3.44186043582129 4.61313562107794 9.25491047837265 0.270803754455282 -0.9260026010314569 -0.3611926858625006
Ni 5.1004594857885674 4.757804479160237 11.293742874971858 0.7363390056916157 -0.9261139297983405 0.005453566915403511
Ni 7.983951929996037 0.4263942475701107 2.4957799045469145 0.17973476626190338 -0.5912321139162269 0.3422050890164042
Ni 5.056415956980657 0.8530839424142123 1.6265548751051906 0.3569989594961271 0.18529863350292605 -0.09180200970466125
Ni 6.042015296774229 5.900510642521404 0.038423647481964904 1.9305686015901138 -0.6213885828949491 1.1129295141664253
Ni 8.28585527404827 8.898561855344562 11.378304626534442 -0.14076712674945435 0.34468980311147085 0.07824895361057492
Ni 0.4208299905766144 5.764723440144884 5.436601886148862 -1.444284290731887 -1.6222105430301414 0.011023861914329402
Ni 7.614205137842179 6.418373177620786 2.445090635822813 -0.25954257971916594 -0.2392033539411816 -0.5703508995918435
P 8.837493633310075 2.0284096733223063 3.667029557323096 -0.5018775373107938 0.9868361873790616 -1.1429000923865864
P 1.8641081615084503 3.4830315605765105 1.4606749088738091 1.5635765354370168 -0.9727534840337505 0.01625939928165587
P 4.898606990200182 1.2613592475948163 8.114117427298005 -0.7721578151624379 -1.4141620174252096 0.2754962748349449
P 8.796614308331636 1.735625072294485 12.331836994608368 1.4882033607123404 0.6323520238849885 -0.05226204262850999
P 6.924344871816335 7.942817280212914 1.113673909320044 -2.061205581884102 0.2100141339717351 0.3639265398538958
P 2.0282728921769397 3.584933513874315 5.857501179172462 -0.2768252780590136 -0.7375109145125298 -0.07306766651995159
P 7.22761602732223 4.252626115607812 5.79781718232908 -0.6639719647831146 0.5054583126835167 0.19846628123313562
P 2.609884559759987 8.562982993303175 10.092437845187217 -0.5590550149630501 0.5205835983607293 -0.9021026544854077
