# total energy = -381167.51676797424 ev
CRYSTAL
PRIMVEC
9.23013780817239 0.00000000000000 0.00000000000000

0.00000000000000 9.23013780817239 0.00000000000000

0.00000000000000 0.00000000000000 13.50923967888535

PRIMCOORD
 96 1
Ni 6.422283870985869 8.837663303857715 3.7207147792291675 0.0021139610192092624 -0.45873494048504865 -1.3276811628231457
Ni 6.034479622838827 6.058468751505593 2.20665370716738 -0.6964843355885232 0.30677245924040714 0.5075810154534742
Ni 4.5364743758312285 8.086782347270542 4.8155171388612645 0.023414779379514514 -2.482495233038499 1.4042396161051753
Ni 5.143835916627888 5.327451051898366 6.093653114554782 1.4033230178281766 3.229176758306703 -1.207333737380624
Ni 5.62128326504874 6.532943995489853 8.66030066406968 -1.0136849321407897 -0.8391985587620193 0.9632314034759283
Ni 4.497357050979457 7.0008104606648 0.3105193796438887 -1.9772626632125434 -1.3006614397011922 1.7097221528895652
Ni 1.340566783110321 1.1506013128945818 7.925695209821141 -0.1388475411292383 0.7132522990754814 0.35060745414748645
Ni 6.954816683001663 4.393342625836794 11.986829477737338 -0.36450786627866255 -2.342129712602837 -2.7506787762621148
Ni 4.905735276732588 1.0854088481876305 6.304775907098324 -0.6773396443392723 -0.06295423223503352 1.5832591014676087
Ni 6.719909670854997 1.250443715660417 13.284392124883315 0.6791288750292109 -0.49026257877968465 -0.09099211220885618
Ni 8.320821726445038 1.9601767170354143 6.888685513259926 -0.024306180845532335 0.038401482596333865 -0.036937239345981546
Ni 4.528471846183639 2.6542000235312906 0.5781684603244607 -0.058476398969338005 -3.537493936326411 -0.7196636019184638
Ni 2.7462337295475745 5.394434163377674 13.086670569704635 -2.4362048346123912 0.5132335857535614 0.4205712849311337
Ni 3.9306819584948802 8.294691205761847 2.4872268270781195 0.489575322904673 -0.35721930303704935 0.273984980396741
Ni 3.7134045099317152 0.21369338597705295 8.396208878575013 -0.12494790032901062 -2.0893272798209823 -1.8138726568572503
Ni 7.45473941745698 2.9059889580833116 9.497116974495324 -0.804525689970182 -0.5443099954433916 -0.43822062258178085
Ni 6.726195394834245 8.054255340952082 1.142800923269232 0.7503995975497398 0.0684561358898692 1.4992048540291665
Ni 3.8839405396535946 0.42649606363692893 12.055470322001774 1.1843845847836183 -0.017588916726356804 -1.495021669185754
Ni 5.775398879265357 4.030358218776683 3.58506867115422 -1.2973920249213011 1.2080485040594613 0.12232923175924093
Ni 3.4260149331066216 2.910714788740251 3.2130784184457193 4.199118998143903 1.6185991715297996 0.33628872353196926
Ni 3.800666234601051 7.478793157089759 11.240593126592689 0.5820591891677072 0.002600927957956811 -0.02165254527276916
Ni 1.6975423703312384 4.526875032309322 8.896712188710646 -0.2146979126006496 -0.07891949731503826 0.0038648822720449573
Ni 3.792036055569336 5.452713254721251 4.077750362347098 0.19170633680148275 -0.013300059543015804 -0.5382398779899118
Ni 4.482348846588477 3.32920924574339 5.600093637237931 -0.26616497013169005 -0.4384054848990772 -0.41585099663732894
P 1.382951576814741 3.8999086783967667 11.905706717853022 1.075995103033921 0.41422914476318984 0.31843369762841933
Ni 7.931863711047766 5.5270897067400275 9.122546898215312 -0.3592119079870459 1.1964350881902492 -0.10626086544246861
P 2.3613185145951063 0.487705723796089 13.39701826878169 -1.0660865856709574 1.089349155743324 0.6882773742976984
Ni 2.2856313829800703 5.141592993093443 6.036792695422086 0.5492675965589832 -0.509889866092309 -0.2936462062710943
P 0.03382476372151973 3.185477536778836 8.366340152001081 1.0759081997470696 -0.11850960090283462 0.41791456403457705
P 1.45915559615788 7.224373633207215 5.670382061135695 0.509565907093987 1.260367882288468 -0.03270597487345335
P 7.687754251313271 2.345636510129991 11.59044120124859 0.4750336776450722 -0.43098065318991585 0.5265328739656286
Ni 1.5265632939852716 7.8151024653245695 3.464080022226184 0.9829995872417908 -1.0406596609574206 1.6219367205434647
Ni 8.87261783647066 4.783214424896247 12.864592526366717 1.7356077624070756 0.6840507378108607 1.5330004624223728
Ni 6.1794297100196225 6.524701482254216 11.038480794766537 -0.4170455311660624 -0.779104164573284 -1.1871225525400717
Ni 4.779263925831462 4.861882891085875 12.61957574406664 0.9496089275964872 -1.1877316468789803 -1.0553069785569502
Ni 2.2030124177256565 0.06697295832750504 5.962235332698475 -0.31424382791678784 0.4169825391386109 0.007837750876863921
Ni 8.976955316443387 4.306219353237486 10.58919090533408 0.16867490890331593 -1.937700841759521 -0.24939160732809304
Ni 7.640292881707842 8.144507630334012 8.858535414921262 -3.6795306738169082 -1.9315245377454802 0.8327412331724496
Ni -0.058838437706489014 8.550292187308624 7.321981419562806 1.2187322090255526 0.24681844728427813 -1.885601035740488
Ni 7.199646093500302 9.223833817578432 6.0363062671493894 -0.38743413605753274 -0.42784133622998577 1.3817270368249557
Ni 0.5526129772387837 6.018502253957653 1.0823296741502186 1.1343288057778078 -1.69524787053279 2.1051472775723745
Ni 8.385598834941907 7.4543979023509115 11.458483456319176 -0.45286022687182653 0.08438900507004175 -0.3318468857105317
Ni 3.4346174217243313 7.4424633339145405 6.690910423280836 -0.5849123423457862 -1.2174096335593874 1.129270417418294
Ni 6.273466355982305 1.0495497620505065 8.59879379346686 -0.7570150459837285 -0.12814429577912123 -0.5456901636203699
Ni 5.8163345413034895 1.7944588193504922 4.350975369394577 1.6927420733918008 0.5947591532328789 -0.6356538345647116
Ni 5.386477784420093 4.195605379423511 10.167581276755321 -0.32020441637559693 0.608609685962726 -1.7223388132123112
Ni 0.08166826104022445 0.6356657589792831 0.5387197735184236 0.5402949607467276 -3.4739707189617848 3.4294209573758683
Ni 6.976285983993929 0.2847820628395756 10.898525135258533 -0.6019867813295697 0.4424313182290186 0.7614712819828692
Ni 0.385190273064923 3.570955790149416 5.294365622230794 0.49368343153577554 -1.6511380246977692 0.5454327961939252
Ni 2.6928558414829706 1.1424418709009607 1.939089543756425 -0.41351874895972657 -1.200588191126674 -0.6813945311349361
Ni 3.029414363443832 2.607578596484029 12.189333167414766 0.3703121316652655 0.24640732788878855 -0.30146930185993887
Ni 6.622642476591673 4.364009247266966 7.57499519342767 0.022043867173916872 -0.9185232619352761 1.4230624052386331
Ni 8.653743574033177 8.014187311886122 2.2406150769313267 0.24784046079088928 -0.5180698307999401 -0.9522185973051923
Ni 7.2723518905407465 6.600185550833211 7.103752343771652 1.148052068901171 -0.1002956489979692 -2.695417027575332
Ni 1.3878527800937148 2.730191749700388 3.3567353632924584 -3.5099224544660452 -0.1583907533684885 -0.5889312336971921
Ni 2.132955670291739 3.2088667064754826 0.7629724373695742 -1.3662392256020017 0.4356109528730756 0.7396212759873133
P 9.00566104562909 7.539499774727818 0.047230616155382966 -1.340100619533421 1.7256444805467763 -1.056981795156212
Ni 1.6509117131459747 2.4189699565545593 10.192302355365632 -0.43475091886562545 0.5457467278899182 -0.8263738961935252
P 0.3824673823543821 7.701784061076058 9.409145452213648 1.7769996950903006 -0.46464822064569017 0.9503200947308987
Ni 8.785559174837363 0.6049386295711788 9.490538655141416 1.9583699400730985 2.7664527512669195 0.3882538037453507
P 2.464280704005561 2.68565633384154 5.401425992914062 -0.6111897879850764 -0.6654958576268087 -0.7396094489127714
P 3.033355632370615 6.40371283332618 2.3082830646503703 -0.5275286622199947 -1.4406423231039254 -0.7645496637978768
P 8.10071062551531 0.9975010138581664 4.604300198910103 0.9184165611540827 2.0852235420652536 -2.103375273273616
Ni 7.284969489189253 1.18688498537979 2.2121511773612723 0.1609474583520712 -0.2978540737048548 -0.8726915483131422
Ni 0.8081668850817527 6.301765959095926 7.6501479000524 0.025651639129833242 0.4240062787546117 1.038460853533889
Ni 4.326922552775598 4.541754014768278 1.4012724777345809 -1.4231536794008588 3.4651996576373736 2.0104574047969566
Ni 0.401962356828055 1.315756172161392 12.113330365080069 0.4382198512508324 0.983735436966551 -3.2366877219717676
Ni 1.2680363586919117 5.151561542135424 3.6628953487580813 0.6542963893665635 0.8907468631529563 -0.953811395713609
Ni 1.1018938746589053 6.037424036861411 11.152539456082796 0.710226367764964 0.5534651795800983 -0.6710352993877992
Ni 8.456892420868071 2.6175932962160187 0.39740174564134895 0.4521783703134535 2.4668215310569837 0.26851958640679563
Ni 1.8496550446014577 7.879768812165417 1.1526420964067872 0.7553029483886282 1.2785065008707077 -0.8869763403669305
Ni 5.98189552664238 8.057532039942732 12.687432026600922 1.3103550128398724 1.555191139586799 -4.492921527487204
Ni 3.9713960972209685 1.6706918988839043 9.894046137070978 0.62535733773471 2.2458354714547775 1.3840551707375002
Ni 8.25907210321277 7.564439607608772 4.3910572436675395 1.3193009091792505 0.8016334560240518 2.04803407749915
Ni 6.490891486753498 3.625016708426156 1.2682624970729568 0.6898647733894764 0.6992521281416474 -0.1109587851387702
Ni 5.644875497781427 8.308157977106523 7.207503709981263 -1.524700941417742 -0.7291129202568217 0.7831420820880836
Ni 1.9776955189628946 9.291610720925899 10.11165217854701 -0.23181888855165236 -0.338983496755313 0.018209323919175093
Ni 3.8014323360552034 5.174766109072033 7.823227755807585 -0.3347715155564944 -0.5834321582558339 2.1020161881425605
Ni 7.780397146437675 3.1674233868472492 3.359572707714222 2.219759857413648 -1.1782149656377967 0.22997515047469427
Ni 3.125112434246844 2.6738694476131983 7.495439710976065 -2.7442276213201318 -0.7687374766269793 0.2997014113262387
Ni 3.730461804959104 0.7088266018232174 4.284077175184887 -2.046654423542804 2.4320622731989276 -0.951208153762807
Ni 5.46589389178787 2.5864415804598297 11.824475965354084 -0.6818406175334193 -0.9442260660180191 -0.2992859210553749
Ni 6.630691156929272 5.934138792620892 13.30887137387798 1.1590882721106748 2.077531315627319 2.910051433927898
Ni 7.440820369350214 4.333983608347001 5.494045812693463 -1.1749074985311185 -0.3326876364442722 -0.5179471891791466
Ni 7.969679586441279 5.561333518726831 3.419877814349203 0.3431839079899057 -0.6427081703083318 -0.7799084056421343
Ni 2.6168456550378703 7.089309023826382 9.183230440508366 -0.21248419277878244 -0.3471971429143569 -0.27069705367408864
Ni 1.4850553633910253 8.129268672492984 12.152993191087749 0.1897762096583054 0.40463790153032897 0.5823990890056292
Ni 3.340553085347644 5.295514774412022 10.710895812971057 -0.0021180747842673197 -1.167746204895989 -0.8119119551319243
P 5.425447427063835 8.411313999415015 9.816908027762056 -0.7515295973891251 0.003946129131941591 -0.22203789790548858
Ni 0.4634646123618732 0.5717295160543814 3.2208455795742625 -0.1500709206488835 1.2628101731813737 0.06991446560295056
P 9.309055681749363 4.179434177644298 2.00616311058815 -0.4171501750647267 -1.641048501672251 0.17612930829883214
Ni 4.954894991730353 0.1121231013772747 0.5756154041531534 -2.4242324927418637 1.2552675849474253 0.9798409870081511
P 4.974250591120199 3.0870842656792887 8.019544483982386 2.4470924280591726 -0.14463560856592508 1.3729292360276677
P 4.974287511672206 1.0213516904549047 2.471785729214852 0.30289703544540086 1.4587292625126231 0.3998348237147308
P 6.273097150462231 6.883153891555427 4.817029958479765 0.4394328977223271 -1.4362377662783266 0.19810426990802657
Ni 9.228522727683364 5.7383767957400025 5.619789828720043 -1.4343500623373104 0.8009035198365626 -0.1569519640394329
