# total energy = -340861.11730995745 ev
CRYSTAL
PRIMVEC
9.33436965708784 0.00000000000000 0.00000000000000

0.00000000000000 9.33436965708784 0.00000000000000

0.00000000000000 0.00000000000000 13.66179352569558

PRIMCOORD
 96 1
Ni 2.094548508131824 4.210519394283098 1.2438766115043747 -2.5023930004036905 -0.6815292569405875 -1.337079316208594
Ni 8.960247977529848 8.493193464858289 5.341925254156029 0.6118364204301399 -0.005096954906933157 -0.9509124768992592
Ni 2.9656692080391034 1.7925256483508465 2.6528194130665086 -0.5171450049928256 0.12816897836946958 2.049879101127689
Ni 8.868145753600473 4.113105914104019 4.2778351334225615 -0.3070514239334067 -0.8695869412458894 0.8379793416429376
Ni 5.741710699535662 1.2482478967446835 7.006682986126729 0.04617007079815919 -0.2506987561752908 -0.5001016763572935
Ni 1.8838717883501246 8.523838199951037 3.405023979197495 -0.45976338174956305 0.8065085247281658 0.32903872683777524
Ni 4.037068140096854 1.6535462207553782 11.486166637143446 1.0693945669982678 -0.35042619137461584 -0.09624204775388585
Ni 5.427039769072177 1.0084292753609256 9.76394745992223 -0.7722532030897216 0.3163014817767649 -2.5131116723727756
Ni 8.315700428675347 3.211993884969509 10.061077243207436 -0.028851377014053537 3.5006245741038873 -0.4706630593812023
Ni 6.679478797725676 5.920771909795846 0.17214257558130883 0.24636696156915636 -1.2950692903253955 0.4358935171105009
Ni 0.9630642395550302 4.980558206794896 6.8484112836333955 -1.404131115551769 0.2752247663411131 1.6660830760433756
Ni 3.443635598664797 4.561080975502482 2.8969691819016936 0.8104675093759139 0.02674744329717329 1.7688734664387407
Ni 6.465348361226245 7.078737784665093 6.981504457817506 0.46401212972358796 -0.5112510081058936 -0.9352585724120861
Ni 7.036425087688112 3.4985123569987184 1.2090276763855003 1.1095526272743923 -0.1775927802182361 -1.4367036501711514
Ni 0.43592999098613217 5.500351907183185 9.006496044691144 -0.392941181918691 0.37228133957649434 0.15133847450739743
Ni 3.3646388295237903 4.7800652841457545 6.0976684797672664 0.6501440577610867 0.07128794891170949 -0.018459749367084336
Ni 1.0463548186694345 4.286575837029278 10.983221473715988 -0.07919177713981844 -0.42729729080105766 0.8207010141784641
Ni 7.406355485635322 7.809684257679959 11.509541765263842 -2.6523389654389353 -0.4015865162985148 -0.006073716997905669
Ni 4.91741119707743 5.539602930961743 10.020569813293184 2.8272038052030473 0.5863081942520483 0.6154310797599336
Ni 0.15424765579869937 1.4394064498864387 10.244172767968712 1.2756410063974546 0.18475638784621085 3.054578541940417
Ni 2.830759565548855 5.623397566029546 9.576261292237223 -3.214632799054257 1.5074328983659135 -0.012074414666030818
Ni 4.9418859139257965 3.870570991193612 11.430439517747402 0.13511455644936732 -1.6110447562213095 1.4354702919846825
Ni 0.5393800079256376 0.273361678208549 8.535492160281008 0.769298748447088 -1.935069574784261 -2.5642707117450936
Ni 2.561985729953186 7.97467857309251 9.138223600616323 -0.928958084115355 0.7133073206831327 1.5805550722728843
P 1.4715260153613536 4.063344390260145 5.2316611474761325 1.0035848675923102 -2.223106662398694 -3.883298826878931
P 9.169421863820858 3.9842729461630793 2.1635360328500606 0.21471488188151408 -0.04274664693890703 -1.0895422455907366
P 7.587264901057967 2.7301537309982504 5.823571253241535 -0.21664732301753656 1.7913292243390957 0.528720882755883
P 1.557654242806003 0.4220945885022848 5.548737544961671 0.7088798810393986 -0.3868201566226177 -1.0605301746291027
P 6.155344615516452 2.049584850214746 13.38697283865387 -0.849611269454911 -0.03770368519836088 0.07285503628851323
P 2.822545320382355 6.617629265369739 2.989719211074883 0.45695239466332915 0.7292479031727893 0.4044155011068777
P 7.080455308654451 7.4850628893216 3.551259945648005 -1.6867154075817465 -0.050302604909294016 1.1616110385325287
P 0.3190123457213704 1.1615409383905761 1.733449357175552 -0.4136120800044812 0.407253484776305 1.2791952994076163
Ni 4.355080774843983 8.33450918323273 10.641799173681285 1.6123174522861456 0.5671969273438942 -0.21642672236629826
Ni 2.534496011753935 6.986308857802957 0.4628176423521571 1.1486076842943251 -0.08306051606660535 -0.20953745144563266
Ni 5.849541336084983 0.6628093093587517 1.7653906361928755 0.2127922109375045 -0.12847648230755937 -0.3659800799488148
Ni 1.056921324951795 8.866166867264907 0.4911399863114674 0.6242782457379185 1.1111410548074347 1.0524962485810325
Ni 4.583063415692376 2.7302190715848016 1.2093599799399632 0.10708490400566074 -0.2574921249480404 -0.7746654120756401
Ni 2.7416256711228275 0.07747713378520424 12.461563445691635 -0.0567460465417926 -0.45327571714269027 3.0663973889522156
Ni 1.8546178743139772 6.965577223127054 5.4937347726394 -1.059031992817021 -0.5953345661203747 -2.295423309685234
Ni 7.73901374613954 5.004155492909567 7.576393160892715 1.2929154772071862 0.1317736650015924 -0.6317614414888411
Ni 4.810626009912936 6.494555603414856 12.343799173112554 0.8946238296098592 1.4949401652155416 -0.908119550103449
Ni 7.537120668064291 0.931328316666869 4.878175108290084 -0.2585902431082256 -1.5162723510344145 0.5014617899296138
Ni 4.138178030600858 7.173742997511266 5.256634319656193 -0.02768615306135877 -0.4039532167584785 0.6803943720051959
Ni 5.564619041241537 4.439986199883165 7.852853849777716 0.5804514783609551 -0.3234334648358559 -0.8035496992101581
Ni 2.6831365117895474 8.573543717577866 6.977160242248769 0.9366886199903933 1.9747522380858633 -1.1173682666640692
Ni 0.45889907403295654 6.3122553669356085 3.3675502193731437 1.1917037441528509 0.13028011117520144 -0.428425747978546
Ni 4.391167447359537 8.636466702427155 3.3900787201792197 0.6818930680379095 -0.1760804573387677 0.5498047000093756
Ni 2.6006300197137637 7.219117367686669 11.490142145116643 -1.43199441762094 -1.0570553287066247 0.43573513715576573
Ni 0.01309145323410869 1.5439420539996531 6.501757069489803 -1.4105619587787772 -0.46957625407492676 0.4870204176933032
Ni 7.8200547422026645 2.723881034689287 12.159351098209658 -0.4201755921546118 -0.5780665230685463 1.1377105777658472
Ni 0.20817137500591681 7.224391286458341 7.18227834498882 -1.659329045148994 0.16720012413000235 1.375419092329057
Ni 2.7143973152697827 3.179752972690998 12.577921028785953 -0.2244223389772651 0.06488667337105598 0.6838563624118674
Ni 3.974322508268206 4.938749565771315 -0.03836705898620816 0.10324470432396414 -0.9555816002401541 1.4025082352363651
Ni 2.3575817064804503 2.530855607646054 10.268640950758423 -0.7111499080204978 0.7734950459166227 -0.3108540855089485
Ni 4.798706020052005 6.719131199393051 1.5160220213661113 -0.36043009666486314 0.7499357705394439 0.10763254897901463
Ni 3.016616196810415 1.0449546632433264 8.690977553476387 1.298547221571667 -0.7481575955930986 -1.1790048085289437
P 2.599397882938789 1.8077033331698558 0.5890677902504032 -0.3115436553768054 -0.2015518621369948 -0.6522251086598316
P -0.10993273656238492 0.18796713220718012 12.032583826240703 -0.8856110845882877 0.19487213612397405 0.7998951331767064
P 9.085561888166504 5.937779131038303 10.96014597885678 -2.083342008771825 -0.17992374234425787 1.9147879417170892
P 5.339203352007676 4.597662369601927 1.83529759630759 0.9824128615003855 1.8575595562222396 0.7250441495040867
P 5.312964439322414 8.807836392213252 8.181105354437497 -0.8632471150707908 -1.0934436375276717 0.4047985954779093
P 0.6256790543322721 6.489431034555301 1.1340913579802063 -1.2143831880282376 -0.1381677414533943 -0.37073739212814216
P 6.243666419795337 2.952535750142211 9.965813468325907 -0.08086839351129299 0.9089407604531637 -0.6058285236731632
P 0.536114845471954 3.2455882808265906 8.511898607914139 -0.8310648739112914 0.36554119263918333 0.777158867921455
Ni 7.025279850496293 4.983377186386126 11.791179295477638 1.173030850333696 0.7184428421374852 -1.1773734435731078
Ni 8.61184263566667 8.409762870201273 2.651740359951455 1.2818705322469341 1.6498383320497392 -1.6762548743700547
Ni 4.412860522094702 6.643140097233424 8.164451905799371 -0.36351850578219974 1.3556735342710136 -1.809287608589729
Ni 7.879001285641806 0.8654407360620351 0.3160085456138936 1.2855598081730635 0.19012228014381452 -0.004547253051050234
Ni 7.563014209077779 5.522147659982932 2.6441580516006056 -0.23727991166622361 -0.29224366949661285 -1.189460970865261
Ni 7.373442498752279 2.2437210672293575 3.16963171583414 0.7675259728173813 0.9341815372978234 -1.134801374538852
Ni 6.067713554581113 0.47178890488570574 11.79724570222049 0.862867620244185 -0.4363138924773712 2.278602895693785
Ni 1.9380111314929627 2.6047558110360285 7.1040367263409605 0.8191318699191311 0.18881435996566837 -0.6632294301901351
Ni 7.6279254146321405 0.2943201380634825 9.490588582024534 -0.20425460578013854 -0.5743844462312688 -0.49425318799631646
Ni -0.09600585725736518 7.9439778317827185 10.330966535959236 2.080498882896075 0.3980602483128112 -0.9838449659612216
Ni 8.05669967795391 6.122543641067498 4.9762531955780895 -0.7889833713602089 1.0030403079427501 1.8658680760879351
Ni 6.020687001002903 8.57410377974831 5.253424229982603 -0.06669235912122708 0.3855166073198457 -0.6889407189133103
Ni 0.633260429246171 2.3728714037335483 13.241788855646844 -0.3683951171482107 -1.1190094018119179 0.4536001903616446
Ni 0.5540200330610215 1.941427510732666 4.175453901791652 0.7286519214600031 -0.754080645945753 -1.1334320049951512
Ni 8.76559837019233 7.706222106060093 13.210967700970405 1.236903737728257 -2.276272704898712 0.4070835348573441
Ni 6.774007957726973 8.125129940812556 0.4345121002579602 -1.996213493283433 0.7075616764486071 0.5472955604342769
Ni 7.58829168170378 2.3722646697155683 8.069188130917842 -0.2085357496539957 0.4436957867637391 -0.7871951691115346
Ni 5.4654880370731 3.5289797390708255 4.21758644543714 -0.12303628512859453 0.3757695552354109 0.6255036335045873
Ni 3.8588750262008578 1.0993180312543418 5.255746621116041 -0.59095032100975 -0.29895656274041416 0.04029715695714995
Ni 9.19098425738292 4.713007173604695 13.217224528851206 -0.4693998763980625 0.9829661629006944 0.37119144894642525
Ni 5.457152445103003 5.934652117253329 3.7919261277830336 0.06217775908032517 0.23932753822387168 0.02483711364833787
Ni 6.704065527008131 7.422270585645414 9.241247036869341 -0.46684985628269926 -0.23760721309865532 0.623071627024327
Ni 3.5094709068003893 9.223841238048918 1.3809200908640111 -0.43266266887802907 -0.7295998871955692 -2.1941629827811506
Ni 3.578423894351449 3.8576148863173607 8.626520931717035 -0.5099037500493798 -2.3321941986566803 -0.19296643446082898
P 2.236281574731971 6.581299899246992 7.528481709085205 0.879807076312001 -1.5021176568005874 0.8424823717196136
P 7.926737251302577 8.823331445595512 7.321846771300205 0.6675409130812955 0.3314637913395001 0.34849657845207077
P 5.3936600637137655 1.4516158052020995 3.712483175779574 -0.4667683523124865 -1.274558057745921 -0.04536017330235414
P 3.047475622401833 4.993990364516024 11.568069195512102 0.45731363465748986 1.165545340589928 0.47580655125535476
P 2.1163815984095993 0.329715133798539 10.571563643759912 -0.2491833479720289 -0.14860127808189247 -2.2051631905463958
P 6.176197596995952 5.14976232285528 5.772831487473287 -0.11331442985514033 0.05532294094202086 0.5763546825837622
P 4.717945055074102 8.550795859088367 13.176088895869109 0.5246958207568899 -0.5948457994094143 0.17073513386645436
P 4.0706065297368905 2.706855144707815 6.800171262019226 1.0778853780780986 0.15197867919455763 0.17853663218874413
