# total energy = -340897.7966956517 ev
CRYSTAL
PRIMVEC
9.06373607429610 0.00000000000000 0.00000000000000
0.00000000000000 9.06373607429610 0.00000000000000
0.00000000000000 0.00000000000000 13.26569392121884
PRIMCOORD
 96 1
Ni 6.390622802874956 2.0171616629246065 11.520671157408504 0.25584327649070776 0.3942449883317791 -0.40033721727244603
Ni 4.714230426551637 0.0621418811571958 6.157908659079598 -0.6160746268812034 1.0901497972677483 -0.4730266745173725
Ni 2.83806424258465 1.6096017049142997 4.828632903756772 0.5343675395186991 -1.092888793465466 -0.028635404348505523
Ni 3.280057334084286 4.021924134848055 4.71101914484717 -0.14383676681371355 1.3996285996957252 0.07856082842403889
Ni 4.973054474964712 4.616088291931354 2.704317939769374 0.9237246036305575 -0.44552486955267784 -0.5612260544724398
Ni 7.2054617430761 6.0965680121947 2.6635791650669565 0.23510064462671768 -0.250077320541208 -0.40868738900935414
Ni 5.1578368630792015 4.675238233797994 11.311869868597325 -0.4993699403975916 -0.036875789980426815 0.9176678559135163
Ni 5.729994268882667 7.726807844235927 12.488125286262798 -0.5132585254542258 0.9682172867262938 -0.16787246760667862
Ni 1.859896777646022 6.553779116626313 0.4000642482457177 -0.010320408089401581 0.5093573906276067 -0.28240868568406197
Ni 2.73507300914447 1.5743981538554543 0.25021621822754836 -0.00016583615390294019 -0.029513950298716913 1.2364712781765286
Ni 0.5393847487698478 0.12504511614779606 4.840890700474584 0.11933158258349771 -0.4123087878120254 -0.023940312865681348
Ni 8.611591636013053 2.5769742601435857 1.4852273052387885 0.523604130354608 -0.6032273386048902 0.42123282977453264
Ni 6.741316880518838 0.6211432739941544 4.983072622489259 0.5872864990049176 0.8497153991329431 -1.8079069261921188
Ni 0.8511582371753705 7.420643902110095 2.614933186980466 -0.06782235896061223 -0.01921205415207659 0.013680325700569988
Ni 7.634384927102292 3.9162590992548476 3.9356002057441546 -0.014849149197690554 -0.17993968318385783 -0.2880795108165942
Ni 7.69191246020489 4.010893567999802 12.492436905531257 -0.01629899427033967 -0.39607304267945337 1.0305439126796574
Ni 7.976939769717635 8.799827307586197 6.926788112577836 -0.1127053355162317 0.9748453335657727 0.65029061064128
Ni 6.684976696846906 0.9447766611021744 0.39784725839273277 0.9917523937337565 -1.4481070069120867 0.6212708263701623
Ni 1.9813961602268202 6.403021993876114 9.259865391311129 0.645587548738656 0.274572734579411 -0.8863158239647962
Ni -0.03404248646290335 5.074242024918612 1.2377845902614995 -0.06203197753108026 -0.37650823317364834 0.4990084432931148
Ni 6.2806887475730155 1.9621810396694692 6.9851177863263425 0.30365036867165773 0.3032775587132712 0.49269767058373853
Ni 3.413829015360675 4.430462976358453 0.46095805294029685 0.06760484363316745 -0.5707573910016428 -0.1795452759589166
Ni 5.92529965462314 5.575856372562709 4.852139703363135 -0.07277507498019725 0.07646897889201669 0.2716481047334483
Ni 5.412917588478038 3.0168011187124635 9.28170083797845 -0.08818292489483523 -0.5149171441035713 -0.10422712284189146
P 0.21086510152387114 5.739076132466849 12.451366398087142 0.5128463776174716 -0.8795880183226594 -1.1507036475914054
P 3.910703029018217 6.246672545944837 12.610156710153369 0.6383455224642619 -0.1506144518571793 -0.2768391620160845
P 2.3692787471380665 8.57589864320416 1.4803455769688878 0.6131078309433957 -0.4320540887597527 -0.5531381352579828
P 6.473483478410476 7.726273083805323 5.788432707464517 -1.15591938746439 -1.3641931417062507 0.4612597637894314
P 4.6621955175328855 1.0076155435663798 12.652832405262911 0.9650242337102929 0.27874974877523606 0.1135445435880754
P 4.03958029279415 6.122979739224945 8.293101919148567 -0.16345068438989915 0.7250456921659836 -0.24297747627163319
P 4.835865765174114 0.8980413185880849 3.685170083344364 -0.40189736267071435 0.0736155686036216 0.7589832254536929
P 0.1486044854236087 5.522869771252201 3.5607911518007973 0.38674739440315326 -0.2689654156949626 0.3741119650273299
Ni 1.5847217492869747 1.1806332022075476 2.6616685294945555 -0.6188460189787535 -0.18991196390522133 -0.3819137204599358
Ni 1.8657972698549068 6.378984965707201 4.748428809275666 -0.2159857781741377 0.5264642255112223 0.4623367989036941
Ni 6.0088673015753935 5.5381149753925145 9.208434127117435 -0.15391883364006395 0.5601191945615063 -0.3097978763302922
Ni 8.729891519746328 2.331782070842896 10.353077952345231 -0.13783452648369166 0.18069995838865008 -0.03597050455733805
Ni 2.4609403104382985 5.231497846461084 6.876749944624549 -0.8059901903308506 -0.6310762424963584 0.8802500773866905
Ni 0.46265659708767787 9.116124506685198 9.078059534135809 0.12129153452334596 0.020631045986790275 1.1047762889316715
Ni 1.584857705328654 1.0768987424061873 11.441435976317766 -0.5456950487163763 0.14784100287710022 -0.4108448016719892
Ni 4.077221988867111 6.632243880147534 1.5855293281745502 0.22462057103100025 1.0454935920109543 0.40356909394618234
Ni 5.833619963850684 7.834756941329349 7.998842288032182 -0.852360550065274 -0.057401934958236624 0.3295102671575551
Ni 5.281991920340802 2.9008759338405192 4.810551656587027 0.503993555212532 -0.43663245215905444 0.23445966860860912
Ni 0.7958150644757546 7.521115416911151 6.967500602445529 0.9356686633663112 -1.1237507731516452 -0.09960582201979619
Ni 5.014502940204696 4.530082499964984 7.106060655509866 -0.17546750634511715 -0.11988231288064514 -0.2425265047771436
Ni 8.210648205364475 7.161801726224796 9.105320533239745 0.06492395436689463 -0.2839660028688529 -0.5931401295722172
Ni 4.696583332341654 0.40907722743544883 10.531528414411907 -0.5027841082854632 -0.3464368677095646 -0.42408392607008255
Ni 8.279886085523723 7.058248541145676 4.843729462624849 0.41418183646502216 0.2752157674800486 -0.19568383339199202
Ni 7.264475728901058 5.9824193196007 7.053355936392441 0.16984373240043651 0.20486447144999553 -0.44123626947965305
Ni 2.1572870232154786 5.167816036538467 2.5550653972137605 0.28660344049169995 -0.2697902255891031 0.007279821490864881
Ni 2.314560972230175 5.228108009155212 11.430929293416785 0.111518257186666 0.04510846230286425 0.4490326255956202
Ni 1.0558980658347805 3.2771025561117875 3.8232660731197687 -0.6764181609662673 0.33466301500308815 -0.45165823614392536
Ni 3.8008505473412852 2.5958993411453544 2.5696978927929055 -0.36292329540036206 -0.5514394073993213 -0.15633695616325333
Ni 1.2106613599464646 3.3978405848591815 8.391267619482742 -0.5143072784337142 0.17391121760159078 -0.6452422495840952
Ni 3.4177536130971533 2.799380216858813 7.281830970808235 0.21459583980514654 -0.13542000350492805 -0.891668346525961
Ni 4.06175925506011 6.799759850968743 6.083076640992051 0.3140237414861818 0.42123617220864223 -0.27990828785971145
Ni 0.6627304143966517 7.3850234191901 11.020011221176997 0.028943422507227572 0.0802461865462618 1.2023373126072971
P 0.30134837912954865 5.5889897261889345 8.026899083166748 0.11025455998289398 -0.2988858574034788 -0.36892270751690653
P 8.425567516051224 1.660993088669102 8.04865476895628 -0.11263565862056085 0.45604865190213717 -0.009353416190441955
P 1.808432884002324 3.192429133353875 10.53958063757377 0.22944396056157257 -0.01460617994894904 -0.09915227942214537
P 3.863190924319333 6.048022641579053 3.8519464532988374 0.1265674382103046 0.6126031233928353 0.27016586376096696
P 7.054768066478684 3.897560611655878 10.46114034614005 -0.25607596132680416 0.5613947188398203 -0.6910569939253647
P 6.492145711064999 7.920246100337337 10.123608626077955 -1.3710572158159355 -0.1847659009279076 0.9431315474022596
P 2.470303149841951 8.678917067852677 5.882340264573292 -0.21349232232832266 -0.998335960488545 -0.8346543910347626
P 6.956952226358433 4.052650200267593 1.6228855165599856 -0.7087847502224309 0.24580491841809926 -0.19043184096443333
Ni 5.3557526048199176 2.919964162092303 0.41839112266409695 -0.4432003351845593 0.7387956947622243 0.049941364915133346
Ni 1.3790383856983102 1.0284893278322194 7.1627316655498845 -0.2708009262418046 1.5872787641499633 -1.1760351843776584
Ni 6.697529971361968 0.913950894585405 9.251547600681187 0.7310821281680505 -0.4313012697541282 -0.357742522530371
Ni 2.796262291636299 1.5841688613841451 9.237287624656243 -0.5178649138779856 -0.47917521061727153 0.8694568434259284
Ni 6.393677281944685 2.0865536265977576 2.7030444848456443 0.6075624756451343 -0.18114475923555254 -0.4572071909866126
Ni 4.2714941086908205 7.049900840186562 10.488242729862028 -0.1694902057157597 -0.41096178686582774 -0.651162214612956
Ni 8.035292102806421 7.300866629390569 -0.04003633515374123 -0.07255473143927504 0.35293455961876635 0.7903344860714647
Ni 7.724532846471826 3.903642378587002 8.330802529506258 0.408213020476097 -0.9000470575079595 -0.5553865649725275
Ni 3.181706733533429 8.415905573355877 12.446868972228389 -0.11295241853003128 -0.49724878028953073 0.011007149743781043
Ni 0.15154294867110552 4.931877921808086 10.195415169051332 -0.2306122698380609 -0.601529639187493 0.33801727618730176
Ni 8.528241518727485 2.438072504227828 5.817590746536686 0.22361218437114394 -0.7199968168881664 0.43396596107048485
Ni 3.7963186792853065 2.642033757955221 11.4259678042691 -0.3202578953213517 0.5540567904175103 0.060028831058122414
Ni 0.9748592012577633 3.428321929403696 12.666800528985052 0.5730179049010454 -0.37517203086072803 0.24787825600736021
Ni 3.0523944104241227 8.462139691262974 7.975494103807777 0.9776897449931032 -0.7389275923543984 0.7224897585133493
Ni 5.646535386763757 7.713221303804103 3.616559413724064 -0.6067425508470002 0.6240972400753638 -0.023326590541082406
Ni 3.115487077499463 8.32592986497247 3.690635516219875 0.4541419217977276 0.12581924719037038 -0.05206046814066518
Ni 3.4911245569234537 4.292594486359459 9.373207411391165 -0.6818681283372451 0.19333333088194446 -0.003003562713014182
Ni 7.283192343972251 6.1497086970191095 11.219486831902584 0.019379432967876302 -0.038507154936262715 0.3434387043131892
Ni 0.6086933260707688 8.986132403367495 0.20107445377573405 0.3298036300282578 0.04788705348926591 0.40356420885017597
Ni 4.687447086340801 0.07467612182642262 1.5019553366070184 -0.8227440127504216 0.15568312462933834 0.33538549499140946
Ni 5.998235539116067 5.5413779203928195 0.25198727226382495 -0.140070614903062 0.026672367084863743 0.6859582392462187
Ni 7.9592020381465325 9.01734791053708 11.330733316193534 0.2599171894497653 0.25058999851156843 0.214036881977883
Ni 0.1415800899368412 4.8150644907971705 5.918104860897467 -0.11086905363844131 -0.04060311823334297 -0.12469516088825622
Ni 8.015641922915696 8.799781988905638 2.643627162763703 -0.1965603224596744 0.6515658778092779 0.13241772634349455
P 8.495829598391124 1.6355693088750596 3.67154638159448 -0.35774226542005483 0.27989003302726634 -0.24384342381635424
P 1.885664979412319 3.177745880852503 1.5649936212656868 -0.5025956464237409 0.16065358126073623 -0.061183513487855924
P 4.638901715725153 1.135577369995004 8.200984449921904 0.6355371064811893 -0.401552834847102 -0.10140122335732216
P 8.542163417395454 1.6360224956806575 12.702936738489816 0.005785753443841649 0.4606444988029357 -1.0408270397732204
P 6.51478692387267 7.813919412007957 1.438704054149719 -0.9653309663174343 -0.17641881451479294 -0.2897301590461397
P 1.6735463631841638 3.103359798581663 5.94177027588579 0.1679339169722334 0.44530221201891057 1.0846851746087514
P 6.838289793180677 3.9418732175072413 6.1445496184241835 0.5837923698087301 0.36301122712847805 -0.919276595161533
P 2.358057841831462 8.495929299488354 10.13208503208986 0.5479259949294241 0.2777855850897538 0.6955088590491312
