# total energy = -340862.1874490575 ev
CRYSTAL
PRIMVEC
9.30029229234909 0.00000000000000 0.00000000000000

0.00000000000000 9.30029229234909 0.00000000000000

0.00000000000000 0.00000000000000 13.61191785780586

PRIMCOORD
 96 1
Ni 3.2640584102204757 1.1095620466343847 0.054086778636147394 -1.5182736977351594 -1.6739951318016009 -0.11690908918493413
Ni 8.645904931176627 1.9859564704634098 1.036015336844397 -3.320201523525708 1.7391435434744755 -1.6056806636959184
Ni 8.882364857379262 8.364394390125394 8.67806069105256 -1.9893884999417994 -1.88312172096206 -0.5704149200605596
Ni 0.7448176115598251 5.353713137405985 6.801139914937512 -2.5597815656254883 -0.09953254557969955 -0.46652743994627394
Ni 7.358418996708117 7.7357225462111545 6.591543882415754 0.5346418762260082 -0.15872293989692665 -0.6344335890043654
Ni 8.170948314805244 1.8682333732805991 9.089357738147072 -0.013239895729041714 0.6726715494396415 -0.8999406138370822
Ni 8.818834562162342 -0.06323454592869066 13.039836295910895 1.189358383849126 0.4155833447982391 2.0697583565501194
Ni 2.3988708383511037 6.8264608901618695 7.082648595930327 1.8106371806390882 3.866840167102276 2.1339986545864282
Ni 8.677377119584483 7.519360551199233 11.507774070339178 -0.6720624551007329 1.057793235313914 -1.0536732996082694
Ni 6.755769370041271 0.23761409245009862 7.949182850093274 2.1037079740226865 0.2485791387291267 0.9368927655813993
Ni 1.304961183291902 6.611400936041526 8.999519706715821 -0.8351799245209293 -0.4965162729988804 1.6082144858613658
Ni 7.920872760993537 0.5607294901332871 11.029886931932538 -1.388503950537473 1.2052634851151567 0.7777386516843251
Ni 7.336563310313774 7.363627160274429 -0.09171111025670835 1.2232969455780995 1.0894118906604593 -0.7247723838999389
Ni 4.261951849817887 0.328174756576177 4.400610834508063 -1.2865972482986425 1.375522707786457 -0.5008035875203246
Ni 1.010448833909056 1.6274674118436738 12.079556027583545 1.2137280709427418 -1.8173940397469477 0.6046442735570747
Ni 6.6492717254022775 5.488213961505986 6.966906460961132 -1.0357264853218615 0.5142039200866305 -0.37053324653713604
Ni 4.582960731344344 1.9726012510326534 1.816482828015626 0.09757207941921905 0.014863547375393756 1.1991396316056058
Ni 4.8242475091379005 5.730058756824504 3.0397725663540935 -0.5124478566274723 -0.13233725081454628 1.5131518031275617
Ni 4.631071142288149 2.6708299794334036 13.068638370461807 1.0871362072524051 3.5614239647794474 1.6458958024622234
Ni 4.587936387608589 8.545368773762645 1.2251721174560064 1.049641552741057 1.736936765631144 0.8176313741142047
Ni 0.7698577179632853 3.339325674045763 8.145806835218083 -1.203908770859475 0.010075639068447164 -0.7310083375073217
Ni 2.168976918358854 8.371611416781569 0.5534743322795732 -1.8495719100310726 0.38059885830325424 -0.25107799389158053
Ni 2.657474760002647 4.467962619741765 9.388738790435212 -0.8213381335418307 1.3867789974265663 0.35739208116948773
Ni 8.32279418363948 9.222392836214839 4.579512183040079 -0.10696071972297062 -1.4774507501815264 0.34819910181631003
P 3.315554127482383 8.006426147862289 3.348341377190732 -0.2773055601295418 -1.3736342325144923 -0.542445174320511
P 9.081140000062799 7.083567464788098 5.033088357942544 0.14083243276975102 -0.6144993119742836 -0.7400779039087576
P 2.5128180169483385 4.198263449635561 7.2343800711719455 1.8063930606507534 -0.18992739052418903 -0.4197845273637803
P 0.7433621158488826 6.907578037707175 13.199748308068456 -0.04348429643587995 0.4637748169018013 -0.0810905368244281
P 7.054987667217962 2.4521987131533027 13.031982199247055 0.5342328137130478 0.7707267391428662 -0.8596575979473194
P 1.1940831010819584 3.7197820225648353 11.58274837496386 1.4112001065834083 -0.28798155178614915 0.20650869192163787
P 6.528712039134244 6.844512757094389 11.641538311306228 -0.0062740059341698405 -0.41844883927149223 -1.2061769980683614
P 3.3237383845151585 6.189195576363215 10.689629235882517 -2.683661943921933 1.9569545477828105 -0.3556159631056714
Ni 7.521146207279111 5.3663615346384566 3.234246323949382 0.9374563513943532 -2.084983915250622 -0.5508228568612449
Ni 4.857012438145252 0.49523497322850046 6.957867507085957 -1.744648532453105 0.4348738175967349 -1.3070778847504974
Ni 0.18353940419365872 0.8776415929973149 2.788155954144283 -1.607159048013658 -2.4556642288885833 -0.12572540192498347
Ni 6.415611187116535 4.987225827595128 12.85755894135286 -0.39528602800178375 -0.7513552765947898 -0.584366240034329
Ni 8.70871910390318 4.085330002875341 5.117332263686053 -0.9020610026141949 1.0280201178165391 -1.700534829963342
Ni 4.84264348687748 6.915743694155784 12.952120591132914 -0.3721399289026236 0.5967052212156562 -0.18107636789146236
Ni 6.209135402588522 6.319808878372648 1.373388082290364 -0.6308139899739071 -0.7303977005065163 1.2441794454540638
Ni 4.270080305098166 5.930042937478793 8.221067588838913 0.6961300375728978 0.003998322526115695 0.5279518658003424
Ni 3.8553988817147604 4.112505456340989 5.089291883056714 0.13093677092259384 -1.0269577379902959 -0.10083763754436828
Ni 8.036242884279424 4.572283996033406 9.528097157090007 0.7083571757667091 0.7281163606715073 -1.202956691358851
Ni 5.4019630527310305 3.0138991537800237 6.713302376333248 -0.004557537463695377 0.42889446008484844 0.4162299772433025
Ni 7.862187917951703 3.534538804861626 7.021354090930088 -0.09399516070123813 -0.7067517789528022 2.1574908241710973
Ni 6.526396266405651 3.5357478428323774 1.2289508261292073 -0.9328723315680967 0.31736463293395667 0.1790804205073561
Ni 8.563402040110999 4.2632352901253 0.08263774530082668 0.9792730303198232 0.3447689930888385 -0.5770123707724192
Ni 1.1231869745355396 7.788641208161716 2.735627904461196 0.25132430557443164 0.8691958764550579 0.9851058349515163
Ni 8.844689374152246 6.483345214354835 1.569630755439782 0.8134445897263668 -1.7806128663628558 -1.188310916421218
Ni 4.757369108771209 7.493784747971809 5.528154065855139 -1.65365102092761 -0.32320309399260466 1.1314394000451549
Ni 6.063716035583433 3.320315877028725 3.708035753664386 -2.3148132841760716 0.3955061144323898 0.2831928721482542
Ni 1.6431663048792706 2.098257497362007 9.754286770745717 -0.07170883849921199 0.7153888858025099 2.5376919328153007
Ni 7.062232594750386 1.9735219799488406 5.296397297358724 0.29070949224027354 -1.0076945188853097 0.07168235613665075
Ni 0.8752914091880168 0.763059204450832 8.250441631352912 -1.0188723898790002 0.5918190967679484 -1.641191712118335
Ni 3.5053172871377845 1.1082321048665589 10.719603147235848 1.0474635712531315 -2.5050764607731244 0.30849792657194613
Ni 6.530320989664551 0.5918445473251667 2.8935673246680156 0.38368675319995854 0.15914022994000335 0.8248034663826117
Ni 2.437690257504291 0.6422121391574425 2.67230500575772 1.2750920758725204 0.09173567524310007 -0.42689182783252283
P 8.71619653873767 1.583077117732949 6.673650581038658 0.9556240234423155 -0.734532034389864 0.26321745746759184
P 5.788483191688023 1.6133960699225494 9.329268072712392 -1.4639108067135627 -1.9421331664992618 -1.312507797516817
P 1.1004384601012567 1.1366258965950407 0.812700443471449 3.406604987922617 -1.5426449274906724 -1.3771952103928733
P 4.828051328599725 9.210916275784788 12.7850613045098 -0.493692173286524 -0.7485458321704528 -0.7965123327474024
P 1.024687581087669 4.699502691432651 1.4680046037937076 0.1527597803349563 -1.0465654849188943 -0.07142138916578022
P 0.37225163084371493 -0.10418652205644151 10.385008399034984 3.6948516204446946 0.2992638095681878 0.4776906556519451
P 5.858086577634947 4.228024384300199 8.539981114559138 -0.48536874102249317 0.2706096361666049 0.004324081296650617
P 5.148344087635814 8.00398017104454 8.349632036502527 0.3353135041028935 -0.5545463284594192 0.05152850689659513
Ni 6.574357872676134 7.042906587802536 4.261905348357474 1.3022578376540346 1.8036764330505388 -0.05784879268766811
Ni 1.0567642884808996 1.2759442719938796 4.871854774280031 0.23239147322567075 0.021655373486246573 0.9802701041257698
Ni 3.317460687359336 3.186159163735784 11.189472503837994 -0.10211239049173382 1.8073561958949713 1.2094908929329429
Ni 6.399075267793495 3.193822604411929 10.377712319896107 0.2912946753197822 2.536087564442658 0.7893320129488793
Ni 6.560174927250017 0.5375187511824938 0.5647751171892613 0.21698516597292955 0.20429548632040295 -1.0190225423036192
Ni 0.459373046957611 5.649769335274559 11.283953241076931 1.1837346099044452 -1.4582165845422628 -0.03903628796685535
Ni 2.3815071930327036 5.827693223108684 5.338349054885366 0.999659050175343 -0.3054072034617643 -3.8234170629216346
Ni 2.247722491423071 3.182764557125599 13.622534936001934 -1.0870313062434247 1.5060488735341933 0.5529753844278734
Ni 1.6235519888768573 3.562625686951379 5.304536912989503 0.22106627802083864 -0.4468762413742497 -0.06880297770632667
Ni 3.731481790004872 2.5773620440022733 8.659452666653497 1.6720572913489398 -0.6584618335981627 -0.2836361303332599
Ni 2.4734963820226845 8.839509111462183 9.242505647872886 0.5514221810081407 -1.0840755660492103 0.4784591583868534
Ni 2.2950330772477634 1.7626099560973805 6.872072312623053 1.419677290816484 1.1628114865985328 -0.6647175846998875
Ni 2.7625308593688205 8.057959066292527 11.91142162719567 0.24188527164871892 0.09395890814666398 -1.147888289629797
Ni 1.1366537974712887 5.49466836421138 3.4213421598354654 -1.0918436400304035 0.007453885174883936 0.4760464351803027
Ni 8.555282885122804 2.8947624122006426 11.267795843641657 -0.9676387885150044 0.9903030628817397 0.691325674205719
Ni 3.428468973658438 6.750328699172891 1.4757498870401797 -1.6035821292956771 -2.2929959311906636 0.7764672411710691
Ni 3.134040326904336 4.03695918375322 2.6517243894079137 -0.8728234459053161 -0.18346929360367112 -0.528826812206128
Ni 2.774305029145518 5.677967820869305 12.798455585167304 -0.6833323715875973 -0.6630047157738388 0.0770410493454028
Ni 7.031299823283327 6.897868532772836 9.554231907871602 -0.7219583114899115 -0.1066125923549325 -0.8199564227029555
Ni 5.9492201397533195 8.926810953242484 10.34895023660115 -1.274040237569238 -1.8614223816117557 -0.6291304316238971
Ni 0.48943717114414553 3.0234877549172867 3.30769631070171 2.4454183827908595 1.4578039224848764 -1.0234232424744762
Ni 5.686970503605358 1.5169520410249553 11.583306392488822 0.6154236235607659 -1.5655218320888458 0.7820059116011113
Ni 0.7104530323142503 8.61714842805692 6.313261472746427 -0.07174072017841193 -0.31704555903164106 0.022642677100180357
Ni 5.000525245273388 5.12693481526144 10.670817535086842 1.8529130585891638 -0.41501693077180785 -0.20203805774479397
P 7.84764226113436 2.911437835904923 2.8498178206817886 -0.4768365351817658 -0.20985446846541925 0.46721443871096957
P 6.174966129476685 9.224104089958058 5.059971782236795 1.0626510776268474 -0.46019069909496874 0.8736755094929664
P 7.905220369418354 8.240198289653025 2.085808126380105 -1.0246368031666029 1.7510950594093972 0.6936913462244182
P 4.3908259972078545 4.849693108276167 0.9735982865897757 0.685503153986671 -0.7662519912009642 -1.1981669832796913
P 2.837175003624567 -0.29761120670480157 6.972092303826445 -0.5068089131741401 -0.9962662224437101 -0.0005828690866635124
P 3.163503652222328 2.2703222011840305 3.9611087916143477 -0.2536640094512019 0.19783841784114958 0.13656131619822287
P 5.66096688694213 5.1113661263150005 4.888134935570797 1.8174521466783924 0.9271284871057839 1.4111702817867373
P 8.535556965615397 6.238598727906514 8.014683877202518 -0.025688920125671883 0.14585559701595524 0.6799184608100419
