# total energy = -340861.99270371394 ev
CRYSTAL
PRIMVEC
9.36935594954828 0.00000000000000 0.00000000000000

0.00000000000000 9.36935594954828 0.00000000000000

0.00000000000000 0.00000000000000 13.71299950117897

PRIMCOORD
 96 1
Ni 3.231472165870109 6.114610412196704 11.162971240093363 -0.14121578425109874 1.186155303530796 -0.13703311362831885
Ni 8.398175456270673 8.125855122429902 9.355337627981417 -1.416925696213276 -1.6191352465389277 -0.168936904315451
Ni 4.719859961257812 6.707072273200916 2.348488123010246 -0.3526067439657024 0.017762723300059728 -1.5210047235130773
Ni 1.2699225201712814 4.098006430298035 7.99125026861523 0.25829070958993583 -1.6214171005945688 -1.234606457053648
Ni 4.6095920098051355 2.751601856621087 8.322694049992057 -0.16041806821116245 0.727735837403637 -3.300933676435031
Ni 1.8767382346571395 1.191501009961501 3.544056370436749 -0.03649500960224037 -0.10880908578561906 2.3316450110214295
Ni 7.139486794013554 4.6583407693775944 12.59377216233861 0.27365870740557385 0.43808975343087125 0.5399386058485734
Ni 6.033237554828491 7.410045688915325 8.263220188539414 -0.44666952468008236 -1.0912936810642044 1.2963085620491352
Ni 7.6645455075328 0.3516553562662581 7.597495584771241 2.7555021657926866 -0.4195942657298451 -1.2042684681917388
Ni 4.692482702854828 8.26976843148871 5.97022863533497 1.318620595282774 0.46957342586144935 0.7425896145870179
Ni 9.082841150246743 4.613573986130005 1.3254490719164715 -0.40139856865742485 0.3931183309265036 -0.22219190698484959
Ni 0.2566435272836632 4.59093762189263 11.34372204636744 -0.6107300747398385 2.0406838077816665 1.562895193099276
Ni 1.2905632115681924 7.796025681101957 9.161106192210346 2.9978373804946306 -2.0444515023542147 2.2276521156775315
Ni 0.5766070366819903 6.3885422752795415 7.6066007249889065 -0.5678093641169124 -0.2874848146553887 -2.2707594883899667
Ni 7.63183708553252 0.33116270069507153 10.911008643096535 0.018700918843612954 0.409644610716301 0.2543556362015878
Ni 1.6448373028528058 3.0426796412910084 2.00085034662188 -0.1157153259871491 0.4001528691757818 -1.339968464830931
Ni 5.27893880662553 3.2245763198110415 5.901759255130546 -0.1057867540195275 0.49075005993906445 2.1292948213528557
Ni 0.5677267610097286 1.7032271298094785 5.863103165904319 0.9671549069000505 0.5066263648496888 1.0994890723908033
Ni 5.025385292969966 4.429869021890678 10.145001010627247 0.1826773938299951 0.9925111262766518 -0.05639586229122546
Ni 5.162646359227228 6.319499490484336 4.619484175931716 -1.9999048260920913 2.454577423582308 0.3778958575497943
Ni 3.1699436046338336 0.7099310995234636 5.685450805678794 -0.6306995758832299 1.080956046583622 -0.15957294660204777
Ni 6.289733046286431 8.980293548186284 13.371080175150075 -0.7554736696385376 -1.2168010534411107 0.0005193628385797507
Ni 5.899077745426599 1.4968202158403674 12.132261106286247 -0.7407718446519888 0.9124459453929447 -0.847583954612237
Ni 1.0271062885587763 7.169665489878035 11.830067517588503 0.05452435630012545 -1.7049594413935991 -0.6254578678683164
P 5.741916166901048 4.496841178996951 4.1544905302324056 0.36549594122354473 -3.000736813529613 -0.9249939572612844
P 6.1973511955494605 8.301455593678611 2.781996984610519 1.3973439174266062 -1.1595641833058288 -2.045328762752845
P 2.9533896780533495 7.176776831126448 5.23418326660521 -0.4647878315473479 0.48937040598271847 0.002029371725202957
P 6.124560668330849 7.343326504422632 10.76395097814449 0.9173009594924009 0.03015389787556097 0.292122056317084
P 7.26674138800032 3.2305352302642576 10.950227830621877 0.07987671902198501 -0.4490274833892976 0.2903068574852162
P 0.43451231963413994 0.25615257302619693 10.302343417724726 -1.2079927111208615 -1.0925419516490087 0.07492580277461289
P 5.057063085803809 5.043411934026551 7.947684636814341 0.294023644215171 0.12210066068820262 -0.5328786136779984
P 3.760456639577874 4.251935580983398 11.976618300377783 0.24809885665859852 -1.5162844352192724 0.6226306828321664
Ni 7.2253194648656205 5.45435189075307 10.205598257871305 0.34401745963479463 0.590992229991279 -0.43183760187357245
Ni 4.689418923423693 9.24464056002126 3.767002071720353 -1.2651976995769436 1.102192330254579 0.8773989810911406
Ni 3.7748760785519297 4.074376914318458 1.0823358317169116 0.45267047945852357 0.9154667344971394 0.7902807500153938
Ni 3.0463992756462397 0.44575929464678277 8.0473502249512 0.9944116857334745 -0.5120796746547762 0.30096665119190746
Ni 3.9069465215527734 8.983394805041653 1.3315157299643607 2.2575080226966993 -0.8613254725680456 0.43813526195682606
Ni 3.353451812395931 3.081356343100563 4.512317481334409 0.4745397687277892 -0.5290296722455535 -0.20528021883117553
Ni 8.733963808051836 2.1232741006248754 1.3516982598500105 0.6995802009050274 -1.0524227150306198 1.2064153393314125
Ni 2.709046241403306 8.043357942334667 13.367665044866744 0.34834154093144526 -0.007901257124947682 -1.285101380479406
Ni 2.8589653076956236 5.268894856930801 8.90356226980946 1.9981521050670425 1.4581623342655596 -0.3442642855382781
Ni 3.319038167593001 7.10314306186257 7.524994570654837 -0.45403522101653415 0.3357318225872347 -0.9340483541540687
Ni 2.4666610001694926 8.23820307092757 3.327335669318423 -0.4150740092619884 -0.8961844892287599 0.11653319390275413
Ni 4.470026081957479 2.2803607243019575 10.301603238596103 -0.5996812731248446 -2.0596510929127883 3.0792449343388455
Ni 8.803484430006025 6.129704444806974 5.308713683243889 -0.13865008040645152 0.18268639269105955 0.6166261285092994
Ni 8.029847330898287 2.0006292298188986 12.876204842173337 -0.7057739884205652 0.27092048253880435 0.2725104527337436
Ni 6.923972865955565 2.2475023926047415 9.004751315241434 -1.6707485998398452 -0.2472478215122129 1.1960856752706304
Ni 1.9676022497126293 0.5962105403632236 1.4065014973074834 -2.6461868297946105 -0.2453837717202806 -2.4253856325097005
Ni 5.805262383212676 2.2497791461269605 3.9482747511268887 -1.8994554251250768 0.272149469849899 -0.9823035896160309
Ni 6.965207401969095 7.94452060527338 4.717642234678761 -0.16030596811333034 0.07196697725660509 1.2000994244157137
Ni 9.073349992559466 8.565765128089353 3.276502228022944 0.8610254248291236 -0.4093432774257983 0.016310821344881585
Ni 2.481089808499608 9.183252539125862 10.759891236164334 1.5751500992072294 -1.0264514877778386 -1.0561775540873617
Ni 0.856850098005844 9.290522296639812 12.521258031123724 -1.464601405022684 1.909557546556086 1.2082984152867384
Ni 6.521259203848423 6.209550097137648 6.335461125465623 -0.02878349989059559 2.4091586291278766 0.14244991376851596
Ni 3.667671906530388 5.123829117076795 6.0767104300044 -0.1693649929918051 -0.7189897157798907 2.543610612292581
Ni 4.178789018234562 2.031341978978715 0.038124846737708135 0.5930820226407721 -0.674411929169516 0.049925424075533374
P 0.9175007505794367 2.4065003649177608 13.29819501743527 -0.6499316846399646 -1.107990424993595 1.262069438360607
P 8.244161981380785 9.251929919034785 0.28962272367403424 1.6091994754824543 -0.35496598822649833 0.07694103343242878
P 3.909420031552222 0.34046178658314885 12.243227074765285 1.3404076092508788 -0.04219488820049508 1.0712275064419488
P 9.266124493463437 1.9585420824040443 3.859180607430852 -1.3812642382559244 -0.3837960250843132 -1.3623895128386083
P 0.35760396042780995 4.266289434465044 6.055455108850051 -0.8096514412325216 0.4120403646419871 0.549673316637834
P 8.616472083078042 2.333157045691696 7.787049837997899 0.878929558803054 -0.7284593458332228 -2.204458708280203
P 5.833361082032166 0.953819185469063 5.9463958043289225 -0.22975352138219138 0.18267353717525314 -0.6967203628587292
P 3.263833921696224 6.258280117997991 0.6307141309843153 1.1561261041585575 0.1840159101357605 0.12669830736121404
Ni 0.5357435271683779 7.670101535675499 0.9855138431438113 0.16188513967499218 0.8298646829556031 -0.06996588766617627
Ni 1.7424659929825443 1.8170179591401574 9.499954575680219 0.22897859088937986 0.008005129692663633 -1.7537839190954696
Ni 5.176784717519529 6.426347626975654 13.271304028611723 0.1316278834523475 -0.1592387031910806 -0.14014800510821668
Ni 7.591099125390091 2.491658442133614 5.675796621196099 0.7496971721660766 0.01760614311753742 0.5697716300496058
Ni 5.880057952627811 0.9307433984325434 1.8574804602144654 -0.4148323255648274 -0.16417624970201403 0.14100495379187328
Ni 0.1864408162084132 2.150276584785519 11.248553749138667 0.11397726025011984 0.33896267081970655 -0.36991823866095647
Ni 2.6199998814231686 2.045939435717883 11.755537100949825 -0.2046220164218863 -0.29014950597174544 2.2334612661601407
Ni 1.8943994708274425 5.652438816542219 2.067508630300193 -1.5083422975540601 -0.17951519405192956 0.33802138995235975
Ni 7.393686793237157 0.6877641400246203 3.9506189640127296 0.6656082148349569 0.6696633587409371 -0.2597125296381269
Ni 2.1757518639086246 3.7539355677611463 10.43230200786998 0.2473882037448191 1.9425296306067321 0.27104775214528803
Ni 1.9049399963932732 4.245405139810612 13.361083072235637 -0.21628171214800168 1.0540075430192364 -0.5721437298262082
Ni 0.6708487045965752 0.15984308822949753 8.131890861602798 -1.1318212088646054 2.262448654531426 -2.6576781182636617
Ni 7.182211057640388 4.469904280328717 7.227477227565897 1.2080335916611258 -2.8898078531875133 1.7665301630175447
Ni 7.501396910485858 6.7656588566348175 0.7421298285541603 -1.1984513472893297 0.6508120303623889 0.4949751537640056
Ni 1.1909294792419316 3.8456240861497855 4.101640803513134 0.11745801970986869 -0.6299696396957409 0.8765222349131421
Ni 6.288992867157807 4.640913767108755 1.2102903166012493 -0.161972814292792 0.10322670660183512 0.15131019237262328
Ni 8.961948349023709 3.5765268107931427 9.409024038196714 -1.0799669431974754 0.63064378294463 0.5042912889586089
Ni 5.172399858884143 9.276084118953639 10.223630520541525 -0.38940642929255515 -0.4241700580259856 0.9434879023004138
Ni 7.570327263008362 3.515775906109724 3.0091804456393896 0.7168685556718299 0.2936230663426427 0.4504055946837469
Ni 7.041295942520304 6.097024130874869 3.3495101243021135 1.8113884569828158 -0.8173066437849342 -1.5143031431231857
Ni 3.165268295960634 5.410184746293225 3.9494805872516197 -0.7724056695071859 -0.10598447185263037 -1.9202479363903964
Ni 1.0807833294180154 8.57393520657238 5.77273385284872 0.10976656460288191 -0.7021299639100747 -0.3366476495332847
Ni 5.64472783650606 0.24640001030488742 8.020788100525309 -3.4328857759960165 1.437118369111067 -0.5736959048046766
Ni 8.034784981541124 7.369073494871434 11.936384411591304 -1.1686766871300585 0.03869613101861723 0.36052548459214684
P 9.207622234234062 5.263076486818463 3.474243424573533 -0.8054227478631548 0.6788056873618373 -2.9500680835301516
P 9.189839196434999 6.06772615447989 13.40316834577928 0.7668328034050986 -0.8822537380802805 -1.4568742115817555
P 6.554651588840975 2.5480244881816474 0.7528464980138911 0.3286090954995244 1.6204966456628285 -0.8612036022782007
P 2.778698034342315 2.615980427674065 7.158953505096333 0.10609657195046245 -1.0478590069193374 -0.7341507397910453
P 9.256399101874697 5.907931786901896 9.518947197346437 0.5676473846177513 0.04063499991254292 0.987320326104332
P 3.784770118549723 7.616237107695091 9.47942631655601 -0.7875612942017017 0.5235267401494532 1.103315388115429
P 3.500569441226752 1.8762697668542136 2.127777950082204 1.4485505222074084 0.29553596709463936 0.9697962011776394
P 8.301511809814963 7.934570349139236 6.375680960218016 0.9238480165822992 0.5861608700409066 1.5425382267094787
