# total energy = -381174.6943601395 ev
CRYSTAL
PRIMVEC
9.19554323574001 0.00000000000000 0.00000000000000
0.00000000000000 9.19554323574001 0.00000000000000
0.00000000000000 0.00000000000000 13.45860702525752
PRIMCOORD
 96 1
Ni 1.8032551860473898 0.312665934954257 10.384082612418249 0.3544116583849251 -0.30618444794742106 1.2484834721460563
Ni 8.118892080327063 5.726294540728302 2.5814418092774574 -0.028542073303750845 -1.059487849407517 -0.5359595665961674
Ni 7.503645882026835 0.963895212731498 2.9949837709549763 -0.21496813554290076 -0.6251434219516911 0.9260630219557471
Ni 1.3091418762372895 6.6559547467150395 6.337805509444935 1.5639143783924097 -0.44492220297167245 0.6970227245904963
Ni 3.366948084768827 4.5458902670767385 9.953473722855081 -0.9763699977404153 -0.8297865214194999 -0.1629907140343451
Ni 4.179411094687344 6.606344792004325 3.911191817025809 0.21168329414404186 -0.37602229467616527 -0.6503520600068348
Ni 4.199668876008512 6.032110715670694 11.533325949363938 0.11984708876733555 -0.4953675041064178 1.2323778248334452
Ni 3.441717045242008 4.137175965496184 1.8962772994586188 -1.600415044421605 0.46525628654333423 -0.10722682890016372
Ni 6.8597095894360764 6.55662449077711 7.58158270707793 -1.227774778843795 0.8799420592279684 -0.6867799638165657
Ni 0.13508620550181066 4.657294271028601 11.538426717089246 0.3486963531677027 -0.5941500588939703 -1.1710271896401059
Ni 8.817836111394094 4.674784193894176 4.562898343486921 0.5352108613556008 -0.38453033214717647 0.21758423300950916
Ni 1.5075816950801446 2.75229959676632 10.845564618190084 1.048417964746601 -1.1380733604219044 1.1870626458364137
Ni 7.4495668933977885 7.763695839250001 3.428445117969724 -1.0934894031639426 0.5637344227165904 0.3739186180696012
Ni 0.7401556963176354 3.759643750370501 8.936057690957174 1.274291948568728 1.3220363058325424 -0.8241992571397097
Ni 2.016168789638097 3.6138851976143336 4.08752646995039 0.741985919564748 -0.5692198713111939 -2.084091999563972
Ni 2.398657402463331 8.264586264281936 3.52931746647577 -0.22770666615549173 0.07745911071942788 -0.31267416943682275
Ni 1.0682554307133125 3.7774463216994985 6.236421888745762 -0.6559357247421994 -0.733760189220846 0.584567814522174
Ni 1.2455638916460245 5.6077915775481415 2.3972743927898383 1.1206654493581023 -0.31844218226885157 -0.190437240281072
Ni 3.0062621044957902 2.137375242472558 8.944684029884723 -0.5543750929888775 0.13217604264633367 0.16491389919898694
Ni 4.938282479758032 9.111385431918674 3.9657664454248107 -0.04214140925474033 0.2014734434905756 -0.43236596357321666
Ni 3.6153013112427765 8.454419054837631 5.763016022311576 1.8097372945326382 -1.4987279143927479 0.44323015998123017
Ni 4.6697726229363745 4.823292214019853 13.62024432761163 -0.06842939641699183 -0.5198906860587627 -0.506210874578825
Ni 8.991420377394862 1.2713114121631697 6.43266213369301 -0.45770958454432786 1.898283516304163 0.045446819478889476
Ni 5.315777912711547 2.002191564214504 1.9413235061576684 0.9636327526794048 0.8709105451533194 0.37897186422279244
P 4.905675084131675 3.2701741897965286 9.137371117000603 0.4377148865899558 -0.32367077765764257 0.11393997925428119
Ni 7.764302745090763 2.0778341012766597 1.0464298093035111 -0.672914518688383 -0.5952075536242071 -0.9093367103400016
P 4.82322784521856 7.957832143949276 7.817405167048768 0.1220186424973576 -0.65969596311558 -0.28975201342301066
Ni 6.589342232919967 8.128326707487988 9.51383572957913 -1.5023336294661354 -1.053583053887308 0.5578635657581101
P 6.920207067108326 6.094061089143554 11.607684788617453 -2.0163645143100113 -2.0880615257346813 0.20364165478648796
P 1.7551165182233701 0.8784070077344466 12.56888478768339 0.08182098723254941 -0.7034625666785691 -1.3696012000956994
P 5.074514449922855 8.144087868261696 2.055573530680979 1.3224512818827743 -1.7613774151720119 -1.0453336693943223
Ni 8.743241866238709 8.173348086220825 6.3776295672505245 -1.2131760550940138 -0.29737173475179757 0.894571379105369
Ni 3.6042390729634457 0.38600222982152 1.88724635663723 -2.363220986055498 0.17006073350724907 0.07800572725151728
Ni 8.52367068948571 6.630271594999186 10.479503843009095 0.4469240638930497 0.9912803391933444 -1.2141291630359023
Ni 8.525077607571111 2.5809774343538443 10.246911777308854 -0.08552054757132369 -1.596179923294335 -0.6147037146756058
Ni 7.595840396564299 3.0908794915667794 12.162340634260708 -1.1757937577908135 1.7240208289004244 1.921125453899343
Ni 0.400899929103601 7.0197672116223 4.201601779155907 0.22322883288979617 -0.12076702947844363 0.06908477061280359
Ni 3.948860439542392 1.9823383867871764 11.398565266085809 0.23627409610952857 -0.1914677384281154 -1.0000981945952905
Ni 8.173945796518543 0.94804209652737 12.408391296756982 -0.6829701031521722 1.9129197781600995 -0.337412038503135
Ni 5.9786754150545764 5.996045795860607 1.8234531963387859 -2.178633262576667 2.445801991382523 2.096370559821009
Ni 7.040402010208184 8.18688392557841 11.976558480414942 -1.7977868070389813 0.7975109492152458 -0.8737017347452114
Ni 3.0991462847613915 6.491133833233142 8.34977377502152 0.038268556562895385 0.011443723060567387 -0.9716129426714041
Ni 7.244313177160933 8.604306406419584 1.0527765731109875 -1.4118004591715687 1.1559414989515768 0.028260794617906166
Ni 6.435445624571774 1.6073257504549567 10.682648101672152 -0.6540161391219833 -0.6078211286231596 0.4950067783328895
Ni 5.373525923014288 7.058563207715814 13.240402192073837 0.015400650825786379 0.7019283894222299 0.46076739753404516
Ni 7.767199341148943 6.5202009447883915 0.2103691968310307 -0.07325664260230609 -0.8459500185532399 -0.45616383732376276
Ni 0.7270419323856709 7.73946558333476 8.796962228689123 0.5904756953661766 0.1378962329595625 -0.008406993116772617
Ni 5.824098336521287 4.214225420643741 7.3852762542207815 -0.39128976235819707 0.7911112163364892 -0.035334156524919794
Ni 3.3764286896449613 1.693524770929142 5.215008554287571 -1.1098287637539144 -1.2842441746854334 -0.5087516387228076
Ni 5.595248856839075 4.08891775561262 11.329576623968727 -0.22456940607809067 0.2545248147896004 -0.6219421414055741
Ni 6.933669342121575 0.42855460524762334 5.40594572956259 0.2140559081412765 0.907038144113812 -0.5179081084110951
Ni 3.2437370035512454 2.082579001486248 0.1752744068118576 -0.771367972271291 0.7736472552237709 1.1749998011346086
Ni 5.185054072828784 0.5110027637150432 0.13761865805553275 0.6656465242720601 -0.7633211907074144 -1.8249227440238251
Ni 0.4091658027439088 3.2227527743297717 2.0391539690254743 0.9306514126573778 0.06019415299139311 0.6186696413018894
Ni 6.793069489011879 2.386298592615101 8.473726936562578 0.2537249445961243 -0.1577585191011283 0.5821995714003135
Ni 5.210691246829428 3.9972657781146257 3.200187831259407 0.9308193056938098 0.3182498637523874 -2.171826781177795
P 0.19264662672649713 -0.109716621803685 3.540932356891915 0.3898607432211544 0.7774859122435708 0.2715820273822033
Ni 0.5500709478825943 1.0823246115673242 8.640330865840285 0.0690703724351004 0.8228939080647247 -0.7404589413972602
P 5.621023963985345 1.9127189304174241 4.3402255100659115 -0.19248435261808786 0.47777421650468677 -0.9250404942285037
Ni 0.9067256020860895 0.6381026400850179 1.1284742834313943 0.6756869392271976 1.3044512457609276 0.9415413200970043
P 1.0252202892775129 6.468669121581933 0.2927814926805874 0.9060942921433041 -0.49391020283460096 0.5481843907971333
P 5.068702866720414 9.116488958306896 11.251421864547542 -0.41744816592111983 -0.7774221488851708 0.08618980572420641
P 2.057695862015035 1.8641572676134799 7.005689754779551 -0.4282100324233142 -0.3168311290279898 -0.4333347552443892
Ni 6.029021013208636 7.589063281342464 5.383711826041731 -0.15633412794977594 -1.6103631567732524 1.0359745967769256
Ni 3.2274976745393604 8.198902500334091 12.860977534190143 -0.4578767062498114 1.0867371720417736 -1.0847121711919447
Ni 7.160192349414202 0.29053594106977065 7.741363543418595 0.29680969160074044 -0.5918769465890774 0.010830257846284573
Ni 9.09714153574687 4.591619702623797 0.3091293291003662 0.026950817557231006 1.4607990005574583 0.7685428441176699
Ni -0.06258854415996325 8.35582444234305 12.817600318553188 2.9507237148362795 -2.1979193644997888 0.16117808630563857
Ni 0.09179542796944774 7.797792912849136 1.7107369883948536 0.5708787470708555 -1.1297913229187704 1.319531794243134
Ni 4.874465411047678 0.6674401006056965 8.989932538530692 -0.0037905773906837937 -1.3951847049917585 1.656202326594554
Ni 4.877637873397113 1.7853790503740574 7.0743547137815606 0.17032298602970022 0.8585923899075989 -1.3043789977620956
Ni 4.454734848903003 5.792051869020483 6.1734498904409545 -0.5808481995787416 1.3049721512614043 0.6713952538303791
Ni 4.509724196293192 3.656147913434619 5.17692061500828 -0.5567525920821186 0.11478972884908617 1.684299341941086
Ni 8.900513238883256 5.778387292060312 7.927832604329586 1.2652730328995692 0.035078588870687974 0.30573347645293153
Ni 0.49590000382312915 2.552811486016696 13.220860743555628 1.5985142278544664 -0.3296290521236065 -1.5159764170605505
Ni 5.344155358538658 5.875841657217706 9.286977084965475 -0.4748439302317693 0.2396556109872518 0.1661752824099138
Ni 1.4473876703282758 6.722033919013684 11.688032685054118 1.3947049371418625 0.6088552263146289 -0.09528585448820363
Ni 2.6140262160462084 4.254428334822655 12.333440264531571 -0.18465740037450132 0.354743330692731 0.31286083152633215
Ni 6.374046983681424 5.05917628412907 4.772489597376612 1.0670582055556073 1.5624503922523738 0.6122439402812037
Ni 6.848261138348988 4.224303735817595 1.0504445833955776 0.22203121303726922 -1.6589780895674784 -1.1799221781368905
Ni 3.458544889008571 7.7142605998570835 10.394108512996764 0.11770458850303599 1.7104459184294671 -1.01883253778
Ni 7.559389263946455 3.29545273761854 3.1775769104738325 -1.532023186110768 0.4607789674982709 0.27874332101733285
Ni 3.1777222000538936 3.94559602176254 7.164796557815251 0.6703814678538841 -0.1499595918819998 1.1672127009900222
Ni 8.48799198248338 -0.11059019839265957 10.22841954025172 0.7471751770751713 1.011326202100626 0.267422753798191
Ni 9.41081070444699 2.221339745987577 4.164012238309483 -0.3098279582372793 -1.8832255935297761 0.9484606729246569
Ni 7.35594706968884 4.584088552872532 9.60134327582817 0.31034115042827204 0.21463800589699167 -0.26126804705070483
Ni 1.5322165548892273 -0.0655752565399521 5.611929571916969 -1.0410329851364395 0.6794914005749523 -0.6743795332696837
Ni 8.256466599775994 3.7055279795692866 7.309504060001735 -0.18118641110676537 -0.10989897641568815 0.1817404838380225
P 1.5406672589446762 5.818626988411394 9.750760735160682 -1.1227925230034341 -0.4769612336850882 -0.6573871124767452
Ni 6.924832425258369 2.8437952500326036 5.73993428972226 0.16210162656117244 -0.3235301383147202 -0.7272606975394313
P 5.315584806307669 2.735674054946678 13.094268461161562 1.0731185528170744 0.34839116322245806 0.2472604199177032
Ni 3.203506502743206 6.908832180365572 1.3229728925265176 0.05344809251681117 -0.696716249093671 0.7993983960459459
P 7.973722042325573 6.32358184346782 5.645158586252953 -0.31970407970041065 0.0760966831542625 0.25633795673893917
P 2.4550904501110877 5.162258321628069 5.293310442397425 1.750034993575999 2.1064410566831335 0.8998184864369212
P 2.3818295586967677 2.294986850209654 2.2824993027588385 -0.06217801619064131 -0.6403836359402132 0.0352433965833264
Ni 2.6165825770118394 8.927943543777056 7.854160672141296 0.40443761259406474 0.5445010284082752 0.625237267217078
