# total energy = -381166.9526419725 ev
CRYSTAL
PRIMVEC
9.30949151047110 0.00000000000000 0.00000000000000
0.00000000000000 9.30949151047110 0.00000000000000
0.00000000000000 0.00000000000000 13.62538184339424
PRIMCOORD
 96 1
Ni 2.9082664629154564 1.5984675845619134 12.924900204655131 -1.3710551589334066 -0.4755242441282455 -0.8174711943872567
Ni 7.939860320355472 3.7421082891015223 5.407068915268611 -0.4825379564419174 1.3966967707609106 -2.0354919791680812
Ni 7.779290214425326 6.024227676718063 4.282906879117681 0.2647331227811699 0.9798129619836932 -0.23636922692649612
Ni 5.907849725985644 5.601762961556303 9.003543246280568 0.27495737161233935 -1.9503378137972411 0.225605817762405
Ni 9.10820147841631 4.376959738765273 0.8239663178157792 0.8289516842230304 -0.5964720221589275 -1.8067388740259462
Ni 5.725095102289291 7.184935051913484 4.917290992318208 -1.0514729495228408 -0.2464260969418659 -0.5916360342228649
Ni 6.4742764145996174 7.422364318010565 11.460949183673172 0.2793889250211317 0.03162379755286812 0.42045738506108876
Ni 1.863834634048162 6.068010214298622 1.9348725693056508 -1.0135640902922092 -0.15939914002834485 0.42970512891160195
Ni 2.5102205434317333 7.214371663401837 4.1669273746128725 -3.387139422998838 3.3252773953867183 -1.1307297755726398
Ni 5.8207687443720895 5.196874565967602 11.352435891190392 0.7837930854085211 -1.9326797343958455 0.2939989616248227
Ni 6.290348794999554 5.99006184364967 13.594179084092783 0.5109445326090685 -0.5388615707343106 -0.48281023626669745
Ni 8.993974020174027 7.053503653750115 9.627667369120148 -0.41598906487709 -0.06750996992651598 1.224819552870213
Ni 4.424242645074365 3.4251294198520124 12.696294474411518 0.0901441623862641 -0.12196927731666092 -0.2399111786414836
Ni 2.2599907267981294 7.650921638899423 10.41229829334904 -0.6301370185115406 1.082093245511859 0.11768453389837796
Ni 1.0960529581218552 5.771372583538059 10.947953389422342 -0.6964519396886909 -0.21279632470256254 1.7655163770410498
Ni 8.543115356549436 5.03153800049222 7.542275220691064 1.0686381484482177 0.5951959836599814 0.9511145656077362
Ni 5.990359747371248 2.309712719827635 6.3559546420839075 0.17070350929757053 0.007671143392012595 0.035048249853384804
Ni 5.385736215956289 7.826293835995439 9.294690139072808 -2.212821221312286 1.6603518299865536 1.4584459269442496
Ni 4.228836422702278 6.852567593546248 2.7691137726684563 1.280114468787776 0.21108576976935908 -0.9131080044569757
Ni 5.661278539432661 4.5822898788624045 4.237521247135385 1.314661867745342 1.2064737033731738 -0.26309610139837913
Ni 1.9454137063038364 4.223008681148922 12.669683293532497 -0.7047283207648702 -0.41060157531293157 2.7956278301689785
Ni 0.9793212467200634 -0.19700186918078585 3.409588155076978 0.8553728545290364 1.0044508151370313 -0.9871768585479322
Ni 3.3781630362470967 2.092950524414977 6.569232294903241 -1.1510705440125208 1.3144078427530073 -0.755782459128208
Ni 8.418172673821669 4.6321701332439975 10.205615484166122 -0.8675395717985576 0.02593960268389726 0.6375392245128826
P 0.25780029495818607 7.110980453031928 3.350249457535307 0.45694133891973565 -1.06124494130794 -0.3532600612789851
Ni 0.6013828974936757 6.491256926729522 5.7351549385873035 -0.5730361597334905 1.4905235242050847 1.9755744768768426
P 8.58053020208128 9.222950268171354 9.793079341475055 -0.4128839435892051 0.13622912966978473 1.4056465237550309
Ni 9.315635563547081 2.7068835471292254 12.597537528810394 -0.0017496357012550512 -0.36723297851930947 -0.17392458733802948
P 6.193986250560608 3.3103899395882688 8.545716428418457 0.8380387341259632 -0.26973340420923875 -0.054651368796292975
P 3.2014688913865808 3.8566429605566817 4.98461444054728 -0.2973719918621137 -1.7563398527481044 0.5701760645768761
P 3.2977476504038337 3.257968194081969 0.8416301466070513 -0.15117135280191385 1.255088893277716 0.38728064119880395
Ni 4.800485735935152 7.8105235577344425 0.505497929958383 -0.2524154817560815 0.2549354199644577 0.13562209221340513
Ni 2.894739772057589 1.5575616797928353 2.132154654174545 -2.1294827689939453 -0.07654251244242946 0.09262167739247919
Ni 2.517463327662581 8.302939790519064 1.609730207135794 0.30471454827011396 0.6011768838337646 -0.3011332586767588
Ni 4.7757969650094365 1.5834886130613566 8.412337484675275 0.5492835373985832 0.9574757319390736 1.8823784150381322
Ni 2.3611942067127063 4.998777900610019 6.960702920682277 1.9117946634167207 1.4977989748205753 -0.516070283871408
Ni 2.0487862976911475 2.217194995295295 4.221102097330828 0.8061218308127086 -0.08737765538472049 1.2260207722671659
Ni 3.7035576856311643 5.775152237005571 4.916841343888453 1.900520633164798 -0.23003968516404252 1.5134569930728063
Ni 3.5600798057265135 4.561027000734827 2.578508454959412 -0.623675579156913 -1.066241623191583 0.6842160597441314
Ni 8.31989237417507 0.48388780780534224 12.082034688552664 -0.7378351306211679 -0.49171139541106934 -0.7126786859601985
Ni 6.560659184365726 8.035869104125046 2.9541464288857453 -0.08103011590013787 -0.7522168532641368 -2.3652611564139776
Ni 0.9286357213410815 3.3333285261497183 2.6322735600601987 0.6968131796828516 -0.9414415612943464 -2.021319287212125
Ni 3.9173873912845454 5.597769189788908 13.026545885406424 0.1397494841182174 1.6543675873786605 0.8800739568201423
Ni 1.5605872644651044 0.5965056550019778 10.732958135458288 -0.9438488851842584 0.8595393272019003 0.6946470252694681
Ni 2.5650068997280524 9.179298063468984 8.403276556793676 1.0984380054184697 0.5125003071319626 0.5811551892961991
Ni 2.5463786076381743 2.2644313541478907 9.01020604920347 -0.6468365906544086 -0.325335309844259 -0.1677541968612595
Ni 0.8777267681709167 5.051171717642422 4.150618076805647 0.5275530877000268 -0.8355157105937933 -1.0151142083881486
Ni 4.151139408318407 6.542831508527586 10.823458493226072 1.5991091811259879 3.114305525487404 1.1556309096896937
Ni 1.0789514226050603 3.539338259111697 6.18243503375645 -1.780380952857708 -2.3802817981925264 -0.7743352824297309
Ni 1.3376901142862148 0.22935607524233675 5.708026149992044 -0.33265549765475616 -0.1567609310745494 0.6608190209764296
Ni 8.201270836039523 4.307436457742179 2.88882638318428 -1.74840517128206 -2.1370855210418678 0.6598168049641605
Ni 7.139932970972718 7.228857231863532 8.188391154826956 2.657252857800785 0.9466506162991115 -1.383640966018217
Ni 4.871842986744207 7.032156990200844 7.290096927528518 0.20291917479816662 -0.8289072041383402 -2.1279874153953418
Ni 3.390265374936173 0.3697432040356231 4.469002679241349 -1.1861923274163184 -0.8139886351552948 2.367644826154806
Ni 6.997376730706697 0.5854729768631898 8.321824093619671 0.5210800783811735 0.12922158800370004 -1.712074969392458
Ni 4.3875260113899675 0.07401790342239134 6.945075077638158 0.9561277025516113 -1.674829197667122 -2.022935739769626
P 6.930097037086732 2.2407014608260014 3.940718838378825 0.05422739388499693 0.8862746863142156 0.29754656976676497
Ni 6.017310724682691 0.28432210472073205 4.690101235701216 0.3336751971685221 1.3751159592663416 0.7904671549945871
P 0.9886400475106523 6.532060427094307 7.999775275408569 0.9370496028742378 -0.6654912296411184 -0.992595201350026
Ni 7.711191285571023 2.0176274303124253 1.0994425439039264 0.17770256632322298 0.03571185157931269 0.02370197160263015
P 2.112081529035017 3.0286381854152706 10.958308336594541 -2.1221124446718034 -3.4257743617622163 -0.014646803378897354
P 6.126697247449343 5.857643639408575 2.123365563438886 -0.7937746221012653 -0.21137861841942954 1.2381008433601515
P 0.7300400672498573 1.6590072064811934 0.9591028935162663 -0.8310741298826719 0.2627893687912377 0.12277326127519501
Ni 4.852600268228575 4.560338098378679 6.695594675054148 -0.24797415815527613 -0.5154817583577896 -0.6123105318530809
Ni 9.202199412065237 1.9441476154871329 9.276895977403345 2.3230210167978442 -0.0974052148240516 -0.6063478865117429
Ni 0.43131431759086436 8.605656519098062 8.00920392819649 -1.1439910114579201 0.8101535776799207 -0.9772793969285621
Ni 8.148579115285544 6.259106142199139 1.6123871359526112 1.0179871590605694 2.049989401453308 0.3151892225491926
Ni 4.127204706187934 4.043400665511729 8.757073533182746 -0.592545947631644 -0.9132244754301821 0.48570247021282803
Ni 2.73485856848359 7.601553406539289 6.5570917872998375 -0.8276517344646843 -0.0863661834010706 -0.13506904792341254
Ni 1.2747393341204187 4.579925268072384 8.985298505232219 -0.08816184184891268 -1.0770564544188999 0.2754461383232998
Ni 8.254474578814962 8.457123585417898 4.441152405070395 0.10485730022672264 0.18834101987367563 0.4219154576638541
Ni 6.636848061159111 3.1790981837943884 12.625373838744398 1.5263325634838938 0.07633373886573305 0.42850416662496527
Ni 8.273940725121777 8.827715815060015 1.2678484486606845 0.646395646462248 -0.02598331143763912 -0.37159202681895354
Ni 7.55241791146164 2.33035186203816 10.560856362655713 -2.146361289916839 0.40048068482884575 0.7366747917644797
Ni 3.185521732790898 4.679601991413877 10.853896805978227 1.7596547760539503 -0.19658860459444855 -1.6579463058688542
Ni 6.405926129480234 0.16209220775758 10.386014806563756 0.4155769170403359 0.6219827648355223 0.7827389331123938
Ni 8.729314492026525 7.322138334682413 12.688104914915533 -0.33971548982533106 -0.8013064117019361 -0.017946814286407802
Ni 5.65696824496109 0.7617733302417455 12.367159271423393 -0.31538076973470847 0.20798296247431922 1.3580893428013578
Ni 1.6804376554521578 6.537366837134903 13.261747390235584 -0.02489907723452486 1.3033693255506584 -0.2622836327994128
Ni 3.925691457523512 0.3952716910765349 10.52194175807555 -0.33523431412552585 -1.2889392661682575 0.06560581092526765
Ni 8.2015687397611 0.5465881626551873 6.276886339631651 -0.0862222016240386 0.09112169580818501 -0.16595571019994002
Ni 5.006979562444694 2.4021932063947777 10.71092629334939 0.5078592088155253 1.0552727828849053 -0.6480997736375483
Ni 8.304382761670453 2.7267406920706097 7.2479947531274815 -0.050083546919952454 -1.1105882676277583 1.9387480520771125
Ni 4.6445052092155565 0.17362015083349025 2.8663439616964963 1.4416339975932333 -1.1665971788932104 -3.4675558165743765
Ni 5.678780383075325 3.7337949133712565 1.6650900280961491 0.4099881100986487 0.12188083136791267 -0.17714823648164973
Ni 6.799168351453524 5.721548186104261 6.378232254763107 -0.17402100370657772 -0.10440041519496213 -0.31993573609524256
Ni 0.9126541176275912 -0.026708930537661716 13.288098836307354 1.2029042408543607 -0.7046396177058057 0.1220672363471059
Ni 4.739601662837798 1.574635286835732 0.8192491985744292 1.5287871956719734 0.17959978334593582 0.23302396460334707
P 6.386841672316691 8.40216965827819 6.502331497579157 0.9391507083776407 1.2513805911881932 0.6410302683852767
Ni 3.324382105011101 6.248539869574445 8.67119254499767 -1.1390267254741093 0.35919211049270394 0.9076860621104561
P 3.3005684262675183 8.117559890276311 12.572562025552658 -0.9773806983931168 -0.23772702650597122 -0.7443279374343632
Ni 9.050333680499927 1.889910519177472 4.2626736307278055 -0.7288095300837899 -0.5343425998180347 0.08990453557163226
P 6.2771013888806655 0.0923911154506692 0.7639973677131457 1.251049690211336 -0.008662046550372178 0.6642478441523205
P 8.086987520849444 5.039842066731186 12.626995552128735 -0.022866363075212233 -0.07695954537519004 -1.1196403505276975
P 1.0660298486816462 1.5161251340196975 7.437591852928812 0.21935315198447383 0.48226181996239526 -0.5954854898759421
Ni 4.768256277057012 2.5431295951747215 3.8890241641430006 -0.8153032402016605 -1.7958114284801654 -0.31887849847532174
