# total energy = -381166.59245780966 ev
CRYSTAL
PRIMVEC
9.21136476741745 0.00000000000000 0.00000000000000
0.00000000000000 9.21136476741745 0.00000000000000
0.00000000000000 0.00000000000000 13.48176343613101
PRIMCOORD
 96 1
Ni 0.3862435843640958 1.6189618626960445 12.719437704424626 -0.1292786664938806 0.2302003791116229 -0.17089171404897666
Ni 7.702478859182812 0.3276620669383999 3.5469171190649798 0.3235028846212106 0.4028360724348998 -0.8400513936806178
Ni 8.076276047278908 7.5272694872070645 7.516109918617158 1.4707422278130993 0.2563770375069907 1.4966934004612225
Ni 6.829462538359856 3.193478889695597 9.114049604312884 0.6485628293168959 1.1824128057692282 0.05360698669217865
Ni 3.076909066744485 0.8428067284602171 13.458251807583471 1.1885263748661339 -1.436376605849036 0.9560788515915469
Ni 2.937891147504804 7.583477235895146 3.654421116670498 -1.4019665038002822 2.0313964689424693 -0.5211536119315864
Ni 3.3207523186735104 0.06977240465630079 11.263810843197314 0.2587871896103801 0.2537696817911307 1.2862658331011525
Ni 4.702042543931028 6.198106375981974 11.44070589495181 0.2996214500179227 0.9147787072911795 -0.0807498656555577
Ni 5.512532119736825 1.5252454360895962 9.703782372066572 -2.0009420091073538 -1.3270191037591146 2.6277597334376743
Ni 4.3753614873556685 5.050093967100347 6.956549897766564 1.5942076300593127 -0.16534455897850234 -1.7912973426598957
Ni 8.794449323944757 7.5172567335486 3.2708912004092383 2.071853805626567 -0.3915661559480353 -2.28245055157465
Ni 4.924377258792424 3.614558013880831 11.04045919364972 0.3683498657325721 1.1613732114901094 -0.6589372305726845
Ni 7.907367248902414 7.772347062034189 5.32878841817086 -0.7649553838767278 1.4998720552995202 -0.3655987853499961
Ni 4.4971817883061584 6.279304557674115 4.353383170677569 0.5344675554316731 -0.6326975801498652 -1.1317885558544574
Ni 4.452948814002624 7.743616814876188 1.7862531453941328 -0.31985808877977173 0.5637992145162548 1.4473968682189398
Ni 1.3900133878284138 1.4355820100440713 7.337315483417975 -0.9970977172060698 0.5219876777971075 -0.18136073190110055
Ni 1.5052199287726686 8.20128348048867 7.318521535589674 -1.1349715815681292 0.4448083031016275 -1.4068341163052287
Ni 8.133939191622957 0.3788588331147946 11.358655662005383 1.7935941091138723 -0.7583281083681972 -1.4029424945603064
Ni 6.306551775081414 4.416757361266558 12.947441093252367 0.2415011488364228 -1.1685419613244068 0.6018960213879763
Ni 6.055413122142727 0.9253737189781609 7.720048616614416 1.0183293728913367 -0.8523631211684352 -0.906718041770232
Ni 6.815756027372005 1.1526088799723102 5.441940824739919 0.6247729259861499 -0.5825420423413967 -0.06319488749092987
Ni 0.1423837519782304 6.357582736689408 11.196402074777223 -0.36306290630201987 -0.9421491288843322 0.9651057376805057
Ni 1.1300226132100721 6.397311353551371 1.2768029496604136 -0.3177284440312786 -0.3176662233347755 -0.19613274800395256
Ni 5.499249331534888 9.18477170069153 3.774961037898332 -1.4153228705025303 -1.0345522625081023 0.1236957730894644
P 9.008429330831705 8.570060474708166 1.140284994857629 -0.03116562696952697 -0.0011174014338948498 0.3611242945184103
Ni 7.979879113483303 2.69235300443212 7.043439781837329 0.1077302508991435 -0.5640861496290545 -0.14945462722112327
P 3.3716174757131028 0.5669447720998949 3.1442846742508945 -0.29500863383625964 -0.3075245069150833 -0.6076766326254953
Ni 5.5391621756950755 4.624178876336737 2.6551796201965208 0.4111919005987628 0.7964526831540606 -1.188188789021057
P 8.159703379279557 3.675104315442084 5.038175382041758 -1.2447877684620239 -0.05240936683965168 -0.7452918440095294
P 1.7470919486106993 5.642117601307447 12.728227188822883 -0.004813105117927195 0.02422261999279054 -0.4634210331068083
P 6.9697332032274595 6.54683944015472 11.27105097601751 -1.1610623651179102 0.07575549776475986 -1.3830614393656633
Ni 2.322875946479372 6.931395502467086 10.374460008977342 1.34870841580709 -0.242893144087943 1.4039333977186659
Ni 7.879972649656534 1.6987138600971285 1.4749854657246695 1.2338814059621652 -0.23254831051850916 1.803930458042874
Ni 3.788238299281321 8.507819282003254 7.075917212241204 1.4185439485429894 0.6622660378356015 0.4348709893832576
Ni 6.565252958612189 4.81181437957768 7.545891182511526 0.25352465565986015 0.33262515863745296 -1.0632429455745753
Ni 0.3253914654877915 3.394562985706877 2.3633663432194907 -1.0820150839757559 -0.14950707772561347 0.09652075533656924
Ni 2.5346083803279886 2.384094677679142 12.074065529197876 0.1402863304582939 1.8244558316897355 -1.6016350328716353
Ni 5.84700599102705 7.636009649983664 7.929110675775278 -0.8872478488607624 -1.1690176154092449 -2.247538570188813
Ni 1.6947161277256722 2.6275326295520745 9.413493575982345 1.3065716345380403 -0.17756989740010065 0.013350967385609263
Ni 3.526617113073699 6.455766675277784 8.458781659762042 -0.28567424380921125 0.5913377862561559 0.4819836266003441
Ni 0.7138734115253065 2.5597922519951823 4.833684002149828 -0.5187884541335194 -1.5125871888733433 0.9308231623485518
Ni 3.144612598841733 6.696072763080912 6.039142167163601 -1.420890594398295 -0.37551527313275973 0.4469616019992044
Ni 7.014279363937974 0.8705292522969349 13.178073405625764 0.018462063359929493 0.09389103102320603 0.579209635534054
Ni 1.512653500255999 5.56001670585401 3.5742444753470077 0.7157493544657222 -1.2962214016519675 -1.4355931907157922
Ni 7.876113087758746 6.116318666935515 1.269508469787242 -1.0518563010041884 -0.4095762193722107 2.489891782612886
Ni 2.0656485813343877 8.509210198104844 1.507692259114832 -0.36762687152361845 0.962011415025898 0.8795743914759044
Ni 5.480716065333574 2.8318867601068276 6.162702494945814 0.23703874218969495 1.1306742397443559 1.3939837427051218
Ni 1.2576368626897003 4.528610965383139 5.652067717684515 -0.9956602134285949 2.1545219713507606 1.234830914359628
Ni 5.83965532182792 9.197759725216308 11.548600454429561 -1.025316088621815 -1.4496483832572775 -0.6695427740026727
Ni 6.176008311560028 4.924939152052006 4.89226275616605 0.9028266771356257 -1.6567396871552629 1.2204857013815495
Ni 3.849678103238959 4.925841865813303 13.096414655688065 -1.3713086697051093 -1.7521618101110146 -1.1511646463882241
Ni 5.077479354981315 2.0451348716771673 12.5982225901488 -0.5493537285148862 -0.11763208339388774 1.077418722854325
Ni 8.393257536602784 5.365463467564763 9.089229581559682 -1.400972258207813 0.6528272610202047 -0.11368235471752033
Ni 5.578844735732482 5.621723639394073 9.451188323471916 0.6660648427564013 -0.03897740970446191 0.07662144530948094
Ni 8.894263674122413 4.8672299508834005 13.221915818057065 0.9277846326325441 -0.7785248950310463 -0.560606161500254
Ni 2.52231120817155 0.04503528418729969 9.070045071859147 0.855899416456468 0.28921208175914065 -0.4821463774304535
P 4.00788329558865 1.4157038845657228 7.133187952440037 -0.8122942781720075 1.4030666788429966 0.04514625751933515
Ni 6.7402873146546245 8.481355030613406 1.5220233006436616 1.1589198648536105 -0.5672442356420618 0.1076942554548855
P 4.800023832491356 8.669055013408727 13.399201431683796 1.8927682429128887 1.043163915436513 -0.08984514308860655
Ni 3.500677909483788 5.556101875766754 1.7973887644352708 0.45149599953444824 1.7573767786530508 1.8597802180226422
P 7.634904286194321 3.7722105243358506 1.1674115433845929 -0.6564977678932564 0.6733822023534209 0.886173641959977
P 6.902140207509146 2.328025099464728 11.192829907464665 -0.2214303462284767 -0.1355045927989344 1.0010050226802762
P 0.21266370284113775 4.091154034385808 7.79689442838602 1.5504975907658716 -0.12280077207902076 -0.03383108961683206
Ni 7.756844334888656 7.305192690563182 13.021806284453389 0.2553244278727603 2.2846691564925234 -1.61110980513129
Ni 1.120479639162079 7.13537196706048 5.085388232894062 -1.3734689105812217 1.0512747174691055 1.1269564245731367
Ni 2.6540337264015688 0.7623942761950004 5.430845735704391 0.04098312728058103 -0.20992388825077396 -1.5424389821274533
Ni 6.638418830101773 2.76534385998839 3.427091078617763 2.840702353910114 -0.19040484438123984 -0.13626795332752015
Ni 2.3465215202063976 2.587435558093664 3.1821415417629035 2.1338243337920932 0.773557523723442 1.0654828906486875
Ni 2.1171308998230294 4.060443343771901 1.104226185776284 -2.698695698326604 0.2831800166324478 -1.630582826254237
Ni 6.655653293850609 6.783046470572368 3.4451435115707136 -1.126241400783983 0.8655361682152836 -0.20561729045562005
Ni 0.4627338374501275 7.972721882947309 9.68213105884282 -1.2638635541465524 2.352198409692749 -0.9665851504395095
Ni 4.634385068658336 8.23937247439644 9.80707953931715 0.2670358027724175 -1.0153324950465417 -1.0927535534391826
Ni 4.10988995061517 3.197237126579362 1.2890098504407228 1.2023455401374132 -1.0875069603282626 0.0770518479786802
Ni 3.092826305311022 3.2710938504372846 5.86041497492827 1.1025237454520689 -1.5955278915326327 -1.618448247774232
Ni 8.135606448671885 5.620645909699464 6.055226131435029 1.4402905961914616 -0.46971277965279107 0.21348280924662588
Ni 0.6829094083763408 0.8847893663159483 3.265013428459408 0.5700066288785474 -1.729152236589719 -0.2077237952756616
Ni 5.511417544582571 6.245673864383359 0.43548385663335376 0.6450147069543214 1.6006482434783336 0.45324409257380655
Ni 8.753200831872448 2.282935468224452 9.905254266540613 -0.29488110711945986 -1.3782449918136261 -0.6028588995218779
Ni 3.1573334937840865 7.484151088057783 12.955677895755954 -0.5170850982891675 -1.4436893374603652 -0.06140308569782974
Ni 4.639322360250733 2.2604781605709703 4.080916523423512 -1.7059616574058685 -0.5083199505020277 -0.04675088300229368
Ni 0.5796536922678639 3.835170203503835 11.176570927259922 2.347699236270815 0.6126871984662093 0.8905401464587889
Ni 7.697900810821951 4.5552410213413905 11.073341002973198 -1.6598496935391542 -1.4244752264257594 0.08999786661638694
Ni 1.6149364962298545 1.837483072484208 1.2551009739296497 -0.8896952819599903 -0.9736469423822973 -1.0848852064346994
Ni 4.613088392983665 3.4261763900820816 8.635825014491608 -0.9027143199274776 -0.7041220546394389 -1.0364880460782342
Ni 2.496749670542997 4.186832481718341 7.757042379234248 -2.1173191370482183 0.32050549255578353 1.5076190462347907
Ni 1.065193026965116 6.2177818514322745 8.204893414397365 0.9043199738517006 -1.0252086165096732 -0.4833396264076063
Ni 3.0630551739180554 4.514351772500617 10.053310377031156 -0.6008367268855265 0.9268580070532166 0.7887324316916674
Ni 8.28812822887137 5.059535616134316 3.239357934908761 -0.4943334064149486 -0.31213783731737854 1.509165307675988
P 0.4038446604363979 0.15303024754258396 5.555282064289658 0.17233898801846448 -0.25020047638263365 -0.6553952788576971
Ni 7.123240599472443 8.132474584602079 9.733240317052559 0.2767160061746589 -0.14057172290919662 0.2817083171829277
P 8.249145732567213 0.4576242933338904 8.205027900325067 0.027540371512113863 0.09213239646088649 0.4645137519503548
Ni 0.9314440084546353 8.271179317434779 12.645719151040371 -0.41240006197425105 0.6488230249568181 -0.06952108681927381
P 3.6534852419955204 4.293739582877613 3.8510791518419514 -0.22073974791935533 -0.042932280587151865 -0.08947850377780718
P 5.598603113466986 7.775488137468905 5.479474373343545 0.5012509594703883 0.31045505029831694 1.1201162617228517
P 1.39176354716154 0.7471577574954009 10.717206607094308 -1.8206066331469744 0.9386002351908094 0.8895875527375323
Ni 5.159663152718953 1.0624940970461374 1.5475848382722144 -0.43503553998557987 0.22808384698925235 0.26565923413986503
