# total energy = -340862.24327933404 ev
CRYSTAL
PRIMVEC
9.33982368442403 0.00000000000000 0.00000000000000
0.00000000000000 9.33982368442403 0.00000000000000
0.00000000000000 0.00000000000000 13.66977604599634
PRIMCOORD
 96 1
Ni 3.4163394061206507 8.38842259191587 2.4332202197537276 -0.8470905599155863 -0.16728651319622156 -0.35012948606980343
Ni 4.553248130138915 0.8965707757268213 13.759449810754976 0.7910055439965602 -1.0083797178777925 0.8228306589269572
Ni 9.481882455910203 5.85567721042203 5.588737576163228 0.41414249858665453 0.37763540479955604 -0.19702749190408003
Ni 2.262880514440649 5.770572736531649 8.716614658205827 0.6921085751183307 2.3939459259431803 2.158489697749257
Ni 6.638494536927988 8.213412974734355 6.321697055597014 -0.4125507286195024 0.46946801063183663 0.08142940822108556
Ni 0.0925959465097264 0.07669209465058012 7.7254875069669104 0.2868870331703898 -0.2695984212932712 -0.4194654534614647
Ni 2.6081270988741365 1.7919572618038073 11.507012153234523 -0.6544126032294536 0.40336006325916984 0.40560643609118535
Ni 4.426039730842712 4.893983579707492 7.779989114401056 0.1953436764437539 1.1440498897203135 -1.5209332468451937
Ni 5.295241087091004 8.280781123348415 3.8726887977984767 0.7233387367772058 0.3638031269021541 0.3305173682658308
Ni 6.7127087763411755 5.4664213765404 0.5988003833126038 -0.5787419518690161 -0.2240770398227044 -0.8375599947173317
Ni 4.639436023582772 6.251788474926524 4.840699885288635 1.34587660278525 -0.6623920218905044 -1.0905508893609088
Ni 8.069663747600153 7.3630687226108105 8.241248451417356 -0.687084639541178 0.6480707201718258 -0.8467632584831546
Ni 2.177654622841689 0.27045327594861335 0.16186381527186666 -0.09724426376615511 -0.006936836329149343 -0.9188564769049787
Ni 4.148030537490969 1.3112458738907231 4.296164811869634 2.578601526545469 -0.33182194600986725 -1.2738155231529416
Ni 6.509343454294517 7.121979852490923 12.298998384702967 -2.5571377002447377 -0.17383151340359093 -0.013960061724517893
Ni 3.8709553265129135 8.516695731118075 12.35873496334163 -0.1324120699165397 -0.4500489826752766 -1.3393670838015062
Ni 1.0865390546053109 3.478449233970852 5.047237011476335 -0.4709559080312728 0.22909197653879254 -0.9404843395873995
Ni 2.436265002291948 8.39588511108163 8.158970208189752 -0.3995874835906151 -0.6281626683939892 -0.5582893404416193
Ni 2.638378787957866 5.1343813028708505 11.187741486578025 1.735228781801102 1.3118290262822376 -0.7271596531851928
Ni 4.415411011430152 4.935611174102733 12.791151056693721 0.9309411759836548 0.21187098467481577 0.22013553867645316
Ni 1.1375718515035813 9.103498176858292 11.010813469600958 0.46951814714348167 0.12290567308800122 1.8275799791410137
Ni 5.586298014203156 3.211414333509934 6.0830916446087615 -0.7365603776738023 0.19746432233118252 -1.0342894957650188
Ni 4.139652715598995 0.884919345615073 7.045525923345632 2.208117130968397 -1.5075848505627456 -0.5336134349614939
Ni 2.236168618553194 5.6893256098445955 4.286472876777881 0.1900160935832534 -0.0013570282485266952 -0.13768694516223384
P 1.7951141222268703 5.426484290241533 0.32028870744381693 -0.18915657379643552 0.16634523232887483 -0.027762514825248958
P 0.5521470297645525 1.67160429313047 12.755390739569984 1.0539476363155784 -0.07814328127064607 0.9789143614288238
P 5.899658440398961 3.4024417484001845 3.6501310719549185 -0.9588756976103938 0.5600847417791451 -0.5684333708541565
P 2.966309339183192 7.426607543492752 10.633253896985014 -0.07418455373321417 0.27685921662074253 -1.2553601446612317
P 7.854324771522823 3.622889608061583 0.6697176649466756 -0.03048814128652814 -0.31929733118029524 -0.22383587034617577
P 7.967486075918768 -0.04057593024246834 2.5074606106733786 -0.23848807304171185 -0.3256466704370908 -0.21628454036147912
P 0.8486742916393925 7.3712690878517835 6.978201671903136 -0.23338520459750775 0.1313247503896319 1.1508566282295019
P 1.3433748675455641 7.410627105078964 3.1685174570688526 0.24644589443620785 -0.23021631995122288 -0.027386619543068966
Ni 7.128302913160786 5.2683797540237585 5.484354772097569 -1.27260427645366 -0.36721909456223856 -1.3284301251740283
Ni 6.29578838455093 0.6882338655050252 8.15169728744585 0.2027469108863605 -0.45177676399966066 -0.16627992630857813
Ni 3.9152354308494255 0.2753370697806239 9.398449810468723 0.2631225837609404 0.5819036374264493 0.9118533061142683
Ni 0.5680051164873882 7.4727089134579545 9.54105304123041 1.008574607497418 1.4908281999296968 -2.0821922114380977
Ni 8.185253406167684 4.4648840577643645 11.790988559971755 0.027614676393475025 -1.0957123789571903 2.612708495531507
Ni 6.449568582378533 5.68181639156015 3.114070954594755 -0.22093489464929691 -0.46621710779470676 0.3256623541663746
Ni 1.5507189545041307 1.047881524158396 9.331153578497435 -0.45857398942715216 1.2216956625292508 -0.8499650532499039
Ni 0.38215383191211216 5.8613184639591 10.895290123781956 1.1237985956704453 -1.4537228104369673 0.9255290038291479
Ni 8.789997653306434 0.5817411952572064 5.5212227923164985 -0.4161204482486317 -0.7022693177014163 -0.5206296211073163
Ni 0.634213258993329 0.6202941196782681 1.9716601404131002 0.778206592459679 -1.857498363967001 -1.2380000561162292
Ni 1.028342612900859 7.5545444490404305 0.9743369501071418 0.06336817984400055 -0.6894875925557157 0.9346219672693518
Ni 7.528038029275186 6.001714694371766 10.128470047372513 -0.2623671936521546 0.7791015934701228 -1.6106655185050198
Ni 7.719009405223016 1.3803979288385264 13.824928513027068 1.692820234927904 -0.3128276642955516 -1.8330397167040042
Ni 4.836338187603516 4.035737836702553 1.6183785056187816 1.0611503247116045 -0.24070847773179838 -0.41371055325555844
Ni 1.741783728689329 7.158722719071778 12.424364036775884 -0.329785889416445 0.08729203764944968 -0.10838768197748429
Ni 1.5569112576416773 9.257315733980843 4.256249207165362 0.3088206000186875 -1.4287676831535265 0.48215511918120196
Ni 0.31950509623229334 5.575277022193648 2.483661805809454 0.4756900802821485 -0.5034945040889265 0.2793950956687188
Ni 3.4497572954511804 6.975447357883133 0.38929973105319327 1.3569755409118889 0.33666847546889117 0.22124831212465768
Ni 9.060366870841415 2.271108899152834 10.892309786027521 1.4620732392841918 -0.03639242258610507 -0.018983483081038272
Ni 1.5075222697210962 3.657895267427381 9.680525563075498 0.15205041297275748 -0.3836934380681779 0.23011476137635206
Ni 2.4780980728093995 1.5930283560321625 5.6000014035898955 -2.761183789558496 0.8464171879976455 1.9542374059619636
Ni 8.217812031714422 2.8225320925777786 5.92035268785275 -1.0618938877458486 -0.02854567284817664 -0.6961446928609173
Ni 9.162656620407642 8.973132917139027 13.145089281096743 0.2735939156059095 0.025121991878608346 0.8919586240728703
Ni 0.625950316933318 3.5111479568736423 1.0408234193604415 -0.16470512562229053 -0.0926000801259244 0.2110052942404108
P 1.7704289680903167 1.8644249541782 3.469320490250433 0.7085798333004765 1.6508760292856344 -0.32898910454676245
P 3.992083500556411 4.233349827327299 9.646596785386562 -2.388992181482331 -0.7901018012353683 1.3840973368293454
P 5.456969474918686 7.137325182890605 1.7313315319453952 -1.3708325013996392 -1.2158456315063768 0.45988268093624673
P 3.590041447979003 4.532261546202162 5.864443568981458 -0.5476035785929988 -0.7677416883726133 -2.033873726838368
P 8.35425751668639 6.6527004088317705 13.183173346366214 1.231237283471099 0.22707211789528634 0.5509295576424382
P 4.338422844367113 1.037495640162994 2.1425322156791804 0.31817787286387134 -0.030440061657412087 0.9854861011090704
P 4.077935160345742 2.8085877357386284 13.194040231284063 -1.9267350867766364 1.4196680348451034 -0.7284773435553519
P 6.849639932147462 0.282727672303611 11.535937587347616 1.0512659757183571 0.2988812294177885 1.3081752315797341
Ni 6.4126482591466765 3.939313496443082 8.389305205259005 1.9500233678806156 1.5640102805403258 -0.24737971910438686
Ni 3.269050385790173 3.636124138296731 3.409050607676395 0.36808787032043705 -1.557002995984557 2.088342804420526
Ni 5.088709564797544 6.104284638650099 9.892475117118718 -1.0053530152363266 0.6534276136083649 0.3673461070584061
Ni 6.0106062065692685 8.441192596029198 9.998442889272523 -0.023494997798146636 -1.1168252496764055 -0.1068722737742224
Ni 6.328552486219878 2.2665417253455034 1.5735146622987153 -0.8570687541742206 -0.2783160036719271 1.5454484583777386
Ni 4.887455042915418 1.1078058332541691 11.485263439680843 0.17184430777023307 0.14114276492131822 -1.2840677970085692
Ni 6.793498251665122 2.7078390570889863 10.536430746251979 -0.19716761702637012 -0.39896064863989356 -2.0423691659038887
Ni 2.73527011940418 2.4724474794485913 1.3169543741586995 0.5166513531858586 -0.5798457264561562 0.14125563635009866
Ni 8.107816927565276 0.40119026065260543 9.701016202371823 0.3567138241555405 -1.5047453242314213 0.8741717324030944
Ni 4.82381348397237 7.792737973801886 7.875171258103522 0.44871920812025945 -0.11737985817376559 0.18965639625098948
Ni 8.029960156894708 7.113228437649473 1.791355777155153 -0.07386342294836956 1.0442802884291433 0.12637049170815012
Ni 8.817204559851943 4.48057496164231 7.490845917172587 -0.9072271201961666 0.9571682280009839 0.32634652471759285
Ni 6.052056344313509 2.811445721802111 12.538738584275253 1.164762953897949 1.616590625740203 3.1263717126233193
Ni 3.283340316107588 6.597483370899381 6.506389268046544 -2.2098346278801357 1.9235196651631326 0.7511660434021191
Ni 2.955783357831737 2.3887906782374255 8.048244729824383 -0.4338106664395432 1.9773601080223555 0.6085842320414293
Ni 3.136013936482163 5.314256968219275 1.962911527518772 -1.566198032220264 1.6066720810749104 0.5403330130735147
Ni 1.2623985957468806 3.9758695665492008 12.511371966743841 -0.6445138560585029 -1.5348352016382663 -0.6038731997190051
Ni 1.7821411070563546 4.4241063873291795 7.157481456497148 0.6071914654589607 -1.4649287064551157 -1.7065882352462738
Ni 8.14784741210151 2.2952897028075965 8.546166610937401 1.1524795085449056 0.49375130865923356 -1.7107745054134793
Ni 9.113108855483533 2.3463878784720253 2.972082284234953 -2.2701259685710258 2.2677803511569845 1.596206405656896
Ni 6.449260368195216 8.731978668252982 0.8451419703021074 0.3859917471840514 0.9696267654793107 -0.5583901276855415
Ni 8.374366157191877 7.959724682393428 11.294365848340533 0.029459185801381522 -0.08893188724571781 -0.7282089203853135
Ni 7.82545537635215 7.637808977654648 4.49566157892448 0.6581170486642344 0.14274507641143158 -1.5185922574168427
Ni 6.909713678423024 1.3340630632799022 3.818911960686313 -0.5914041207177169 -0.17413850312104848 0.9306969211833326
P 6.694253284637116 5.992309491868736 7.265964443183295 -1.2461553382335118 1.1400150575293078 2.807655193647158
P 6.197850992846086 4.899568794302142 11.32262068310932 -1.9684412082661713 -0.7300158916870654 1.311583743040651
P 0.7300940215113135 2.35312189138631 7.122732642284115 0.22064513132302 -0.3909429205417396 0.10299402176573876
P 8.442406773114993 4.5536310629121255 4.0569158870259105 1.901106330464939 -1.192340349295585 -1.2149943392496751
P 8.721947697559582 4.171249339300834 9.611479048135923 -0.07634299483711368 -0.09549899894027425 0.6352699688627317
P 3.6918735461821224 8.786028228218264 5.552744697428443 -0.3245652644474539 -1.2916039574846143 -0.5720791951368599
P 6.438089939005917 1.2123278006935079 6.014086224893627 0.8665892920701462 -0.8749155525476544 -0.056338269580412645
P 5.167995328499853 2.38806217198595 8.990858034626864 -1.343513501869712 -1.7806540040134364 0.652092182626393
