# total energy = -340894.71067641757 ev
CRYSTAL
PRIMVEC
9.02295890752292 0.00000000000000 0.00000000000000
0.00000000000000 9.02295890752292 0.00000000000000
0.00000000000000 0.00000000000000 13.20601241582943
PRIMCOORD
 96 1
Ni 6.201632956107021 2.0983251548768798 11.59382259661252 0.9206135688054016 -0.5254180436348952 -1.0491833821577157
Ni 4.6778537241639135 0.3341120427619025 5.690854087425365 -0.7234860609883474 -0.08821300680182227 1.5595543016515012
Ni 2.7479511177744036 1.7730835828863225 4.815757016891952 -0.4709667066645502 -0.8656624093805028 -0.5542123421587681
Ni 3.5239797101458135 4.180318754371667 4.746214366728194 -0.7088605977656889 0.4009967052333159 -0.006589223181743491
Ni 5.023261609015783 4.520971539949304 2.6954528367359343 -0.019378918747244043 0.15827248262306934 0.3160744533676234
Ni 7.273208563141659 6.092184466170678 2.6239558137015897 -0.6781821948452256 0.22979054526771392 0.3820085941665872
Ni 5.203062108517971 4.3906168545321265 11.55145709827797 -0.9820616488085538 0.5882784306045418 0.7438918783382092
Ni 5.644961514505806 7.714061305911637 12.422419849100843 -0.1409735863333056 1.0045611154626506 -0.11533454560896265
Ni 1.92231429806004 6.32052848388041 0.39477880837905027 0.6871399182591457 0.313282492444783 -0.31048204688151043
Ni 2.5703161283781295 1.5299870275800587 0.33644718449277844 0.9134270783592914 0.1303767846540658 0.31138604675301856
Ni 0.5938875373630825 -0.06981875270226187 4.5705878879551545 -0.3354181480015578 0.5260333086213907 -0.17412564760524207
Ni 8.593258408912245 2.509717937247669 1.2844750262098246 -0.1455735469991622 -0.22779176967013026 1.2084053731782478
Ni 6.889389942786161 0.7189764240393819 4.98964116232561 0.9628457380017353 -0.9292452763384708 -1.724066594536695
Ni 0.7026060699345583 7.5366067756908555 2.2065005053301228 0.3872844978535459 -1.140551646759068 0.9258267375752249
Ni 7.59230550020669 3.735865851050609 3.7377110461200225 0.03731930527574863 -0.022865077523631587 -0.15022467261792838
Ni 7.565281738676652 3.887063571237197 12.689287389298887 0.061485360998990886 -0.1820708705942477 -0.2941727681985256
Ni 7.88030932133432 8.83046297213867 7.0422911975894005 0.3228945616132503 -1.0272027641215664 0.04609653724774642
Ni 6.867382946334822 0.7971684824845067 0.40996083881325407 -0.4714459602938139 -1.0990941509452297 -0.0176940748456534
Ni 1.9976108890343842 6.537431389863904 9.235624499179695 0.026384146420483593 -0.10187996276595357 -0.5054387722994909
Ni 8.996629780932382 5.045936304416445 1.4197652700767285 0.3309020052987591 -1.2774037547248323 -1.326666348405386
Ni 6.453310345207965 2.0505846800002767 6.882802280584799 -0.19975003304156563 0.2976692113875583 1.4141067387072421
Ni 3.339351927699196 4.193663710399354 0.27532115027400167 -0.021613207394401486 0.015451301558063712 0.45328831554818066
Ni 5.9006992350553364 5.739513099505225 4.895561478070104 0.6646137121321715 -0.030391210697347657 -0.3223147778503804
Ni 5.317798052296252 2.8560642098121014 9.056617117753799 0.4980849030375809 0.020514575013584023 0.7417637762516128
P 0.13515309489352928 5.64039589736584 12.382683640953221 1.4216408423007583 -1.6834763318191586 0.9571188628202872
P 4.038829737826588 6.084280354284096 12.645364528279833 0.01014351619190511 0.32197025002676805 -0.09770449123202528
P 2.441811149509752 8.534230212608572 1.5991290583742228 0.4477367896023321 -0.28816692832407786 -1.5036397498720684
P 6.3480394851842785 7.733803539710543 5.901714317917483 -0.07787948608629812 -0.27081789552266905 -0.9522787611191664
P 4.523714519416793 0.8664675127613495 12.423939315358492 1.7049021057931026 -0.08159267327182722 1.5013149583936336
P 3.996945163194724 6.103778968196086 8.094850016710614 -0.6032106264343418 1.3477673920500592 1.5211155380593286
P 4.544016176659726 1.1737606151573992 3.753756573708959 0.3084110232850947 -0.31881627777881866 -0.9095398274897432
P 0.2294709852606849 5.692133542979607 3.429535498355813 -0.4243929726700691 -0.44428276961546065 1.1908213415478974
Ni 1.481741267012076 1.2101862997306077 2.6101154972371745 -0.19386040703000806 0.6663530634207815 -0.00048028207052820514
Ni 1.759657420229663 6.265551596066549 4.794363581637288 1.0879664164631844 0.6877171309188543 0.2251301636775671
Ni 5.821540817725448 5.466252793015351 9.370193808640504 -0.20406820080094532 0.8957957384307734 -1.0458337489591922
Ni 8.78216307381804 2.286047812183198 10.13788608940003 -0.6789990343195661 1.178349948553764 0.14151351799717565
Ni 2.4209771376991163 5.041145113307114 6.91345327154224 -0.6655393092702344 0.9662015418478457 -0.11802083419187417
Ni 0.4602710523488738 9.18446973670277 9.344878093206507 0.618966860827334 -1.080947819053506 -0.7940373888443486
Ni 1.39494040360007 1.109426919094239 11.469223656597684 0.4749259484226143 -0.37079909860401306 -0.5480254966217658
Ni 4.104796589427957 6.892611139068706 1.843255133276673 -0.2897371010246752 0.05881835568978903 -0.985502813279619
Ni 5.7127780726559765 7.9739044727036275 7.987973070025041 -1.1568655534277432 -0.16133132405405118 0.06040241234745727
Ni 5.446104526071586 2.789691325065873 4.808823775369522 -0.20169532969339454 0.6855525191673677 0.045870794390185515
Ni 0.4457486002010959 7.102142287733321 6.741787871671265 1.1767836325079088 0.6315824927088155 0.274968684466249
Ni 5.014437155334188 4.6613507325651025 6.950878699947677 0.5797004591275435 -0.31849360433207724 0.05609504322135501
Ni 8.403198805283296 6.983057277825664 9.352286844656362 -0.4835396582335543 0.5885355409206703 -0.37626834924870034
Ni 4.549231446831466 0.3754146365528023 10.25277813036511 0.12332347735171019 -0.5013399196397688 -0.12195796446275126
Ni 8.129496373813463 7.162108871749558 4.668232543222518 -0.5913372720355234 -0.2244817314602908 0.3802293907789774
Ni 7.264068305902953 6.0775762959145405 7.273185103448846 -0.44410587771796417 0.9398096821178782 -1.5214695789646377
Ni 2.258013479270401 5.268920684614044 2.598903568663811 0.997136026643173 -0.046074425760559354 -0.769222643793514
Ni 2.55005958592907 5.18681175976485 11.224714105947312 -0.4073799830518403 0.016423949883978165 0.4704856532630736
Ni 1.1152286815863304 3.597516824159103 3.816445384387503 -0.45244756481444015 -0.9238904397844605 0.03807495249485055
Ni 3.5809236029725464 2.6867122965709433 2.4338420723199934 -0.7694442728860168 0.050622964363190234 0.7773663559465708
Ni 1.2311105411289904 3.29987648306016 8.115015427276049 -1.4777394850665388 -0.40595379212827504 0.9181275691587543
Ni 3.6299543609539224 2.8145225076136735 6.909477755906135 -0.058216974660364254 -0.9645614351412615 -0.10532266989891538
Ni 4.10235136760003 7.054510088362013 6.080166787378739 -0.3598076325895158 -0.7858756789691627 -0.6339828746201921
Ni 0.9555042653577103 7.360397413780976 11.579070961311867 0.31060777382609733 0.8887578577473856 -0.9165825932691377
P 0.39405426478944694 5.389575689348487 8.015877472331484 0.13897558206667035 0.7727548253164885 0.06442747434645033
P 8.519567904599786 1.5350218385763061 7.961904839829239 -0.2951569864886659 1.8239976611063942 0.9683088179988357
P 1.9719856861144156 3.2417325367164005 10.359707410211577 -1.5798498186757437 -0.548755432809255 -0.12417579804967648
P 3.994617239830868 6.116311857934057 3.9328036561534634 -0.752007565466808 0.5229970928982284 -0.6370476295884449
P 6.937319899797031 3.9437728671357895 10.398057691891417 0.6122609095620681 -0.8951110536589231 0.7864084115441811
P 6.337022452520447 7.651920188830714 10.047464312631762 1.012361585343676 0.5040503765923964 1.2187401794453525
P 2.207169106575323 8.298776103384425 5.722271127582771 0.8202670119648389 -0.018491116825652024 1.638746850122268
P 6.771378664972687 3.9364732934871083 1.627680406824806 0.6875055291286805 -0.6932275192141223 -0.15153567811986807
Ni 5.088082544852774 2.6187062562865067 0.6058204003425396 0.9218104173269801 0.3594037122828778 -0.4714786133039622
Ni 1.3918004139464966 1.0181777370063372 6.832764560404173 0.44999781772236697 -0.5389916685542717 0.5908400206841309
Ni 6.71440770326963 0.8298406162074664 9.254152242727535 0.8787436680444929 -0.24407096644612805 -0.14581034560031664
Ni 2.746651811710856 1.5162631072838364 8.967278096038488 -0.5633888664517136 0.4004277201037233 1.2077643971601393
Ni 6.3263843841251495 1.6714940900426873 2.6735044895166307 0.7599085654814397 1.137850445777821 -0.3033508351533679
Ni 4.293051601301979 6.914942962035933 10.44349911687224 -0.9152512760522238 -0.08629804916729653 -0.25388178188896277
Ni 8.16037293874027 7.298824743102854 0.2866413543526609 -0.3172409628718988 0.2794164358249575 0.5835172617704725
Ni 7.600543461567932 4.15302430407839 8.384259614815333 0.4026339837264227 -2.24111801137445 -0.9578433996911374
Ni 3.145349291085731 8.27354791065054 12.345177908214689 -0.35829916636478937 -0.5508603949673996 0.7714811008103873
Ni 9.109849867636523 4.855660149776905 10.137635251146094 0.722825287475897 -0.8903683967676149 1.461459774069909
Ni 8.631993970931761 2.1887893395513878 5.782014844517274 0.032569706405905195 1.0479109432031952 -0.7191617225813808
Ni 3.661760290634517 2.4472068788569854 11.4160694064563 -0.17268685827618643 1.533518796819688 -0.5806826205351547
Ni 1.0527717609482947 3.3852066041919 12.512907493468164 -0.2341321100658613 0.559554580307288 -0.4223196350808081
Ni 3.194362003149558 8.444587117182554 7.933801932429754 -0.23442521582624787 -0.7542683364765268 -0.19948289542310804
Ni 5.7082575703098835 7.811355870378546 3.482359508206047 -0.5850162149135022 0.6235791627883648 1.1889140972228556
Ni 3.177741713086677 8.44572400998816 3.730276128089722 -0.2305055690568675 -0.5571418571007373 0.18492479510327506
Ni 3.4308447296740128 4.139986128649041 9.057687240664471 -0.06324888065731689 1.07126195922431 0.24241620445152445
Ni 7.326570341334862 6.094178540059873 11.591986424501881 -1.7021991050396426 -0.1822343927553055 -1.8246180682992124
Ni 0.55252539204427 9.269105090008862 0.43231702376917164 -0.3512929102502853 -0.8884516393608762 0.1031608863609062
Ni 4.471002394255366 0.4305016044637147 1.6430916204118855 0.3052889327163452 -0.9134509896186912 -0.5463347391829042
Ni 6.00382263089066 5.667915921628483 0.6146565838705413 -0.7554425592902861 -0.08711591708290158 -1.2162341251940474
Ni 8.040015691645392 8.658611699316939 11.239822148119563 -1.1683501570285748 0.8273879392803363 0.4788093426374205
Ni -0.060935649788631974 4.748016251595489 5.742912048075631 -0.12092155277843691 0.20335034879831432 0.3040344914839538
Ni 7.873415780830498 8.751124095633289 2.6285512066055126 -0.6700847625490718 0.16238136258512034 -0.2743022545268437
P 8.523249271779838 1.5852526500747093 3.4675817063249466 -0.6951023676393319 0.8739207927345529 1.0362471337120218
P 1.648819394642025 3.2903031238002707 1.4872082777336284 0.7099358331077386 0.24705061789974228 0.41855168339794363
P 4.623237754701037 1.1475308739995298 7.907456697399569 0.8352948528322388 -0.7587343426676805 0.24814847894961137
P 8.455468805464767 1.6712955849496454 12.416015352962606 -0.45049969705945 0.07902259855180584 -1.0226575679530452
P 6.262465744165623 7.745010054508642 1.382762116141943 0.17160159563180769 0.5025257124177539 -0.06594982452824771
P 1.6179247837976687 3.1544534564893394 6.011798926447439 0.5528087769430221 0.24759851998341229 -1.284431350995575
P 6.8384553405033355 4.076807371309034 6.000494963694574 1.3425310833517845 -0.45254295274172385 0.02181503899256243
P 2.4032831155420533 8.482438429242157 10.248935252222992 0.220519147268117 0.30047891292221157 -1.028079767409881
