# total energy = -340890.71743794467 ev
CRYSTAL
PRIMVEC
9.12788301715070 0.00000000000000 0.00000000000000
0.00000000000000 9.12788301715070 0.00000000000000
0.00000000000000 0.00000000000000 13.35957945615312
PRIMCOORD
 96 1
Ni 6.374256260877173 1.8873084671783849 11.560752226602377 -0.6906805844225524 0.040662253606052544 0.2748064478567719
Ni 4.6502547479715 0.297542514064221 6.096429974034966 -0.5656061858180066 -0.6504037391803766 -0.16280070951072606
Ni 2.9954608437682846 1.9579035140927632 4.857610127107764 -0.25895765374997337 -1.12783882717809 0.18247556223183414
Ni 3.290163673439557 4.5132999918422865 4.8173570759844475 0.5869124034949504 -0.5690206108161942 0.2785008659892236
Ni 5.264150517331019 4.717299048409321 2.5277262133047023 -0.6305769342624366 -0.9005448230799845 -0.1383646879555488
Ni 7.176770603993962 6.146433429750205 2.4571740674402975 0.9070733682271216 0.5996013118165286 -0.09099416909138522
Ni 5.210569844278601 4.703260364396609 11.463066535811972 -0.3842570238811318 0.33504662359475196 0.9539826311841506
Ni 5.6243093958027846 8.031633355961793 12.374483825104873 0.5018633962434067 -0.19963073385488203 0.5945575787450341
Ni 1.4901816626653435 6.856108075147038 0.2894962852233851 1.2350954808749246 -0.8992412737772125 -0.0955517065550806
Ni 2.6651592705017086 1.5584034600067014 0.2174270852088422 0.9091983849899246 -0.39392488598819897 0.7328672450929314
Ni 0.1662872080634457 9.039771518814835 5.019474875870716 2.719044437186285 1.3900568968468898 -0.5474490552930056
Ni 8.856629674841459 2.216852426158189 1.4079129662165972 0.03103244382577236 1.2978967324718615 0.13702899986326078
Ni 7.168582892967041 0.6327585395235433 5.253013587315473 -2.123289238588724 -0.6376117296220309 -1.7752302618947038
Ni 0.6360728738310959 7.663898334622308 2.3640039403567132 -0.04880982241385142 -0.4413751090503624 1.1541247574578124
Ni 7.805645229312428 3.9291702488582247 3.7273764888175047 0.8524597946472997 0.24474099592995915 0.20562268977225878
Ni 7.460483462565556 3.7682000326266416 12.626245442117236 0.9815795669658128 0.6842119459790733 -0.1834340694903615
Ni 7.941413360655131 8.462469432294693 7.2826403546580964 0.3949597550106166 1.236556381691167 0.5147939882621457
Ni 6.985532327823397 0.763143958276977 0.4697993575921099 -1.4360619028220947 -0.10632154347707495 -0.3048431034281782
Ni 2.102324878494017 6.155077534925783 9.361605155047217 -0.548485724087636 0.6917470780138538 -1.5770185198745355
Ni 0.1341698390341036 4.939024453710222 1.223722328489606 -0.4312372492854121 0.01580688512526955 1.1175508149885205
Ni 6.326681734821091 1.8412309139299 7.024640742421879 0.172170066540768 0.8214720880165337 1.3317674170773774
Ni 3.416347527660448 4.392428565511772 0.03404517791327239 0.04148886327240597 0.8435635205989344 0.8593518937814425
Ni 6.1272922591555 5.566310827391359 4.7727628037191 0.5370342877175848 0.9665108455581483 0.5917406781215292
Ni 5.536042767452377 2.708416307911489 9.340750680818449 -0.7114584403998522 0.9732761893064399 -0.06313909455232998
P 0.0361518933034765 5.741274088220789 12.401416556605465 0.20310995065273407 -0.6560658225621604 0.6347056117188294
P 3.8772873620388135 6.313072061308119 12.348339742693165 1.0093472239973842 -0.18968596393734427 1.3187278102845998
P 2.421572585480102 8.563277771850213 1.362129330799848 0.6714513038792953 0.43354969946867267 0.6859183871472188
P 6.337452636729414 7.689839778032014 6.024475785345886 0.13560589426348904 0.18795715417169567 -1.2775202256980387
P 4.732779937931792 1.083388430083731 12.833839971787398 0.632413216140227 -0.19333050266846705 1.016322883984269
P 4.115242143265983 6.06800665924486 8.179002113775077 -1.0560600546728909 -0.6126308913069771 0.27650106195037544
P 5.015753437982561 1.1819147988959628 4.094698017058304 -0.44592827563868365 -1.0810979714781253 -0.6784297920796574
P 0.09682858257922503 5.796908534942166 3.5088933075486683 0.40066503292551 -1.2566840056789776 -0.5060442670939737
Ni 1.6962436207843106 1.1530341771689012 2.577891232548566 -0.1700267949455201 0.16620870675101052 0.496697535771751
Ni 1.7298068464766005 6.656316972630627 4.7443604830598325 -0.003771037006658022 -0.5569958184411762 -0.834961123641904
Ni 6.035529651626376 5.788903381574709 9.235517143597542 0.25999972186124254 -0.17284935199597976 0.19279622743155184
Ni 8.446376974613022 2.1649421556898583 10.198689529348233 0.30117568187891997 1.1022311539123146 0.21788762318254087
Ni 2.461251492764406 4.941726307070275 7.024172482025357 0.45029709413034064 0.8870287908714207 0.6690552928432929
Ni 0.663540499273913 0.3915934818547151 9.316984411921247 -0.4592643306259574 -1.2371523634039532 -0.044159211015717494
Ni 1.493997117748122 1.0918134660679528 11.542689971775097 -0.5018824224068 0.5547797846264639 0.13626846754815242
Ni 3.7880075386783876 6.784974483137242 1.458946047131208 1.393138621096007 1.4009141512763679 -0.7603981035233485
Ni 5.423934108776091 7.8081827807789645 7.964687636660081 0.11673219728743765 0.9561444147221598 0.9070792817643927
Ni 5.674366706027564 3.046074954854427 4.778387405207158 -0.5179775281964498 0.7521808578198788 0.6656722353036729
Ni 0.9547765589919813 7.254357609265776 7.029837246198496 -0.8467673722482126 -0.6918676627521181 1.0545736999353514
Ni 5.435526520151998 4.407644746428021 7.261051998638288 -1.8279309347225292 -0.4164143253399667 0.6490132865907533
Ni 8.469726099258352 7.038035910684983 9.470512665164815 0.08598771701572933 0.880362948815471 -0.5529931250396863
Ni 4.227944114335524 0.4005351560152174 10.834057730613802 1.607813393768205 1.4351370770149798 -2.1959249597775794
Ni 8.156721864225904 7.2595605025604755 4.636014337745081 -1.4033137618567961 -1.2273556890285058 0.060155843554289955
Ni 7.402183674016017 6.092825373048868 7.162364066297432 0.2438526797877349 -0.6046229334008361 -0.23278716600219262
Ni 2.6921139089214345 5.167148504975304 2.586374686983816 -1.2378902700112422 -0.6339473933965662 -0.22440485547576836
Ni 2.1626601849465694 5.372315930562902 11.48738139047586 -0.3949510132598682 -0.7106202607692729 0.5891091540359532
Ni 1.2304842641961191 3.5146274436324045 3.788896594479973 -0.405577896846095 -0.16958096565735312 -0.2802075642676851
Ni 3.6724850517701415 2.7061434650511735 2.7710034630935185 0.6380344189817463 0.43600715987022975 -0.796535472675854
Ni 1.368497854750218 3.5440831219867746 8.627242324572894 -0.4795436497002838 -0.3101285201968336 -0.2404626802695794
Ni 3.6024011663022595 2.5339276969966633 7.13068848680399 0.44986000659292197 0.3556658425070004 0.24935432633225443
Ni 3.9118363990922043 6.782783791223685 5.949715685430857 0.41787394060462874 0.6647589794607842 0.6948964222761129
Ni 0.8652822303816862 7.557750183527492 11.46249239197296 -0.6048664168702099 0.5506225679249807 -0.4359953327956878
P 0.22362491774761425 5.454841120523193 8.219067130509146 0.8392805769528643 0.7339198547271618 -0.27430174030621146
P 8.414913162004558 1.4509043822318588 8.029160612464365 -0.8336822569294804 0.019430340810469765 -0.1105468944123322
P 1.7879240773666765 3.1372625057562424 10.769317307838405 0.7931351887450533 0.38169054870553615 -0.7983103051880897
P 4.320747300523588 6.208329604191168 3.8698691315465306 -1.5078884978460936 0.4396671252203202 -1.6534617877349396
P 6.88030609290887 4.037518219749571 10.356600079207215 1.345862975938495 -0.6770465385788855 -0.26847510632210536
P 6.513629905994273 7.81606927166777 10.373593458938336 -0.38155685134114936 -0.9461286823573705 -0.7965496137432411
P 2.2366051649120955 8.437367754118519 5.845163088279748 1.3386222352156818 1.0840156593455526 -0.8669320201215456
P 7.103090332634657 3.909362742806479 1.4392143025081394 0.25997632482247485 1.30719127039991 0.966942019558296
Ni 5.397855747121788 3.013296727097829 0.5153858307366391 -0.7815791084763377 -0.5577396385857363 -0.2392234085458396
Ni 1.2580504707750462 0.8908320876118435 6.983867401969094 0.22934008799385663 1.1458244651222331 0.0666170257986014
Ni 6.729769046915603 0.6003609444869255 9.466691733352254 -0.13806823976105254 -0.5184511253987588 -1.4787563563668276
Ni 2.774073170137391 1.698799428016794 9.241208378631306 0.2001971478813133 0.06618225225402795 1.0386842823986047
Ni 6.581723912974007 2.131132477157293 2.7012801290030763 0.299714009731729 -0.37578781006785605 -0.2148238966555526
Ni 4.196434662312194 7.163973312065599 10.263109563431271 0.07855208667329053 -0.38004709956484223 -0.00785240616488325
Ni 8.11958963629111 7.420612869738816 0.23711775435853152 -0.23758638716304886 -0.20794028216184188 -0.2941910230309707
Ni 7.939806853251855 3.7852783016694143 8.269966944332348 -0.9141451874722385 -0.6168737257437312 -0.5364761012212697
Ni 3.2286234864345484 8.374969546114032 12.461000638289326 -1.5429264632868331 -0.48405490730707607 1.8995243306897993
Ni -0.05304669189848853 4.6505103286947485 10.365069841818004 0.5682400238964278 0.032066284406925424 0.5675093163779904
Ni 8.594823735405436 2.338828326328455 6.015537762338573 0.5275227486827238 1.3515664540811756 -0.519097500733506
Ni 3.9079022815307747 2.7854830238538337 11.751420010087118 -0.9187104382454178 -0.5751760888946288 -0.9584098137175686
Ni 0.8849126555037525 3.576760943030668 12.733415916105047 0.16680083180905467 -0.8468144234360642 -0.1367847450629386
Ni 2.9383294242393094 8.654419683337164 8.047462930613836 0.581565023140108 -0.6609331779567907 0.26360183739020404
Ni 5.698053562342901 8.009644285879462 3.818916376002084 0.5597204164611909 0.16606266809144948 0.18875008238663624
Ni 3.301993409772766 8.500760901367078 3.707456709805189 -0.5389307334093493 -0.1357125950446824 0.14303149730359885
Ni 3.702287589677492 4.2129104910787385 9.760842326103651 -0.8435558072894505 0.3621604490924086 -1.2508673989972006
Ni 7.285164214300174 5.982295838126938 11.336311276116962 0.06652035231973705 1.0260619656489038 1.252973903817242
Ni 0.6260203363127606 0.16061422879563006 0.3973111877490992 -0.9145815036787088 -0.1526137416753952 -0.5356852298888581
Ni 4.839201925515802 0.583742720746 1.9257970985229889 -0.5494506591040667 -0.6919247412422986 -0.7004065534610646
Ni 6.048874616533128 5.734939337437418 0.2276329711611265 -0.5752593926370545 0.3255569389367619 0.43694484119315075
Ni 8.042723733774174 9.152436978352485 11.397070116339469 0.5977948547354092 -1.1694505891816054 0.38975609932249006
Ni 9.411577575960345 4.891431671888193 5.836786430075284 -0.9549331680228781 -0.0961541160257699 -0.18238223118707944
Ni 7.820551062207589 9.05624734758138 2.5460422232786346 0.23513355474718217 -0.3820507602584324 0.5952558903636394
P 8.779216099346135 1.6552776820007924 3.629744652536642 -0.22798743062070412 0.14550489854475585 0.6225525212960633
P 2.067118633866559 3.287562226792208 1.356397933081004 -1.1008679550162008 0.5716192247813059 1.2169568622926847
P 4.728626751179006 0.945666931784773 8.470801363872589 -0.21343498672782596 -0.6611923451554483 -1.4476130979948036
P 8.41257642396343 1.7494044112199636 12.602451789571116 1.3078283897632765 0.18004869795789638 -0.5633639267510492
P 6.210858027774732 7.950395197500715 1.3059745947490002 0.16222221129943676 -1.166445226696378 0.49093363670478035
P 1.6304589681967847 3.1128728024519736 6.116977751395836 0.4390834848027083 -0.35787879099791914 -0.08935277683322031
P 7.104669456389013 4.117277661168997 6.11514669807142 1.4435682385014688 -0.9519468317010444 -0.9560852793494501
P 2.334757290522428 8.603823828016967 10.303321539081207 0.4323649351319521 -0.9839596371622152 -0.704342398180361
