# total energy = -340887.9933656267 ev
CRYSTAL
PRIMVEC
9.12420672006230 0.00000000000000 0.00000000000000

0.00000000000000 9.12420672006230 0.00000000000000

0.00000000000000 0.00000000000000 13.35419882376569

PRIMCOORD
 96 1
Ni 6.594401834897915 2.391965552378663 11.13788271840593 -0.30107823706910725 -0.45087122146625574 0.9196681741729967
Ni 5.18900026471495 0.33176893237714006 5.728229936310931 -1.4998067492792235 0.7569191438358125 0.6817789110575483
Ni 3.0219281610272546 1.6414904205918743 4.508457615786483 -0.2679107491782031 0.5899177659801775 0.8254408428562945
Ni 4.072534950605373 4.807225204664339 5.109850508168393 -0.3587753346702595 -1.3752781958758187 -0.4866627772435684
Ni 3.954741441087343 3.249102661412994 2.831771479964954 -1.1426805201766128 -1.3185234075832775 0.006696952404201369
Ni 5.124172775549528 5.0384326044464345 2.274339928265369 0.9455987779958296 0.5172841016738511 0.06766372189556089
Ni 5.403236639887942 2.9149833333695607 0.5853114779337669 0.07477282213651638 0.31387436039251104 -0.718116569146318
Ni 5.933645028369901 8.13702235083159 12.169227395052713 -0.4499463956591412 0.07655742484076491 -0.42800691527357254
Ni 2.0534483566677095 6.759002525192668 0.10479060243715081 0.16575722103588872 -0.32907703627487844 -0.21754026714545116
Ni 1.2220506349571867 0.09829507963111787 13.238578042617114 -1.0546600890015707 0.28091513185767103 -0.856517509656441
Ni 8.118399844795471 0.08737887864061668 6.993046640862383 0.7033694927441305 0.8367431552429911 0.30103658519789445
Ni 9.008484464509088 2.7775362824493754 1.2728323202068805 -0.7805149288778817 0.008653819020256064 0.5287075130194443
Ni 7.2504596749346994 0.7896280154965345 4.699262115530098 0.683767402242487 1.5792288972622932 0.6629571503653551
Ni 0.9308880724297012 7.992859883721994 1.6290523019106211 -1.3230228381155278 -1.5303550543797257 3.3113093632424007
Ni 8.027212522245263 4.188950704899759 3.385342579776306 -1.1526893105628664 0.15573814623698987 0.35208660979617423
Ni 8.087012573475407 3.932286768204007 12.718552089029078 -0.5199667907123368 0.73666347891057 -0.599674074035993
Ni 8.54040353253508 7.4127701893279 9.150724461250329 -0.7892050004527118 0.09366503105532901 0.29764632856942286
Ni 6.942034113181178 0.9189444857558746 13.373829809386251 2.672747096781642 0.888564767899973 -1.1937230885757248
Ni 2.0731018980698654 6.851467236691948 9.218897797041643 0.018972684447760874 -0.22557599296573408 -0.7468774433290943
Ni 0.24010076412967396 5.296054582853992 1.3422702710577759 -0.463682257187995 -0.1525975437254791 -0.4175222136921648
Ni 6.69642871510168 2.2813527935957763 6.752123785701913 0.4943786578305872 -0.9204096803247117 1.0456974804916441
Ni 3.4913777240181245 4.301315311384232 0.26566131700061185 0.501737926409136 1.1458362921967749 -0.5003757559542866
Ni 6.177589820815605 6.004640481317987 4.687791162767429 1.4527733020395046 -1.2162924892358085 0.4992336719300435
Ni 5.625666552748556 3.0767920163899123 8.895165465995523 -0.7092272370764882 0.0065146611900661995 0.4827572715415751
P 0.20475723675019766 5.911372839622147 12.573953484835444 0.6130381540477249 -0.7186621572371429 -0.7276502196683663
P 4.041576517003926 6.492201594765347 12.85326917728096 1.0615118218160815 -0.5141442704932887 -0.6391045121174735
P 2.850703296610884 8.962416344481472 1.4201654491722082 0.6366074567272326 -0.365318535105416 -0.19749440423816955
P 6.808756824759036 8.025068333652175 5.871680715291757 -1.3428648125421196 -1.0665144172369954 -0.6679245216729593
P 4.949006253804591 1.2435381419219396 12.325351697249692 0.6012959259101321 1.3779994514617238 -0.0582470565673513
P 4.143119814248399 6.635989969397 8.26615542453467 0.021171748981608698 -0.7301333911015361 -0.22506048678189625
P 4.954426032631369 1.29937828740996 3.593241280920544 0.16526099812576056 -0.7830585212353418 -0.34311037443949294
P 0.5650776369804607 6.286678837066385 3.3114273806589125 -1.665908241028408 -0.14603377446503238 -1.2834962407758155
Ni 0.8433951412043459 0.38793298720581787 4.436838979515386 0.06691887330973637 -0.5408135522543589 0.7883495944309519
Ni 2.0728737929003884 6.308367076580278 4.71708990315576 1.002386476408835 0.4791230172230974 0.6290635829417037
Ni 6.014211774229251 5.751434618991509 9.313512171658077 -0.2269224796912995 0.924553527289756 -1.0155186429154188
Ni 9.01288233217661 2.501930492480235 10.34161136795354 -0.004575278075508249 0.04536994349436702 1.0102229417341182
Ni 2.6528266241927967 5.449614982946048 7.046062844352275 -0.9726089880360863 0.21745464941018033 0.15430809865868264
Ni 0.9064452348892017 0.053253432866148656 9.418729786972488 -0.5453415220316994 0.7065252647642929 -1.3087442167093266
Ni 1.76963078059739 1.415374328192509 11.446858469828229 1.0032274842528914 -0.10859979798829039 -1.3672455553793292
Ni 4.376462278416803 7.214346064503068 1.611571234142566 -0.19988758706069445 1.3643895739877727 -0.19595097101044961
Ni 5.858945147469506 8.223027123931276 7.986345200081725 -0.3199994994536424 -0.39037753495657285 0.22295783861659665
Ni 5.707702295899339 2.972985915864225 4.761653441485504 -0.7281713822791588 0.6902946618380434 -0.38889915063883346
Ni 0.8703635591812972 7.854281431161202 7.123263670330819 0.6784333916240832 -1.0520979847013494 -0.39386806460833457
Ni 5.7167261364038575 4.514146558713245 6.966644836126413 -0.41709129680233326 0.01165506774042509 -0.5026064450570183
Ni 0.9947301472629818 7.644433799448951 11.239707953639876 -0.5746695815718555 -1.0463420560541787 1.1071753852914674
Ni 4.9220168501520485 0.6238612515754147 9.99234585665682 -0.5130479521053164 -0.7471420098443907 1.235072340946473
Ni 8.606298553893657 7.392541822898662 4.870957789016271 0.30813925768094674 -0.05347843153411435 0.2740402591147087
Ni 7.221709299373792 6.213447953457422 6.993527486559641 1.3673959649142644 0.38319258717235943 0.5817264884186368
Ni 2.4760086210208456 5.553247723542932 2.2256376497406296 0.999151771521621 0.5170804703034773 0.9489921199480945
Ni 2.1446174308043595 5.334367127119385 11.473340567583854 1.1700087756779205 0.3550708892354788 0.0004905664831733487
Ni 1.1553161865749353 3.8128235288454038 3.502619659190639 1.15324826839013 -0.23553850349508468 1.3512124131758665
Ni 1.4678111445519293 1.3070243726908357 2.2900846594833637 0.4194091463022325 0.2960368179904579 0.5989145701621491
Ni 1.3772990133033736 3.5487781088653687 8.111553952449121 -0.03513258203707498 -0.15143771908942308 -0.35264222518932814
Ni 3.7131598181974232 3.0877501887315972 7.052899612491847 0.13036855712394968 -0.8139197295905725 0.16665402181854524
Ni 4.241250658157494 7.044179608073072 5.913399325947782 0.6214443758335491 0.9737832108498456 0.7436532799648419
Ni 8.204185636932458 7.711651830790494 13.211816744134047 1.186475405874376 0.43926629023747576 0.020414301990293874
P 0.25637652418221163 5.884775776861105 8.017994336136349 0.8452501642727379 -1.6847937650790017 -0.9653098832715117
P -0.2490105520494537 1.717641050370145 8.363133881127565 1.947932803900174 0.036218873122718265 -2.1990915304310192
P 2.1138141087181572 3.5018249407801805 10.240947644242572 -0.6528000073266951 -0.7938633251603295 0.5529435027486735
P 4.281232932263459 6.530185667586692 3.766511792496786 -0.46345702855106635 -0.6674884625768052 -1.1901016897730539
P 7.179017135854438 4.312255235312358 10.406620428833865 0.09735173587829686 -1.0247753856269963 -0.2645906836660346
P 6.750033429928823 8.073134654964413 10.116940549907982 -1.5523888942513135 0.016459945328236168 -0.2846028651219034
P 2.436373066772486 8.392043930307107 5.679447364766537 -0.8357766775646638 0.7257319195997308 -0.667997798113056
P 6.976058280260398 4.163293435436963 1.4291527928496102 0.6943649752526752 0.8385159308726979 -0.5021655008648578
Ni 3.0706058041936903 1.717841782919285 0.36712705848746285 0.42511699532028724 1.3709168335833293 -0.11635398801241252
Ni 1.5369908803509764 1.1274691074851577 6.672585337946567 0.27629074571178225 0.31953747221555934 1.1865569098445887
Ni 7.039918603507236 1.0899047481756514 9.051369148791482 -0.2988069245364273 -0.621285995878814 0.1337511004429374
Ni 2.718895005480175 1.5558232431430146 9.093848718292882 0.9182316988367863 0.7025261709072289 -0.35554628621000056
Ni 6.752816312996446 2.1639698733828054 2.5904343858167134 -0.12758379528996092 -0.09530333798970039 -0.668443627401223
Ni 4.1513224761428 7.075375271050774 10.53295054621441 0.08970398952505196 0.7692794651733783 0.2068038545645535
Ni 7.546658799604241 6.250610847668648 11.30870976740673 -0.1948096583171548 0.3772039736890923 0.14065399821035776
Ni 8.076154767408292 3.7421474231345866 8.29477349909728 -0.9891725488217222 1.0508422579173773 -0.49585729925864275
Ni 3.519817876548543 8.751656292091312 12.593383483171511 0.3502940366721258 -1.2453858070573391 -0.35792764195798354
Ni 0.21426101053129598 4.927564367873734 10.078387126583623 0.2017099849814139 0.5283686416227868 0.046381158367700764
Ni 0.07638877157520486 2.58373813046154 5.502717866400342 0.47392373241034513 0.36364037607204475 0.3035714358046062
Ni 4.190976278804717 3.2311462224717484 11.132326988898141 -1.0154541082260704 -1.8647180216438917 0.33526619580472583
Ni 1.491844305208048 3.2908915284612186 12.659259343695853 -0.7259702608627819 1.4712968147649887 0.5819447750770299
Ni 3.3359742341566934 8.691053310664609 7.573005859099537 -0.41621635039654764 -0.99400288033083 1.1666853677316424
Ni 5.957413587029426 8.143801636468453 3.7429284552348765 -1.119139499631879 0.6562743390285407 -1.2454554839530099
Ni 3.0545928212963904 8.469508445861566 3.53521680032961 0.6481938760132514 -0.41195346135513566 0.1726377502058059
Ni 3.610594609793692 4.640973032942571 9.221729038405194 0.7407412485243694 0.4776708581576032 -0.3043376245466694
Ni 5.183826839471207 5.1953507126331955 11.602542072837778 0.774007466776667 -0.11321801348659212 0.26007531229418435
Ni 8.196284073861769 8.825288640798554 2.963430134104486 0.21846483584224954 -0.17618073036205786 -2.079687185628057
Ni 5.149976032320789 0.6156503778949133 1.2409842764444727 -1.9204561957464603 -1.2287042326366002 2.0458028741757865
Ni 6.279206111714312 6.16644004013156 0.30855695033113945 -0.2242099658561429 -0.6106974217296901 -0.10983495594697214
Ni 8.284341793486748 0.047350983500756456 11.134129932157691 -0.22143445999353478 1.0188898733804967 0.8073461901381128
Ni 0.12011470772262955 5.209347245832317 5.815700057019339 0.8908628199055303 -0.48307248878914877 0.41380157030746795
Ni 7.4386738123737315 6.379198293806339 2.498503440414009 0.1583313608854628 0.6421782659467908 0.13976413940623672
P 8.756492121684229 1.9640311302326445 3.4372501921425394 -0.08721567588555948 -0.6124424294452548 -0.2610330482217634
P 1.9881190361294376 3.5187503443553894 1.6059625842354606 1.0325581148962089 -0.8583141965455476 -1.7476526093867515
P 4.699231093227049 1.1286826269867767 7.83631039348911 1.2465844553511305 2.257995503856079 0.08784045395375195
P 9.01257210914612 1.7276046841729096 12.632844765070391 -1.1903292324028274 0.0507026685611901 -0.4836831257899541
P 6.730927340933413 8.19124751171971 1.303298959062934 -0.5156375672093635 -0.34618747070291994 1.1355102276804185
P 2.233888669930959 3.6687340553900425 5.533219177242157 -0.7890797877287572 -0.4023820156166167 0.5485173486565199
P 7.534477983554158 3.9618400739614734 5.545451088850202 -2.0188898518350267 0.7891322382332473 1.1336289514973057
P 2.7055827877894854 8.790251686766856 10.524737847692553 0.7689323662466048 -0.014891829510167902 -1.083158967772212
