# total energy = -340866.72864792927 ev
CRYSTAL
PRIMVEC
9.29096577790883 0.00000000000000 0.00000000000000

0.00000000000000 9.29096577790883 0.00000000000000

0.00000000000000 0.00000000000000 13.59826756118233

PRIMCOORD
 96 1
Ni 7.95190540849111 0.673544853893851 1.65384859860892 -0.8674575536077125 2.6756074490485724 1.1809534476148822
Ni 5.880354495683969 4.9379718281411 3.1946270717546636 0.9057397370173628 -0.25082191201671644 0.08940856977182021
Ni 1.290059901123878 6.925746101756344 13.513074346511322 0.9957589437899882 -0.6600106661425215 -0.9026837237998582
Ni 0.06399524377174928 8.847823955750219 0.3315425422623165 0.9296042023397861 -2.4413488407071764 2.9877941373260155
Ni 5.486045904433655 8.209162962287763 2.9062494277979516 0.23271800332715403 0.17822604292686078 -0.9287228281760973
Ni 7.300971049122866 4.414314410138032 1.0350609811286613 0.5275659432158334 -0.7856365663751632 -0.12080662446712741
Ni 4.116427462619945 6.533156339190793 3.8172379216877856 0.9462837198779962 -1.3911555292277071 0.008839709778817035
Ni 8.421517278065735 1.271673079679854 13.002717875238556 -1.4015343013588701 1.4681361576488199 -1.499272474042308
Ni 3.0500382736958804 8.877276317537765 12.876280837187448 -1.2713110115635329 -1.4363912611370553 -0.0787336065564773
Ni 7.079427968105813 0.1335353359708828 7.942680408485161 0.4588043602704034 0.5364892138473922 -0.3295182375773551
Ni 3.1030989797427826 4.626863836199139 8.656779399276951 1.7429377204095853 -0.1283139885877661 0.3045312286147142
Ni 8.394675677685855 7.261586644827153 7.558202588215101 1.1603671388230983 1.2479525393432507 0.29340220858108823
Ni 1.7900067742430912 4.424218579748607 3.800947142142585 1.0410820932068199 2.713405493732953 0.44760000691415175
Ni 2.3643278291002585 9.180291878212547 8.531526030276863 0.42878750219333894 -0.8983796971078657 0.684639263324479
Ni -0.025077245962387446 2.435942593976729 8.220641950612215 0.08112344694489254 0.482223253414976 0.8124850540265749
Ni 7.409786841317109 9.024222233636138 11.5261362598238 -0.18727632605458716 -0.9787495537161852 -0.4576288519050635
Ni 4.73668305270665 3.4526344064965073 1.0187683433902883 0.26247158044050284 -0.43263387252262264 -0.4984942226608576
Ni 9.033160142796902 3.644827326350513 6.2656192607626755 -0.4755738664192584 -0.01672245496100346 -0.9480366980133608
Ni 3.6243221646895933 1.7636390131222526 12.369895324724775 -0.661671341674396 2.9505324247610796 -1.4495617370807423
Ni 3.720938918704957 9.213878719809387 5.945584508818989 -0.25680872572777064 -4.084520045149385 1.3914650900483263
Ni 2.4937138197164663 5.1794997767307125 11.118392002838165 0.5436258248921735 -0.33426937910909527 0.4592581599783704
Ni 2.288736530834176 3.5277797384011382 0.12550979965792283 0.22681217936568038 0.49822271416702585 -0.4803610033952565
Ni 3.3531095801658437 2.0919352919118346 8.633648610662982 1.0922190210919513 -0.5479015694493918 0.04000585096897626
Ni 6.546591075829528 9.104616961253692 5.00389030184661 -0.25807859357912977 0.62097412106535 1.5009146376314215
P 3.0184861536231646 8.198524806373964 3.0818022277902863 -1.1961327264584818 0.7906383904651286 -0.5597762093997908
P 5.224384432817666 4.892353185750925 9.55962343249077 -0.13045108953542695 0.9172701062544654 -1.0377489150685288
P 2.5235564020702843 5.1472229613206375 5.8884171958603835 -0.04777161095732418 0.4991632237034241 0.16849775989550336
P 0.24412384445189697 2.0889528918696256 3.2975523915913976 -0.39092569415055906 0.2953937850898203 -0.8357766775646638
P 5.097116782418354 7.387144757507567 5.670056270651606 -0.11820132563379643 2.2421325686818934 -0.27085569073913995
P 4.790998039145135 -0.07682606762935257 8.522809246103652 0.7707647914696533 -0.3945195821494044 -2.0050884271755596
P 3.91556607161522 5.004606635314692 13.083736026665555 -0.37005733534198204 -1.8682954545825048 0.8458489741990013
P 7.79866021753723 2.650628942186461 11.496152454788858 -1.1433577487492954 -0.08963688373254239 -0.5147777903122295
Ni 1.4952415912551678 7.924562095954596 6.721637518182298 -0.4534883473741287 -1.3624077676710535 0.4311174358780962
Ni 7.387070429780658 2.806642840967688 2.964802952863402 0.8660845845195858 0.27348695771439996 -0.377981218174749
Ni 0.0882446646756918 2.730698485998789 0.8820787245087202 0.15402142065619925 0.6232333494131719 1.4852010835509066
Ni 8.417094778314672 1.406104064759986 5.1142809127547295 -0.1809562973738303 -0.06114160450632696 0.10273871122182306
Ni 8.317300513973965 4.538339513450954 11.991320055067845 -0.14370101256679765 2.473466290067011 1.1491306466773306
Ni 6.051568414618012 7.174809023661321 7.908236010739114 0.35692773993855953 -0.2375604190211199 0.4189260360182269
Ni 1.3497450658315127 2.74809117409541 5.004352991946616 0.42203527107116995 -2.4296220391885512 -1.0162542355298625
Ni 0.9921264987764741 5.39767952810515 7.32521024996436 -0.37093510996124507 1.1354734609052122 0.3211845209006791
Ni 4.855932599565692 2.3899894768154653 3.6497208780708608 -2.6931850529210197 0.7926286814222802 -1.2419495276822803
Ni 5.96858150752452 1.92959424537751 9.245665901318452 -0.11875205593094386 -0.364180821956547 -0.13586480435183051
Ni 1.9956065578382423 7.7914597189929555 11.054317785856576 2.6647406815373977 -2.7496770744704775 -0.7284611456054358
Ni 5.897533491565728 1.5054337808075147 11.864678615767739 1.3913108238586491 1.3908364553253918 -0.8092464924846191
Ni 2.2461560342813907 5.571875847081403 1.760200426656142 0.5030435325944369 -0.15286853799867867 -0.8068157715559395
Ni 1.148363380738427 1.0289558874597031 6.647540207227078 0.8117926559452406 -0.28460492200443244 -0.02907609143034992
Ni 1.9549400002533546 6.754773747934753 4.530955982879168 1.6888823333260785 0.4739098484532741 0.5922826666679283
Ni 1.783651753592403 0.8031129474409852 10.759112211086718 -0.5598181183813198 1.1030289672232616 -0.33284113130300097
Ni 5.155594121563722 3.6474845425874967 7.5606916379699545 0.6308931799512748 0.35109390686560177 1.3424686055449655
Ni 0.7756627887970395 3.104975754847226 11.398135552217854 0.6086091717420937 -1.0146341834279364 0.6812762603895169
Ni 4.956033465779899 0.5692862804556934 0.05681704354554775 1.0231021116896317 0.030133071939954556 1.9687078316639968
Ni 2.059639894570032 3.1633323114363687 7.083772423743623 0.17285680819514748 0.9626228233576518 0.29683900217677905
Ni 6.6264190545294035 6.578970091864102 10.936420074530682 -1.4963463015344487 -0.8087821512536909 -1.3005426547351409
Ni 6.879950931014761 6.884215484346144 4.646364644450207 -0.27466683695511407 -1.3732174566920479 -0.32932591906089087
Ni 1.4356865000696233 0.6231515841463819 2.2704351862760968 -1.0700268012656282 -1.9587910867709168 -0.5138475651884764
Ni 4.286991013943538 0.5068593517217164 10.42755944876195 -0.9948837402738865 0.12164146166359696 0.9358308999757882
P 0.5171035706828991 8.884616180569994 12.005080904608393 -0.8371550459694294 0.12724800921709697 -0.8828499769033827
P 0.42532926807563354 4.929777196249423 0.35196780161680974 -0.6537541437098482 -0.16849081791696788 -0.028519704706247657
P 6.471743054832532 6.453820781681687 1.5658538609149584 0.24281523966215596 0.8794759182248273 1.5332483167671207
P 7.377045477613855 2.565133474309802 7.238887886125841 -1.9056697814659054 -0.01178079468501197 0.1140371669537778
P 2.8637265352335204 2.7414388425370873 10.581546058791744 -0.5675635666546935 1.0393283437405068 0.08299212472251512
P 0.07605863384902092 0.26043970960492896 8.337383865784679 0.2821382056314947 -1.2854993872487732 -0.18937794577862221
P 3.2772860077531716 1.7091753712299498 5.414734954140923 -0.6432828118648791 2.70226696061763 -0.49337207094294383
P 5.384179754705369 8.357576850992581 11.916814870711214 1.288936180844464 2.1668948910938166 -0.2784859535908881
Ni 7.907253026550746 7.969028658577687 2.5457320793934755 -0.3062132443028275 -1.6685698470209716 0.6104089439549939
Ni 7.279183734172772 3.9078359880167217 9.648174699039963 0.6179281351501745 0.3525594356675347 -0.20127932520189853
Ni 7.56617237873288 5.100238546948516 7.230960834051036 -1.2725718805538275 -0.21965705637813782 0.43999442665275185
Ni 6.665088054453622 8.353665354364015 0.2980792705114622 0.949740568078345 -1.2679436377531967 -0.008422162625424204
Ni 6.078214904714758 5.832617513076897 13.234201360633053 0.08356522361716576 0.03885476808366857 -1.1191055610701501
Ni 5.463989151473517 4.189696019420134 11.55661062785634 0.05911403255333691 -0.6811608178575752 0.4702848501061771
Ni 6.2553007140745835 3.215538248623822 5.109657728141013 2.8533742929508277 1.4138496283911135 1.62355085910812
Ni 5.261037293149486 5.378400773938222 6.084708360756815 1.118109515705468 0.3848494060494921 -0.18479701127615913
Ni 4.391124159342537 7.385267982403123 10.120496743356993 -0.1816057580323711 -0.44781752224159654 -2.598722722775376
Ni 1.1298000309429952 -0.28334751503817057 4.646841270999008 0.7382333945008512 0.6098669554085948 -1.8015365038894005
Ni 8.449130028612295 1.2700936154830456 10.091016508671856 0.34946845544703686 -0.5672221241548747 -0.06224229376967345
Ni 0.8378602306741862 7.35733004805134 2.258685830845014 0.7546488597443971 0.712747848635237 0.24101263923577845
Ni 3.8694457170684116 6.967611193937634 7.391379579748186 -2.3336083053953875 0.06307378853203331 0.5997247247682703
Ni 2.456940176828419 2.666795222789089 2.48482515267478 0.45196419742011845 0.3622967175599567 -0.2901235378298165
Ni 0.9281693479647654 4.255634004153957 9.440760389811654 -1.0818798439494721 0.6499926197848871 -0.2612719037054468
Ni 3.9698438941902516 3.7389912653778916 5.304235638932199 -1.3245732133217833 -0.36602173182002773 -0.4134115339579009
Ni 9.168325114180258 6.562887429954247 4.361834389457603 -1.4708342733062734 -0.22429146982635564 -0.05471590348564125
Ni 5.37302130470321 1.571111618497158 6.487080581280129 0.1453750578351109 -0.8552736099470108 0.7822583939315496
Ni 9.365665229122687 8.092988725129564 9.98930087259056 -1.7440751764481381 -0.24208401792308631 -1.6564301263346441
Ni 3.9616864261620286 0.7612915227992548 2.1491787907905207 0.16580427222374025 -1.170635610628642 0.8065280651121917
Ni -0.11653286844053232 4.8701570683028335 2.62466998356362 -0.6047165215559069 -0.3519351718199745 -0.5513990410796891
Ni 4.1042934612021105 6.8450540632311565 12.256009452458775 -2.237242330469128 -0.9468917857756404 -1.1244475421083537
Ni 8.382188619565204 7.048665580131502 12.187787748315683 1.6975063275496636 -0.3009406830499785 1.4071511333250155
Ni 4.382660089440816 7.221291725876808 0.8105996077338576 -0.3427257374065646 0.5683572662005825 2.359400326757827
P 8.137139394913294 5.995478853699583 9.479706260518606 0.5908353926984405 0.24489834744342984 -0.5973120015617197
P 7.806669030111635 4.9082779012410995 4.84465522520048 -0.2808212865922841 -0.6154465063789013 -0.5487842291646612
P 6.617425399573458 2.15779894891875 0.6602764255440731 0.3383342932070883 0.15785056459430233 -0.5986600309491819
P 2.2158024488050767 6.544203297602588 8.947646092988517 -0.7694360453559006 1.222206026506766 1.0247298771010416
P 2.6063481988806414 1.2353732760508491 0.5237075892187315 -0.8254866084925655 1.3172967342650281 1.1042394425915951
P 3.8086735093547377 4.432088027835059 2.7750526279349312 0.1110217771662217 -0.27831908899572066 0.5215752728500372
P 8.644965007084824 8.322466290994115 5.543116591347278 -1.2476566053693867 0.2684457957460667 0.4721087906887934
P 6.225532459447675 0.9889211155535391 3.2571385482779993 1.2843611598792717 -1.92350655253701 -0.6492757962235205
