# total energy = -340868.3703772497 ev
CRYSTAL
PRIMVEC
9.27102708022329 0.00000000000000 0.00000000000000

0.00000000000000 9.27102708022329 0.00000000000000

0.00000000000000 0.00000000000000 13.56908526168530

PRIMCOORD
 96 1
Ni 9.060111131397283 1.0790548320115936 7.166553004000099 -0.9347916600779965 0.6327875687605102 0.9921406303111105
Ni 1.377340854566289 0.19237844567107634 5.721567955166209 1.7815415488247124 -0.19564912349931465 -0.7424237784331149
Ni 0.30448463120391756 5.050132367067784 10.044488381524962 0.26910425526567205 0.695000809064461 0.7928302559101248
Ni 8.020346911792814 3.6706499052655226 8.69760748615254 -1.3634516355545356 0.589964560057713 -0.3144726560981423
Ni 8.984978728625379 8.307887814059672 9.422019576708914 0.3029147760572138 -0.24600212203056987 -0.430095165261169
Ni 5.223231712101622 3.402550346608325 5.661564941348335 0.1698995253390364 0.9725981894028088 -0.795851816345268
Ni 2.5050963913854853 4.047934348849266 4.797526548725542 3.895751707930303 0.8994325638524122 0.8600933999331574
Ni 7.741975055224551 1.2441625517752717 13.292140263297105 -0.8557400080604681 -0.547352124703825 1.6673981953103734
Ni 5.125867386594399 9.21448300190012 1.9309212932919346 2.515346732350881 0.1679683697545946 1.0044083919348703
Ni 3.7488695600269444 0.6264377314728428 11.491156121758547 -1.586958661806383 1.4460781494075161 0.003542723045935834
Ni 3.0184702402368475 3.735065000830576 7.408842950604397 -1.3734845943105054 -1.0708621526827298 -0.058645834667666735
Ni 3.2920582468754085 1.2551858028729757 2.5764981328943826 -1.3356456690858611 -0.6776067819577297 -0.38946325067241955
Ni 0.6545196722423515 7.4929274570432 13.570170946071931 0.5190707612606287 -0.4338610600615044 -3.3341073349735226
Ni 0.9105910004755281 6.712232815802266 2.0350645937383014 -0.8548763745085922 -2.4388494713240902 0.08152762436184668
Ni 4.012908408860093 5.717831731287003 6.620709237302237 1.009940120386377 -0.5531147382192151 -1.0433048118897517
Ni 7.167792540309404 1.203907752560611 5.417647002403619 -0.14254761568864482 -0.07172683622134099 -1.6719341355075144
Ni 6.112119238380577 9.091688249344113 6.909391402992246 -1.7475757334022288 0.34401977362763975 0.7774712569555513
Ni 0.12056785187167603 4.97951495444271 12.873072228147135 1.9331312201109676 1.0777707068771052 -0.8751212408005573
Ni 0.207053554302326 3.8635892480698297 1.5039840104281466 -1.0595937788577623 -0.2941138899361322 -1.2095315163628912
Ni 0.5451085742571155 4.28523555582726 3.8989406011065464 -0.6106040906849355 -0.6666052886409035 0.22573565847204993
Ni 4.839374110378038 4.691046949476298 0.07332084409697473 0.3506599046519767 1.4675854273516724 0.07408145249644661
Ni 6.0407508725688634 2.587682699861809 3.4003308627455913 0.9063259485381359 -1.2366088321956574 -0.18239842913699555
Ni 5.64400654332147 1.510046334980534 12.427368532438965 -0.6730970670128343 2.8976741433094677 -0.37560449041245636
Ni 7.366044181582158 4.230313991905645 12.665614457067806 -2.453343294064891 -0.8043878788407374 0.21266442711038858
P 5.875198143509399 6.3477238474183855 12.417694215769112 -0.2816201283444956 -0.27808460438741145 0.43457325563718063
P 4.136157441738881 0.8352138425909413 0.34455679118676585 -1.7303017768131297 0.7460783444665667 -0.6436725911041301
P 6.0592373003979825 5.6059026223697765 5.715068038139631 0.16431200394892992 -0.08394137600966188 0.2821783148408108
P 1.6292624711162593 8.100912136384109 3.3368549222151866 0.6664224832061361 1.8287696285737407 2.272031670234171
P 3.968722694199321 2.727860628034464 3.919620553922811 -0.0032794420822201587 0.18383001937719953 0.1256402984103449
P 7.878954479083743 6.347649679202421 9.158671419386932 -0.4895701806983504 -0.39039733245091474 -0.12407115415101214
P 6.669567549568764 9.016926687652031 3.715853578690406 0.19792146447325912 1.0320117554744357 -0.21682678601819433
P 4.518754183791072 8.399504102829656 10.19271726954055 -0.24340299384482597 -1.346533262532642 -0.7777594776199315
Ni 0.9071356887142881 2.992594803892279 9.191576148399525 0.5365084971211018 -1.63847508451812 -0.47470277666821475
Ni 7.880975562968771 3.292354919739266 6.341647616325505 -0.473375573216359 -0.03946669063605461 -0.0010700931357271893
Ni 5.792889965842943 5.490209476492359 10.128575669271866 0.48284186083558134 1.3002361792383157 0.08400925313311983
Ni 2.3550448194625746 6.158724691087187 3.9975472442311726 0.35140012525211095 0.7932665721165951 -0.19891725272762517
Ni 7.899285841284975 1.44417568817718 9.790121995156268 0.8898701169749578 -0.1477561564727778 -0.8967861273685007
Ni 0.861538923744794 6.516716127493198 8.144314449263756 -1.0440200927892211 -0.41876919872538854 0.23628258074996086
Ni 6.977708673819724 6.941598023672073 3.2721987799482495 -0.016237030684152682 0.23465532955918297 0.5139049007889731
Ni 6.975335290908865 9.265723968104501 11.286982148441037 0.6509071611793564 -0.9938858951369914 1.037873099351219
Ni 4.137835497625075 0.9590784716622334 5.3895316859369276 -0.3204119044007127 -0.5241193794281296 -0.9430472152185695
Ni 5.3412704278089125 6.842221885306816 1.280339953317291 -0.29124762413193067 0.8510122635674957 -0.3388924797034034
Ni 2.2251391892009846 7.782053704926296 10.168618161968327 0.07424548887813666 0.26547565737414924 -0.09361566587463233
Ni 2.501870073991036 7.335681568171744 6.84520993730748 -1.2543939240932203 0.30599598608569883 -1.2806037497193687
Ni 1.0386702384189954 1.7899108268950794 3.822519525582261 1.3443419113082784 -1.000139075135555 -2.079552459822406
Ni 5.983057271575581 3.187935342688432 10.229014267330811 -0.06877443846123639 -0.1711817344855697 1.0803253549781588
Ni 2.8415234189998575 4.136268694062827 9.880126052331727 1.066199714210054 0.2854017068741149 0.7447601398757754
Ni 6.697436256717375 8.338166988227124 9.227805467692718 -0.633001227433213 -0.34731361388756316 -0.21869649223708143
Ni 4.776961556644022 5.675444595863366 3.8855615820492737 -0.17174429185725906 -0.2174381943499481 -0.08033154717121649
Ni 4.690101304722751 2.0040251953572135 7.412112841825726 2.971691832447515 -0.12883875074298454 0.665588417340615
Ni 3.853919566913475 6.480670374534514 8.90954316327072 -0.27920277715225467 -0.2938390390081907 0.780781809386023
Ni 3.892783712078804 8.162740615417405 3.480375055619736 0.5270982595507954 -0.33273185941864636 3.296829938679303
Ni 5.403052551707231 1.0408674718169397 9.672505111177273 1.9163082350163578 -0.8668435741727973 -0.41030358445653853
Ni 3.4129617099243235 7.878667077246881 12.461752917360045 -0.9445076018141797 -1.0921154056345512 0.3913584108126034
Ni 3.391035731079857 1.6857971937350986 9.269815272317636 -2.6162468477020684 1.6059418877771052 1.1997806076237143
Ni 0.05205774368269008 2.5674625899845234 12.727177784729028 1.6972209350987608 0.770362413824912 -0.7167988787761591
P 1.4770229368223993 6.327151438515269 11.565324337722913 0.05432561002575805 -0.4981599792498905 0.9001514442963078
P 1.2451360096098039 1.8973805718274483 1.325595544493349 0.233771641402649 0.37507227205807014 0.3412617512665284
P 4.234560122269605 7.9614017221551325 5.625701827621465 0.004842672804281982 -0.09689999305285893 0.9359679397742849
P 3.726943581182478 5.574742700637747 1.8779883646608648 -0.6436450803003044 -0.1235456206648453 0.726699939939955
P 4.549311488768391 3.5728127573815263 11.900915118702285 -0.21043193823544407 -0.680990353717982 -1.2008807826664287
P 1.7993116482685632 2.000112821965093 10.94350821320735 0.001540090793610251 -0.8693185180758513 -0.14327266678012743
P 7.0360419756757 1.6543776832471933 7.7277301222458945 -0.2763143998608661 0.730209238644794 0.1531295049695492
P 8.593824828656299 5.489449252278724 2.769843546681094 -1.3878539756583002 1.1720546024633556 -0.8351896947129422
Ni 0.45864048677775704 0.10614491517470519 11.474846531067982 -0.7540580202379337 0.4028736105410545 -0.6372144941836122
Ni 7.1518278318230735 4.536155901461711 4.097280317135759 0.7907998557436574 -0.1057247904333405 2.28964964042625
Ni 2.131603797842921 5.079085784374874 0.4969993609718284 0.8453674065768926 0.7872368209827474 -0.40734527315916297
Ni 6.444856397250721 4.981628748597694 1.9858224609541584 -0.3030937248372393 -1.8224313450605385 -0.7018957364120816
Ni 8.934553612796604 8.753073259358793 4.098149012365241 -0.27098604566941714 0.040234164929698446 -0.08923964829412373
Ni 7.87417062915404 6.351738202107457 0.7374907283389901 0.2523414339850364 -1.6367074510947361 -0.8625089513531855
Ni 0.6481226636154247 9.075158008211055 1.6267565125193633 0.2081886507272221 0.6283591006755114 0.7647473816309797
Ni 2.9238872228282875 8.00051618504934 1.5725617971141999 -0.230314536091984 -0.37233276163972007 -3.124908240703915
Ni 3.716217002948631 8.800633627845944 8.01810795877339 1.3630209757750202 0.5448638110643326 0.5406754840145979
Ni 7.444579051261428 7.4779269353644064 5.933109613637077 0.4612240254554896 1.5786938506944295 -1.6548265292929498
Ni 1.8746943687693474 0.39175558962109025 13.210942754664716 1.4782549912503766 1.236937676289986 1.162123973613205
Ni 2.4687354235089543 3.014900894843562 12.747422926379203 0.9802359084537245 -0.09621556539132461 0.10922329050490222
Ni 5.494409251721341 8.610568303410256 13.217659613722988 1.589508167701114 -1.6053618469039188 -0.5990035303315296
Ni 1.2206790403955536 2.720360367195067 5.853594796404379 -1.3822155464256003 -0.8527611279378023 3.2797519001510937
Ni 2.4051918044814826 3.6745622786576435 2.474797748061342 1.1701211328860686 -0.45153225208902237 -0.5451615448104095
Ni 9.194253620995838 6.312484673808316 4.828870963894784 0.6319185358919955 0.5072462578218748 0.31841595701660647
Ni 4.730856739395171 2.85702457613641 1.3902201652685016 0.12832684410357253 -0.9572898411805126 0.027073973398656602
Ni 8.408877111122154 1.372584817717574 2.399855401342846 -1.6669500520293614 1.4818121124740158 -0.13896401210244455
Ni 8.500873511998956 6.841183530283314 11.44494005218575 -0.561928222745787 0.665666321766402 -0.18483120694820424
Ni 7.511284090494382 8.438748360101803 1.3639646168171156 -1.1174703394595722 2.069293243988243 2.569690597209084
Ni 7.796349628553428 5.52927758425159 7.015502015367068 1.3763169215529782 -0.5722182918178855 1.081189245640351
Ni 1.4677704518808443 0.4611538621962495 8.774503238258998 -0.350214589584442 0.10320305245275128 -0.0775706965966277
Ni 5.91816008260676 6.893305244052274 7.672137335969802 -0.6280135444106346 -1.2395463175574266 -0.034656927952237085
Ni 3.6879959967741893 5.66838007329276 11.753405662381555 -0.2785348045509526 -0.5411333974876229 -0.8888897553395595
P 4.858490968042854 4.03145973387818 8.417568698930479 0.14023259440222302 1.0255564867673952 0.8308938955510657
P 0.061354729553823574 8.233367299069473 6.865590435951789 0.011803163282515156 -1.0478654346772405 0.23708630759817878
P 8.535185582909472 2.6716967464954466 4.402489942650727 -1.6785189878138833 -0.8339406527971895 0.08887737985869855
P 1.406108851333468 4.942616267000436 6.564330267936922 -0.16933311131260514 0.8767405215715354 -0.29910440117218806
P 2.717560517042412 1.431474381193282 7.145846165205547 -1.9982343803682034 -0.15661874906973025 -0.7551569097290672
P 8.324139924382864 3.3590414169182283 10.850328829285916 -0.16297528741537737 -0.10878723140874813 0.45679170071574876
P 7.978200823071062 8.380952777811569 12.993796760375037 0.8225676350735576 -0.16580735754753378 -1.914281434394316
P 6.99996840963603 3.004897456715368 1.3527466741525047 0.18844977753739803 -1.2361691735550775 -0.6377071175493146
