# total energy = -340866.1815713561 ev
CRYSTAL
PRIMVEC
9.29619225578234 0.00000000000000 0.00000000000000

0.00000000000000 9.29619225578234 0.00000000000000

0.00000000000000 0.00000000000000 13.60591703985164

PRIMCOORD
 96 1
Ni 9.157567202321426 6.599190085709233 8.717691847666812 -1.1698372830970627 -0.7249616170926095 2.2290076012641613
Ni 2.498918672467054 3.599225255872766 7.481907209891307 1.5028270241627861 -0.9639127458136689 -0.8734014298959731
Ni 2.2686055152288036 1.8140124293717836 0.7377253469013767 0.5073943533639648 0.0647858861271336 -2.0859596489003303
Ni 4.1445956567825215 0.6872451650069207 11.83539201978811 1.0800523038224301 1.834858257969982 1.1231375650476787
Ni 3.726480828402914 6.396235621579042 9.775211777691908 0.26671261510504385 0.05106313722440239 0.17679728090013425
Ni 2.9235687238350967 5.917054107835234 3.053643831404209 0.7729983087858623 -1.0197583920283793 0.43522888694330847
Ni 8.24667053127613 8.509966577793143 7.539106679376148 -0.9321984454295235 0.3039640432573346 -0.647808981870007
Ni 0.36486809974068724 3.045590540259285 8.425069104191596 0.23068117540278335 -0.6134765271367241 0.24609905261975037
Ni 6.005479486307494 8.886471650701575 8.618001343707517 1.1981099047895107 -0.037232144878581036 -1.3027630594252273
Ni 1.1984464825364574 4.521472577371659 3.7446744058007333 -2.718914853586956 4.097675865805052 -1.3547515366773766
Ni 8.72098084040267 6.774004976601877 13.58484146597784 -1.2226803950400231 3.0323706383848097 0.3713272031933411
Ni 1.0982800135458561 6.384308607220347 11.932184900695493 2.059610726593156 0.5287921023134506 -1.7318076719346949
Ni 4.906381407864081 4.327191460393973 8.944679757020335 -1.1720980541067814 -0.275332495563571 -0.17638076218800589
Ni 5.43327097904267 9.282926351679965 4.071271012623796 0.5739278183098245 1.504816286678673 0.2159634095766345
Ni 4.643503689987866 5.837506592739867 5.890327555784377 -1.04663284782172 -2.538179928195312 -0.6109532464942381
Ni 4.773957152572097 3.009735127647058 10.910693292454152 1.3112281594734452 -2.242779458237273 0.9279610103094084
Ni 9.268284849252105 3.065540168329246 0.501158641292827 0.5713952816959578 -0.39232643115282756 0.6622729798141369
Ni 1.1688752957281878 7.78778260470694 7.362161101273048 1.8246010990183479 0.5356047543599098 -1.70901252841705
Ni 1.6064098692327482 2.839298743194744 4.793990446370218 0.8131712814603221 -2.946399119318997 1.9937128383487663
Ni 7.880837486804008 5.870359335330382 11.264596533709977 -0.5356659466151484 0.2520002485955337 -0.4959704277977394
Ni 7.393466027892616 3.1014048771334912 9.246349554567166 0.9774398337658263 1.2554339353219606 2.7546243911734236
Ni 8.424869236063216 8.03756198803023 2.1911515025758206 -0.24641786941174978 0.8213378764315146 0.2735862022964256
Ni 7.2723831268622146 6.379725584555626 4.460019170419523 1.056630325354064 1.0651478759067718 0.03971943007680901
Ni 3.5359181882323023 1.5001636906625782 4.903368512031148 -0.20199897697674243 -1.6542997102552026 -1.554320821166704
P 5.876913150702852 1.6977821405746154 12.755424058729188 -1.7032252323113117 -0.0032506457268137567 0.7029761139604539
P 0.6983057742695673 1.8599820988992568 2.1912732826912524 -0.19927309340514712 1.08772164744223 -0.8397012094300507
P 8.998035251105861 4.559679926564362 9.917747501041532 0.14628522835420613 0.10713941139268 -0.7386002909219667
P 1.6500368983717635 0.7933760707960712 8.840063200910866 0.11571172644272332 -1.040480455067079 -0.5901357955282547
P 7.690572324777963 7.900601191033616 9.97687871922765 0.011741199696328166 0.05650719105810913 -1.8170880784707544
P 2.7466807821225063 5.809645905262853 7.46958045927585 0.7820192813375499 0.60576630297666 0.04351823499760892
P 8.595770430116415 6.432193292303464 6.471585905978421 0.09321174556799432 1.50996877741389 -0.950894222066814
P 8.584773034959488 1.2813220343741567 11.637425892294612 0.7111424518213301 -2.413500193926024 -1.179615188419433
Ni 5.550495960385732 2.609785058470015 3.365355375568548 0.011960257685669724 -1.9852935039368194 -0.5864632317726739
Ni 1.672133946797811 7.677734283601534 9.669711153721556 0.601947700561518 1.2261279872689916 0.6325602832410524
Ni 6.347374836334067 6.503746082263617 13.046414390886097 -0.4163752445719152 -0.12296737956387209 0.26101505049963436
Ni 1.6095612783267448 0.6200151043349923 11.303673076856333 -0.6936954599894762 -0.049791726711146504 -1.2269419985298546
Ni 6.711664712931254 6.399935506002082 2.089977326370502 0.6050376523407515 -0.9194059216505456 -0.4912709654395411
Ni 3.2115461601590733 8.883915197896709 0.8413983395210501 -0.20808657793171903 -0.7130615232209139 -3.422084828725771
Ni 4.774431258365 2.2364685794236516 6.666966762471802 0.15014908218498657 -1.295164678252679 0.6366761051816391
Ni 3.239871657236972 0.3009893162911359 7.155378465269973 -1.179391245334085 0.6563532718955922 -0.006449612280085666
Ni 3.9639799420708375 5.9154644590002095 12.325926043223921 0.9726642667540539 0.9538065106176026 1.6875057646935259
Ni 6.022919142532679 4.039167543109908 6.895274731091836 -0.33455245756715285 1.3152205684622897 -1.123214441032201
Ni 6.370513058266095 7.0310632782750195 6.74086126320121 1.2207618378610718 0.8850367001420565 -0.35356705099644264
Ni 2.727288925573607 8.209355616517128 2.8862640348873114 -0.8316251172901353 -0.06787995167142503 2.6793774576139664
Ni 0.657634934192177 0.9772342972835248 6.495287477146722 -1.2049438969922088 0.13895758434454134 1.91973962929541
Ni 3.9991846212418265 0.4039771795591058 9.353605299590456 -0.6762466683854095 0.5970811164978362 1.1945448131460716
Ni 4.231580125492039 7.370941354633755 7.7167178648277135 -0.4768280505413336 -0.2046191882084089 2.2039784262096753
Ni 1.8917100022556301 4.493584001318592 12.897061769929904 2.673745199028853 -1.245562184734203 1.313868939530402
Ni 9.207180979119833 8.28368796789057 11.516210985337558 -2.329081364059311 1.2487171854234171 -0.9586692380265425
Ni 7.919063428380746 8.722458934933483 4.77812556507283 -0.049536159056914685 0.04880930819321917 0.34005796076641437
Ni 7.36898915431004 1.7462617819468644 1.1441130290506691 -0.30607851849717604 1.2395563448597557 0.7693923366021588
Ni 7.652253421281048 2.1969969481165434 7.221231759904081 -0.7048368213182764 -1.3842593163285062 -1.29870174487166
Ni 8.622915310808068 0.8886917867918422 9.251764586417469 0.28152448330689583 -0.5751362367956288 0.854562185702283
Ni 5.772238028583671 4.736409833012651 3.8823528688211137 -1.5767159010324523 1.5517250354150696 0.7017299002581785
Ni 2.568807444056041 3.1191699000792954 2.625166537782484 1.773172865145043 0.12184432170302242 -0.18541047649044198
Ni 1.572432287408094 6.783756682028434 1.2235015792625334 -0.3100894394287821 0.5064319894506956 -0.46505394072454104
P 7.3168654056668565 0.7033238587207159 3.0224318667048182 0.013675954825195803 -0.46426666893655527 0.3507069558398283
P 4.885000166223395 8.095598114796665 13.120607299379277 0.577226029445122 -0.5188977260178742 0.05107779251242171
P 5.720142168516541 4.922733409623196 11.055392239686293 -0.2325987041404704 1.7842005837141144 0.2640049863658937
P 1.925836323152567 9.207376199152206 5.35228162456536 2.433342425462932 -2.1614449237228386 -0.254691936495084
P 9.180454427068977 4.943463917822644 12.902300174131872 -1.9495685397313842 -2.068324709427386 0.37420066808639424
P 0.14605247278991515 3.0396502735599817 6.278667610750528 -0.2872716702033181 0.517871855856521 0.052165369149645646
P 2.9249817450217854 5.016801576650193 1.0526859101758976 1.3397149540592281 0.07990577248770754 0.9438751104365034
P 6.4594962082594165 4.011223189904734 1.567810220736899 -0.33121593699475216 0.040083241174130965 1.0554571309815695
Ni 7.192194174517627 9.283465530816992 13.348655904242015 -0.2609438309420667 -1.4928897104444159 -1.837325745673868
Ni 4.12907101611298 8.009292268104437 5.667966361198059 0.045157313262928676 1.8838593704590332 -2.5263374270344294
Ni 6.212375535853184 6.241370358756358 8.950843132328064 0.445939074271961 1.1430924109030507 1.566296248361025
Ni 8.066566107125421 4.369814500795077 5.364758973491502 -0.055440440356491615 0.007462884035948436 1.0418187142625284
Ni 2.385988531836165 2.6351915512543598 9.792981448733721 -0.153537024820613 -1.3402137480725176 -1.078000563499724
Ni 6.275645418725578 1.2511465950847376 10.601825453428026 1.5575676102387754 -0.7447490841321819 -0.2588126435316768
Ni 2.0381622113023057 6.970182516751174 5.11049138866207 -0.5609429760143824 0.280239188836569 -0.6747744547152571
Ni 5.480839593597185 4.012282955794751 13.304844810501052 -0.3089820652972162 0.21319767390603928 -0.7811101392597193
Ni 0.7616528155357069 0.4370474530428334 3.690686770658003 -0.7097576556586616 -0.38116630077095 0.24054007047473416
Ni 1.7825076346238349 4.962195744738287 9.291167425903646 -1.0359082623153641 1.1651424487245547 -0.2028024467146443
Ni 7.95609945737922 1.9030606527092286 4.774153302223671 -0.06683634089825909 0.05712656980966291 -0.11883381701147275
Ni 1.1408379806028373 5.080889524420143 6.261469655517803 -1.616412705401442 0.20955879160187132 -0.27822832905412725
Ni 4.815622685195381 1.986354533187724 1.0763763259137766 -0.10963826655513376 0.07272802379234572 -0.35863855198207917
Ni 7.845707177169161 4.111575582735689 3.185879373998233 0.34376420597340795 -1.832336777099709 -0.10302821743778386
Ni 0.5499943268193537 3.061747321986029 11.752858567816663 -0.01566830266487624 -0.36858974965752006 -1.6089511069170739
Ni 3.180654914084292 4.423249012512755 10.9198091383467 -1.1318152953273346 0.4903073159746911 0.7246700539941197
Ni 3.294960891133798 8.074830421829146 11.462304227065381 -1.479711521191245 -2.062599891128467 0.14453276443947366
Ni 7.83179077771868 4.965300672872195 7.757713142006522 0.7958898686720551 -1.1420678262932782 0.5960066524867348
Ni 4.560758284838414 6.808205667034957 1.5378764824399398 -1.3762277042732816 -0.5972477239826876 -0.9826671436030365
Ni 5.765005591193909 8.857634863062701 1.6608065368242566 0.3424848250403521 0.6365295523014457 -0.12988416128836341
Ni 8.877854080701177 5.178862092094569 1.6296893932834455 1.234496670948661 1.0150046793934777 -0.19466490520917443
Ni 0.15318637054428985 0.2646579386476029 0.5708336004654075 0.45448053608406896 0.07990577248770754 -0.046091395041423844
Ni 5.810296638704091 8.171538707389168 10.898298679636968 -0.9720104352201389 -0.6865228535004371 1.0642575028820187
Ni 7.546648679960098 2.8303743988577623 12.437780614438363 -0.42620868572256915 2.334973304063714 -0.056853261543618215
P 2.6900297879667083 2.2829216509360446 11.896917937037983 0.6215762734257231 2.349335486322657 1.6512388119416916
P 4.038526105860687 3.5881813797557514 4.824468011900212 0.1664910138781197 0.7190925599063422 -0.043812626309576164
P 6.343563397606815 0.2346210126192473 6.2308294066275 0.30409414107729565 -0.14357939938726885 0.6832444398594814
P 5.239064231601125 7.21173477013881 3.786485888638694 -0.46298883066539614 -2.1133228714046317 -0.533259651166501
P 5.652912107844613 2.2718684786270122 8.698275821018667 -2.6142799537836843 -1.5777502558342376 -0.7362127645263966
P 0.3133969437771456 6.665592785291587 3.281420987460034 0.8071916668381195 -0.7881279653384492 0.38005198466084866
P 1.4888688173610858 8.333338929457048 12.890041285718144 1.2841598425017433 -0.5317056764158198 1.4894976540437315
P 3.834958093057329 0.6748524114281392 2.5085904306422577 0.9398837298889232 2.160595945458982 1.517390780909574
