# total energy = -381169.61080981535 ev
CRYSTAL
PRIMVEC
9.19891599983697 0.00000000000000 0.00000000000000
0.00000000000000 9.19891599983697 0.00000000000000
0.00000000000000 0.00000000000000 13.46354340643684
PRIMCOORD
 96 1
Ni 5.230531244221004 6.326131340805029 2.6543242195202286 -0.6914547435844156 0.026715818728289473 -1.9118399148323593
Ni 7.678638763921984 4.073289211404627 10.609487918273773 -0.03911830615770038 1.4659579190505785 0.31962103306830114
Ni 3.860895439479718 6.605953167137212 12.079356951723456 -0.019025906283199494 0.08141835247749205 -0.6018574548405571
Ni 1.2733599497035586 9.057004339963749 3.329978161754374 -0.7685055631218313 -1.756005609337137 -0.505227427619633
Ni 2.6260329533088265 1.7968978569997742 9.546393111328705 2.0482819318438987 -1.022229479276691 -1.7799580063876763
Ni 1.1426709498448737 8.516218465134976 5.991465577177323 0.17126400978673084 0.5896758251727006 -0.30408539932654727
Ni 4.9327439349069095 2.614405523462879 7.9285190385092505 -0.25267413473410677 0.5818411596196302 -1.1793025422750207
Ni 7.352527992190427 6.903151745826196 1.9696489003478541 2.0851201837181703 -0.5134102205407416 0.17112105645096334
Ni 1.1396721032232133 1.6297259562162252 4.943301530820038 0.8957962526514056 0.7768948156267911 0.8370555442770874
Ni 9.159001920764275 1.4286376520766566 7.129336532644337 0.46029611432458145 0.49896756275285037 0.7809021370139713
Ni 3.331571414008581 7.807901931797978 6.415392102487915 0.425506517449222 0.2853081187190441 0.6070503118954061
Ni 3.2916757152412752 0.041899222675887804 4.531868973244229 -0.28827671442906483 3.5105978832665152 3.7363803358161007
Ni 5.765172243150178 7.2892854445710515 10.855856966617214 -0.6099340612011044 -0.19772631774331756 -0.3990280115427193
Ni 8.067136584083302 1.9320943257069672 10.507245646307183 -1.1307596003693106 -1.3950515218480037 0.28203381884314654
Ni 2.1955144847801917 6.207851678653767 0.09355665546299492 -1.81608354846564 -0.21253278662853073 2.6543860777759507
Ni 6.411754851094649 7.449420174601317 7.586733313884106 0.4748303033850144 1.0087718111098884 1.410765333038835
Ni 6.521617505090023 9.081556246814092 0.6404266933456515 0.35502178116509825 -1.7615643343718372 -0.04497193672499997
Ni 5.814073680698483 1.7777549127676406 1.579583584897178 -0.1732733269072758 -0.012172887917108067 -0.038206335866392264
Ni 1.8348249877393643 6.11998363285591 7.325163976713576 1.0827637892163224 0.8595215865900875 0.8988620360609229
Ni 4.771201770725987 6.117334345042909 6.671306865982572 -0.06485787701564959 -1.3094834088681964 -0.37252533726650033
Ni 8.462285220525173 7.782650907330314 4.169228386116119 0.7085322678919926 -1.1102008023813523 -0.717242651181797
Ni 4.0035430301609765 4.955750423866336 4.18360721174286 -0.43586652052730745 -0.7010287604260959 1.1283797872832246
Ni 8.05681540031182 4.972207284621399 0.19031821326643936 0.14854599936392485 -0.9861764423078757 0.8557819170419971
Ni 5.541187837043391 5.046414940133472 11.511625612096624 0.6265960952378177 -0.2623491959300256 -0.7749346065766267
P 2.9772843625158387 0.7421381878580393 6.752869054850527 -0.10596338880670783 1.0071196202184463 -0.19433528978389755
Ni 2.2399084534799885 8.417734870253081 8.487431377350239 0.2282406842820908 0.8733988587928121 -1.216279376609686
P 9.246934358974254 8.737066040879842 8.188728775892416 -0.37707053343502156 -1.1328630198655587 0.5983540696729889
Ni 3.689390849251991 8.83449176041974 10.220593624832107 1.5055835038620007 0.07053050192039466 0.20667452807554082
P 8.864066275415563 3.353299253641594 12.417116310807803 0.08644588759907047 -0.007067705480058796 -0.259614827717998
P 0.5753802382952716 6.96290790427499 2.245961340219414 -1.1530919453179238 0.34068248172429066 -0.23967000916495498
P 1.4517269312802392 7.729913521802769 12.081133262406409 -0.5227332977138803 -0.6508516253510727 -0.589742673854894
Ni 4.190547793877961 7.31239312160667 4.33255514000441 1.0768893327134164 -1.053041322451225 0.9910589672111577
Ni 0.04361574040472785 4.484121999656104 7.866774994309105 0.7944953023173736 2.1811817400301337 -0.27548676175324815
Ni 5.87228442125636 4.104758703100028 1.8917083247159359 2.650843354730015 -0.44643863961619884 0.30170944289520296
Ni 7.065466618952577 0.8114740974473159 8.608213144658222 0.3997944573950986 1.0999935228310476 -1.2051449572594213
Ni 5.75420713525748 8.827831745223168 5.652682378740245 -1.0996721349358867 0.4753077572420653 -0.963616811839805
Ni 1.1676000122519292 1.0055243109419996 1.0395547808566346 0.09580598865773178 0.4565214777734976 0.3069542362339101
Ni 4.198569248645102 3.49354592724232 10.118984238287512 0.08652482046612195 0.7680985574913997 0.36523394581140967
Ni 4.325541886432772 2.928208145563204 2.985177032458737 1.7639503181055105 -0.42219442235685356 1.9700414628737555
Ni 8.649648741966836 5.144760551275106 4.338236390536734 -0.46595382683099107 1.078228877460446 -0.11585776510228435
Ni 5.759892065356211 1.3357837937973882 3.9617551143688985 -0.5716997003102542 0.49207674917028804 0.8752819347481378
Ni 7.456328560530357 6.246036379041843 9.388694254259837 2.508083108809932 0.25042570501956224 0.7863773011959296
Ni 7.461102797943369 3.250289792079156 8.19274134305919 -1.660531035876895 -0.12346540224621316 0.6531003121759333
Ni 2.055037838279032 2.7071949893300253 7.248879205964782 0.2558435336010239 -0.5136333922951413 0.33377778418465737
Ni 6.759998214763984 1.3787151348504243 12.373966035553552 -0.10001822696686646 -1.6013414128906163 -1.1262038626778281
Ni 6.776179108038526 6.7498426114808145 5.403808465565278 -0.5919401957268451 -1.8033738142084552 -1.1281347611519539
Ni 3.2245236283145204 4.407384642239256 1.8528797002066442 -0.5162996262733947 0.5507596077234773 -1.285772952625134
Ni 4.398636473106744 1.7973026093045381 11.79108868070413 0.09457880111885002 0.8305725076559051 -0.34507161193092184
Ni 9.253557578506758 4.401754905636629 2.1268087009381045 -0.9562534294961982 0.5999085586443023 -0.6227062732651082
Ni 9.25668520995266 1.1407575753132622 12.436692523984354 -0.853076345185376 0.1721412701853616 -0.5868278142009442
Ni 1.5576248524721292 5.595783403606444 11.560713787640081 -0.28834202044936147 -1.536993899852482 -1.5157180211928412
Ni 7.476115428883706 8.604629246977858 10.176311882907722 2.022923655584768 -0.6642856393687915 0.5216539486067725
Ni 3.547709144752557 4.146328604582494 12.46588160439905 0.004081369158225229 -0.19210922866685626 0.24572881376452516
Ni 2.687214943740312 6.435037307534597 2.5684265815332905 -1.5862372102593263 0.7589886247703316 0.989326300790767
Ni 1.301802998029247 4.471859844604958 5.874964985383819 1.104391394788427 0.8481678521401651 -0.5635343908906424
Ni 3.9470156912342764 7.399120501818373 0.8042409897828628 1.8301060879969773 -0.13208322582221121 -0.19984002165221065
P 2.227775083253086 6.367903618439877 4.850860703869949 -0.09293226665436254 -0.3509087874379892 1.147441689010682
Ni 8.198184341666664 0.8482016895382418 4.392224828642641 -1.4958719330011916 0.23931005472237496 2.015628407474935
P 7.12198475896326 5.352067322642412 7.32144761464256 0.49042712938200694 -0.4811598451474681 -0.6368067172222323
Ni 0.7484403652215351 0.5600318469203005 10.06386433351147 -0.7342047329574324 -1.4226857386255047 -0.5227718642612997
P 4.49428680185529 7.379710789021735 8.697274289863532 0.3726163543184099 0.21546333001176438 -0.5807085886770837
P 3.0416767746373843 9.370567790247621 0.2902589164454846 0.4385378967118835 -0.13973534305083032 2.111980241333808
P 7.3242413254370335 8.223849317355107 12.26982510732098 0.19857092513179994 0.47638607790790855 -0.1913535814477543
Ni 6.855133404215558 1.8200975231955654 6.453305434853479 -1.0692989219606681 -1.4717778681664653 -1.3616698610637645
Ni 3.57494713507997 4.60426904175889 8.069832786367991 -1.458460582232269 -1.4921302065705722 -1.4282861155314177
Ni 1.774020152864591 2.6671705057384765 11.349417446396044 -1.1348584530290327 2.571508367144113 1.2017696130292852
Ni 5.958754231819578 3.8742706633689648 5.937920526823453 -0.04033958015931117 1.3211407906014665 -0.3760793731663459
Ni 2.2450782442817467 0.568648471553765 11.856817695322999 0.588386931157948 -1.4942369685009298 0.2525975158599005
Ni 7.474937967633484 2.995277442245802 3.856860794914503 -0.7965079618720283 0.7668032357187439 -1.8247430239128513
Ni 3.400360907986426 2.200813060406193 0.8884414277645972 0.48988256973244665 0.001236700620578515 -1.1895725567424609
Ni 3.288060541246451 6.086039632751838 9.827403437610332 0.15363472674074186 0.4726932024373537 0.9095801938093754
Ni 2.5998988329034964 1.7705613604420622 3.0546757628615206 -1.7872152021707222 -0.34980321307863627 -0.2816738644005665
Ni 4.629961614195386 8.850884228762682 12.524609324037103 1.3645962906819402 -0.4251370499249452 -0.5032193960506688
Ni 1.3988147663483637 3.8419456724839494 3.7436055806919253 1.5587217784478768 -1.109132509017838 -0.2727757905799883
Ni 8.065839536924853 2.2930781880603504 0.8235826306009715 0.6069726645799354 0.3062227573845242 0.9687672456924927
Ni 5.951073136945079 8.55353846741742 2.8765939476813784 0.2755281565141448 0.17158076969620129 0.5329097240262499
Ni 8.336563635315866 6.120719546137299 11.778729017143199 -0.05423433586353241 1.8258617108983266 -0.9821660355969021
Ni 6.318560632922738 6.617690983975368 -0.13684031499949595 -0.6753182430338692 0.2645081512545574 -0.030275253944773668
Ni 3.559198590858244 2.6434373024136786 5.292330481917255 0.06341060304616176 -0.3945609769103011 0.2265111031854938
Ni -0.06624139424103541 8.260083847547504 0.20695997223345186 -0.2940444701507775 -1.495112686237664 -0.087826569996681
Ni 3.5813127849639863 8.71421593349271 2.5573060119598994 0.29690945040339833 0.7288241853718094 -2.5792569007412807
Ni 8.959974173812597 6.720093317080661 6.428196073692483 -0.7267966134188193 -1.6956949853725378 0.6563756404930954
Ni 8.248530009029695 0.05785014304999631 2.2425145063877077 -0.4771720641443136 -0.6231600729730752 -1.0397188943107063
Ni 1.5253274583351655 3.88357076746252 0.28283447132787043 -1.1785522943725573 -0.709770511174468 -0.8639310285116927
Ni 6.271655360150201 3.3928177968521878 13.014319137571066 -0.7332801642606338 1.088143565470997 0.4491712080560135
Ni 8.60025976186961 3.2027865897654904 5.768037705489587 0.10693680846357068 0.5041341945554543 0.704523918063548
Ni 0.927867061923416 6.875821766338609 9.619150097784837 -1.5037955587236425 0.005166888912920133 0.04166652650085082
Ni 4.977211494934846 0.19771046217799274 7.811911739289946 -1.5708057061956044 0.0904426674632894 0.3191142686352117
P 6.515205860625921 5.1175869533598135 3.6981932919890066 1.2480553834697021 -0.6319717577274342 1.9400220336935299
Ni 0.4835630978511602 2.7155844007378613 9.18552975477515 0.6389785280625705 0.4366504498811835 0.05137244093470507
P 5.338793286829357 1.6122848114473038 9.719264660476613 -0.2612960720751629 -0.7898305498518526 1.1775009702899075
Ni 5.580798369414159 5.239169026361309 8.943225707419783 -0.8286927741346889 -0.6068636498058968 0.2646230795658668
P 0.08938218737431533 1.779843066703582 2.8933562124482184 1.3304335287573021 2.4335321728762347 -0.7166299572984626
P 1.7537549408783388 4.594417002704294 9.38281062757513 -0.5913565553092331 -0.11878805137520188 -0.23740923815523632
P 4.880199726615729 5.093255820493887 0.44930541471089636 -1.5224106027216684 1.1450477348572088 -1.695233729465403
Ni 7.934184650884345 8.807345759252499 6.327892013330753 -0.04757852110991161 -0.28229658558622994 0.6656778917306277
