# total energy = -381171.6606953357 ev
CRYSTAL
PRIMVEC
9.21527019960580 0.00000000000000 0.00000000000000
0.00000000000000 9.21527019960580 0.00000000000000
0.00000000000000 0.00000000000000 13.48747943090936
PRIMCOORD
 96 1
Ni 9.096964599659657 8.040553665272816 1.8857926281119342 0.44036517972860934 0.9762501843330993 -1.5084346001575506
Ni 4.040573465337778 9.220707248428786 10.989773734531559 1.0137121858342992 0.021735077684246436 -1.658199559530241
Ni 3.600166485346313 1.6539567024935273 0.8740914203435887 0.40417304607876847 -0.2171412319348196 0.9389265081819764
Ni 2.244019671166154 2.670880203906307 12.780735702722163 -2.4656596495383987 0.5710630951675196 -0.049649801816643524
Ni 5.340802019707759 1.9504764529734373 7.333843805915081 -0.7835210626940571 0.8873409227952008 -0.5101788580876375
Ni 5.158643772893687 4.3579934487197125 3.743017918483006 0.6360484988999691 0.29488830620831147 -0.182413341535331
Ni 7.439257282178862 8.988814188134898 3.7696961258248756 1.6358607868237247 1.1797499142250842 1.2669241953497472
Ni 4.165302148022478 4.0451903157275115 6.423034141304246 -0.5278068555820458 -1.3585845372702214 0.39080022431628825
Ni 8.638928807701008 3.7868678603882056 12.749377059625912 -0.3914617691596871 -0.6794446064974169 1.310692341574633
Ni 3.926958398561298 0.2081923067662359 3.213081823538703 0.732862617107241 0.5218521806605078 0.7542097153244495
Ni 7.152782176259449 1.9947834722824902 1.4498366236459 -0.02730717245538523 0.734148168687884 -2.5776008531950962
Ni 2.6475932160123845 1.4206905669340295 9.323099037581203 0.3429321969904158 1.3512319535598922 -0.8459235361906786
Ni 2.1334548588387787 0.0352281350696025 1.7779601434104186 -1.3769882365883896 -0.2000678213923006 -0.20590422556841959
Ni 1.5641723245550692 8.787359165440385 10.105885560396901 0.770048482128919 -1.26123974337046 -0.6555222913538646
Ni 2.5323470464036038 0.2777169130842792 12.756188065859547 -0.8879500171341094 -0.3093402199675833 0.0680226478968764
Ni 8.49853416561003 8.058661671292427 9.83337066736253 -1.2250136711588901 0.3777837574519623 0.9605636268357781
Ni 2.1992703188856293 5.852406177565644 7.907816912750436 -1.065860071482448 -0.04805726051854304 0.2935760151547912
Ni 2.2934688112685624 3.6853432281652774 10.586160564023297 1.8705554542612752 -0.7621343694881649 -0.4867540514057939
Ni 8.482656254988253 -0.20214985407053163 7.738077164110424 -0.6585513079881755 2.3923531275347636 -0.6956512981642664
Ni 1.7358896701883677 6.997357428408682 0.5344045794831883 0.6914999950000542 0.641190962332857 -0.2573571420320729
Ni 1.800424207671999 0.8896698346825975 4.012687136067577 -0.4788293972420786 -1.5699047916478899 0.7237819949622115
Ni 1.0837065648347242 3.5088800183589 8.550401392623149 1.8000835734929581 -0.26749217358354577 -0.9868133045609262
Ni 2.783453945145782 7.789244030585379 4.671239836210409 -0.6337167654429988 1.3845987019457962 -0.07692380704124817
Ni 9.051100199680215 1.2336113658123387 2.4869701342198036 0.6916601747270024 -1.3812583247186534 0.06616682563506024
P 2.0938384120813702 6.825879679801596 2.7664840250006857 -0.5056146357557229 0.3071128732989614 -0.3775700987792594
Ni 3.8095005640951594 7.046520895133681 6.735917447147526 -1.1351019364984063 0.12895470749555854 -1.7811162883618357
P 8.598842382161413 5.700566169837843 11.720282029281478 -1.171463505846576 1.3589306077557308 0.37178151712194035
Ni 0.518866712333231 2.840054134953645 3.9070257690343673 -1.3416633360348507 -0.1157063271260846 0.7097856806831195
P 7.704813724655772 -0.0420124170195453 0.6794732066393818 -0.042880858523926146 0.2985210178648923 -0.57053576190914
P 0.394724120835731 7.383044133721037 7.702673017379256 2.097295385628123 -2.3819761551758143 0.23333918185092073
P 4.694700992711848 2.273213647283267 4.743424891046448 0.9586656384821167 -0.6298205157123863 0.3901175964269668
Ni 9.051127845490932 5.242991141391142 7.978505407699663 -1.4032669677792606 -0.06078447827722435 -2.3179245761115435
Ni 1.4119452754772301 5.246446867730763 11.996006600940087 0.7735405544425775 1.1578078627363544 1.710325590801519
Ni 4.422684645797407 2.0181533976085633 12.14055272227373 0.3244660198654283 0.09642742429181457 -1.2155584392832615
Ni 5.439175029508953 6.909305521275153 9.886929817991525 0.925306860516013 2.5919674063294136 0.22393948580357562
Ni 4.925617234360404 4.81367934676742 10.296827802802774 -0.05992135894598067 -2.296719145678522 2.6905049349856953
Ni 5.735353814990021 5.480081614099821 5.727876544718106 -1.5430187658903232 4.401641965944916 -0.3018325987366286
Ni 7.848452141870876 2.0102374804732728 7.337930778266072 0.238006505419603 1.9163576001970546 -1.1219751693084614
Ni 4.150493208748425 8.111262433816568 1.0750948947963903 -1.096295248043854 1.038842919463656 -1.4898537518315695
Ni 0.3242365187777134 1.1344181969598741 0.18881259345364457 0.15281223083944653 0.13523925495268968 -0.828196808334877
Ni 7.760612185952844 1.4250125286761148 11.919115307592996 0.4593512339128089 -1.2721990705954411 -0.27108734713397187
Ni 7.366788397019462 5.459347256062098 9.853601871645203 -0.09695450043987817 -0.6885820500223109 0.8638119864353252
Ni 0.41582893273706084 8.148188021664193 11.941072531991432 0.9622243023676523 -0.4850910618810743 1.8010621353561431
Ni 0.24851003558883134 7.557443122993881 3.9818408619966137 0.826069734689545 -0.18489317053439125 -0.21899962529979702
Ni 4.860824669310081 2.4223996571822406 9.610207232566035 0.5039580739889062 -0.6220401004360191 0.6742792602463935
Ni 9.2242090511196 3.8414775518244473 10.553803907160164 -1.7111051492800207 -1.3070048654207167 -0.6481540239142515
Ni 5.702252564291577 0.6009351445005845 13.213481107036934 0.8534434987168077 -1.3660967864868665 0.07454656505832323
Ni 7.359148937991342 7.007116399591769 8.04406744781494 -1.5316681167641943 0.1454478200545753 -0.5389415320426266
Ni 2.9700355216745673 5.503396247804459 4.644386538733999 1.313847856484479 -0.008374340106624287 -0.47611919739976716
Ni 4.742150419172396 -0.4872012007380212 8.297820972169756 -0.825059805367792 -0.09171330664559688 -0.09170456489484852
Ni 1.0743162044611958 1.9439336111037557 6.8207937721567 -0.2798164994768536 -0.6488672479311922 -0.6222272767461606
Ni 6.01403280228725 -0.05120741366400731 2.1168194530033575 -0.6434591895417434 -0.18700507467107147 -0.5931604412871914
Ni 3.297776607724168 1.2104165306208061 6.292098052586564 0.25386841215252404 0.20809583390309966 -0.9152793010766817
Ni 4.4586334149996985 5.598958600182763 8.313857385439643 0.7902061880237164 0.15818789332906305 -1.344533458493794
Ni 2.3959334010558675 8.750921986915428 7.704007388509862 -0.4618151220722691 -0.5738303735000118 0.8885423993024697
Ni 1.8839053407669895 4.654909455819898 0.8637297704868707 -0.9333844953178249 0.2367145260810568 -0.6989957891564671
P 1.8033178025270413 2.5282001747960594 2.0067614805391267 0.10682085171099669 -0.8684888230857042 0.012394002788978654
Ni 7.703698676956856 7.32693235323584 5.51126701011558 -0.46504648452537334 0.05978869002285832 0.7715358653077229
P 3.447838068295845 3.75123241037404 8.701204682449065 -0.7911299853895665 -0.2366456205163344 -0.9521787452061924
Ni 6.430996134790731 3.447570825458914 5.645844973631709 0.5925091808564377 -2.316510726483153 0.360467891881334
P 6.848392584995444 4.61947674175099 1.9547136342293236 0.42891425757919033 0.21763745484494776 0.17397292407746168
P 2.803100901295304 7.576795190495756 11.820211498226037 -1.0678616752935093 -0.6474168886379108 0.6446370118999285
P 8.69727989885428 1.1006718773447008 5.389650324190585 -0.10246231763198482 0.7804961598248041 -0.8317482731315612
Ni 0.7388729955458493 6.15396668086628 5.735281014355133 -0.07089122769392307 0.26749808712081674 0.7757617304636123
Ni 0.854633377233966 8.780641233436164 6.005812781234074 0.5180101812065983 -0.2821950270113592 -1.2947314473700025
Ni 6.711177211136915 4.8494161647542136 7.584131467133013 0.5517001172598757 -2.070503719356576 1.3117668055857346
Ni 6.516550703689493 3.2696884640357333 11.333016748177183 0.18237837453233752 0.2741140497754376 -0.5977159218683576
Ni 3.4611725643316604 3.9445411341772862 2.2593548023708534 0.14718948533603038 0.4884427519621265 -0.356972734243882
Ni 7.4240889473654885 7.764058697022225 12.396963009038444 -0.4822319951657243 0.2881309328798199 -0.5004852849489573
Ni 9.07491245797776 1.6006647947014607 9.395445359646423 -0.5745677658866686 -0.2929563792929213 0.03878560540862997
Ni 1.0090813064394013 5.023925737269926 3.3921547978767617 -0.22798614506912349 0.6714078522358695 -0.19011893770970484
Ni 9.16285378186842 3.5221868685839985 1.5477553206243126 -1.3606589033007472 0.23374413059882326 0.538422169204047
Ni 8.853451083594406 3.890419852063711 5.70435456743309 -0.6374047558175474 0.04829457334032973 1.1519215791589064
Ni 6.560866938268786 5.389624521433917 12.624335057753086 0.44679113785961116 -0.15514473562736505 -1.4004240990138268
Ni 6.534603418087671 0.694602837317752 8.871767354721419 1.4160998578778707 0.16124853453225776 0.999363116201479
Ni 5.491379535412819 3.7144358363097614 0.32923856746343605 0.19788906857342695 -1.1790261486851825 0.9853338918019223
Ni 1.9352528265386293 4.192201521850083 6.109720482340805 -1.5202128237394013 -1.1027772562237719 1.3244598276723707
Ni 4.93239045798606 7.319716796638713 12.233562444795833 -0.18368629471048364 -0.038744724868365533 -0.27882559631849396
Ni 5.336240460939461 8.060781183447395 4.653881953188252 -0.19382466869606618 -0.15471844672322385 -1.1879540473024315
Ni 2.984512711220017 6.15988288435971 10.282355220892445 0.11364558794231396 0.5539786288814073 -0.4538760697308506
Ni 4.260403736888832 6.827188248175532 2.9055673341366566 0.6366699345340519 -1.075492966586522 0.15368692013491597
Ni 7.493590515507934 5.252270918521804 4.36640975502898 1.1410064749082995 -0.4587398255810551 -1.7486627958188208
Ni 4.090289848277117 5.725650135428367 0.4209931701789895 -0.5761855039957496 -0.5916792287559746 -0.48068213418010125
Ni 7.113783152608052 7.012700853356596 2.6518810812545857 0.19472609746441305 -1.3075034023236902 1.7825951869002075
Ni 6.613661221467947 0.519713595668194 5.990666563069273 -0.3052850760616032 -0.5643504590340345 -0.4948190878021156
Ni 6.116654051668619 6.926362986487519 0.7263411495478497 -0.23916992960008487 0.2659693091811161 0.4113795911295367
Ni 2.717002631452441 2.9553003045624258 4.30823836164537 1.5992626759847166 0.8631869512568165 0.18867217796084926
Ni 5.092275396632498 2.3025827135349215 2.4516194360560233 0.5280832491718841 -0.5183007158638235 1.3352751731203196
P 6.275617463291158 9.0057149937532 10.762293867155119 0.03852823798218526 -0.7263042471634331 1.4009311205572326
Ni 8.561916794313788 6.0795902347674105 0.7462986603044256 -0.18648185517774982 -1.1619118576023988 -0.7275216645103019
P 5.733695066347004 7.6812871397356375 6.633479581643914 2.018837658440852 0.08866886339231826 1.239542975123317
Ni 7.260803574000864 2.3451941231200006 3.6706172263233743 -0.030035884240457947 0.22063099025563296 1.3944462841638372
P 1.1039248677390634 1.4157327515454539 11.101099728180674 0.3304808586009405 0.8712471025571317 1.6835665775401196
P 3.8801816868281955 3.989281271187572 12.311802853705911 0.1997744585215979 2.6199955161112234 0.09041721354199267
P 7.154634445577486 2.983287080278232 9.093554949671232 -0.32404924404298385 1.0421041067134311 1.3642167958553344
Ni 0.6036103374509627 6.041015113547007 9.84815288235289 0.7921455711382744 1.1937585697993505 1.0785577215547748
