# total energy = -340862.53261484945 ev
CRYSTAL
PRIMVEC
9.40322809844120 0.00000000000000 0.00000000000000

0.00000000000000 9.40322809844120 0.00000000000000

0.00000000000000 0.00000000000000 13.76257481493252

PRIMCOORD
 96 1
Ni 0.6897775631474671 0.3956144958960467 11.442039853918406 1.5996167168900257 -1.0967125380869305 -2.314799657329316
Ni 0.5893445041128336 5.5558127307275615 3.337657970126582 0.7786663057049171 2.275886268093571 -1.2680040586774872
Ni 7.250406090794546 6.626614740954225 12.976498119024571 0.876732036931103 -0.13992457624350096 -0.7696718155157906
Ni 8.023182187640655 2.605023313983136 2.4864298003983714 -1.1129685949344768 -0.7628558210352218 1.0820598211707624
Ni 8.259870843717575 8.689222241614845 9.84595283143557 -0.24643972378862072 0.39718401635544504 0.14789859558791302
Ni 3.576743509062109 3.49392927863545 8.298350734003936 -0.57467061001312 0.29418922325875785 0.6735578086993368
Ni 4.6140042044333285 7.1680338120915215 4.23584492097523 -0.3858192261619291 -0.12708525838698756 0.47463155711064714
Ni 2.75537152907248 2.675067960565194 11.258253759483406 -0.5005169095178412 -1.1361501752572627 0.750853397257707
Ni 1.9799061089719103 7.36546399059023 4.15514171527104 -0.5534320123493178 3.395599637951049 -1.6256866745042002
Ni 5.21434390323651 8.607555205024005 9.626246405420027 -1.4382499116123488 0.584186262813039 -1.33094106452134
Ni 9.147281695092062 2.6799670424378284 10.718527269415349 0.24923399870430624 -0.6266832556349853 -0.12648670557104025
Ni 5.091443711153345 1.6220756644782028 8.167276315679157 -0.6227011310587857 -0.5011810254644015 -0.07101078399092287
Ni 7.498829975618198 8.819635612999804 3.5757646330103987 0.43803473182321984 -0.058310305705118935 0.21897442848881643
Ni 5.957781928215789 3.9173660460185413 8.39148218637043 0.004813105117927195 -0.18300109571800094 0.4438122577369453
Ni 5.677020341741486 9.198388240154953 0.2450114533235006 -0.15206249715761552 0.6501319735762288 -1.0691518548598424
Ni 1.043476229186596 6.941745126362267 6.2357122026903795 -0.28446736798530364 -0.4899496755249562 0.9768587644513758
Ni 8.188387503226664 8.135212247968033 6.062070310797026 0.7314094296004823 0.8792625166624405 -0.09560235728735793
Ni 9.382964205755599 6.372041144912334 8.367604569097532 -0.8096483559087282 3.113175268537703 -0.48869343452035185
Ni 1.2855153220879474 8.19495095648405 9.538207741426314 0.465757651659785 -0.29550408541543943 -0.048787453816348234
Ni 6.669211364530104 1.299244035205118 5.91299435247806 1.2732475664646137 0.962883018997574 1.2388611185649439
Ni 5.256197671787556 8.874117916973015 7.0904101636105334 0.2837978527221048 -0.2959722833011096 0.35846551673932464
Ni 2.9152452142903815 5.420472067785481 3.9887384284171366 1.0822349132960458 -2.313099129698442 -1.2771985806925619
Ni 6.926737574215004 3.594167690847121 10.706361372818776 -1.7381189588647035 -1.8486481126652226 0.1296072534778929
Ni 8.385911714006998 0.4032922316906836 1.5625203189113532 -1.4106385776529835 1.0632372891476203 2.129065736061185
P 0.9790923259583304 4.633703967433652 8.357241271339701 2.049470295725045 -0.9240004829997635 -0.6866534655410302
P 7.9234985658905694 3.0134337227626387 4.857115265345199 0.13530584652456698 -1.2364036581633868 -0.43611128954826184
P 1.0038792353945374 4.2993721901178965 1.647752119298577 1.2468220252832334 -1.1228979382330468 -1.7051337621879343
P 1.5714580872797579 0.03725841094805848 5.521668668946905 0.20714761105721743 0.5785246936518875 -1.886552343910164
P 1.092278983349689 1.0377496632356666 9.379676837190008 0.35411726707295793 -0.17643321269249612 -0.3879743248317189
P 1.5142300406831137 6.280848638192936 11.493842237865318 -0.05502083632056976 -0.14060951812566752 0.22457866204947127
P 7.76628599424264 8.65060318355168 0.0592356358093265 -0.3975357432679089 -1.3721077685676368 -2.46700176538859
P 8.908298651343504 6.181136806758361 4.892925579156241 -1.740579504590054 0.9157063613117712 2.144191793069346
Ni 7.011789772944325 4.812167834728709 4.080837406331394 0.5132292148781871 1.2512188687993484 -1.1157230177511621
Ni 8.594287250086794 1.0925798866508873 12.82512307141989 -2.361298058001172 0.032975940705388375 0.7781294593648405
Ni 5.530959998694218 6.6353691463734625 0.5156683308144393 -2.2413506962105463 -0.7561136172153816 1.3762495586501524
Ni 5.875494278566228 1.5152737990091452 3.7950159427828796 0.1703875207190485 -0.20962486895311638 -1.7819179583275249
Ni 3.333237512567416 0.16069364671366654 1.0779042684577584 -0.05690571204810845 -0.06979490930595075 -0.5517859921054625
Ni 6.660109039668856 7.465138209112156 8.34496441665081 1.1974995248990217 -2.662995673821833 -0.05502623563720846
Ni 3.5680549262400096 9.397887128849401 3.3398188319583118 -0.5062075321447153 0.2326457553283219 0.783412819250967
Ni 2.2237600249086142 7.135752529809846 13.592813902475749 0.4850288411845711 0.1971928138373507 -0.37900091768851507
Ni 2.7177680196508596 2.7815031001359163 2.4580781271657814 0.08036548573294547 0.24241260490709862 -0.2549937840062189
Ni 0.8356122287188369 9.175623024773673 0.46962824508547285 1.3347005315637723 -1.0081979408842896 -1.0046806717596501
Ni 3.32133302571376 0.7081345451661936 9.885148307385093 -0.9753320433942041 -0.24931987354989324 -0.5941508302249187
Ni 9.254751189760652 1.3294283976065688 5.53305033631473 -0.4681852872646711 0.8641919954825632 0.16402763993929168
Ni 1.338568335380466 1.0203442879069795 3.4951159660295508 -0.2441100472141796 -1.5954535866512716 0.26165834051058806
Ni 5.186030783239386 1.1388531724382824 11.31220384074262 0.11968870881260033 1.7194167544695096 -0.10498302717130953
Ni 2.585295341298325 4.568154063913243 6.145457197818778 0.4470212515925463 -0.3257004064931617 1.5024734974781093
Ni 0.5341908096488248 3.3868077034088695 3.6555322175124254 0.08436175137653214 -1.9296283491640316 0.278251726092895
Ni 8.342826122566672 5.168117633589927 11.44454487390088 0.653609390601868 0.43821342349292913 -0.11327072110139849
Ni 0.6217621332028651 9.11137076673968 7.350590904605691 -1.850814267078606 0.5713924534824805 1.8961813823594957
Ni 6.165781335169087 3.946393811356011 1.5636759756525178 -1.1351322755157094 0.46655623630168036 0.06606706683240235
Ni 4.103437124897016 0.8510147164489229 5.4225097473282835 -0.20495780249475024 0.10617499059688167 0.5278261388557555
Ni 2.2594264693287704 4.516624373583041 13.490474809092587 -1.396911200764562 -0.2390431742142335 0.10255513445610724
Ni 0.30554097332797964 2.6540047294813154 8.073952097135333 0.12307870833075576 -0.8710789524103837 -0.2934438604523011
Ni 4.5539739958442755 5.614432455092248 7.318744991787936 0.27757938261621873 0.8473353289365407 0.4234905154604577
Ni 5.961562025937092 3.838745655352333 5.876619844977272 1.1613022490428582 -0.006233382504221522 0.4621020571850687
P 4.8382335831950085 2.2967478819055174 2.0273096627844316 -0.8987188256148394 -0.2953937850898203 -0.7298130316476399
P 6.872725431649916 5.326712479777735 7.133403603414867 1.0366004032863825 0.4873132663433736 1.697629226280773
P 3.288873082096998 6.842747940268039 1.8104806245865968 0.3005802143867662 1.1663292699438044 0.9705747312148768
P 3.2049210610626826 6.580614148783541 5.9223665499875695 0.7170745010350489 0.8058256397285283 -0.5420268558361697
P 6.437365370956843 6.293721657547323 2.4743043376828977 0.1762306097633868 -0.11012240528040389 0.4270514933388387
P 4.259295631689553 2.8218805618654583 6.341243692034691 -1.9118717965115593 -0.6469129524182988 0.3055889804552673
P 6.319655760819349 6.670772300405069 10.691676351397483 0.6271949051640812 -1.6880572663216218 -1.174028695470591
P 7.42574808633967 4.357230253001425 13.521220544215335 0.2032035388078049 0.3183066851322518 -0.8493261341143243
Ni 3.647154881542502 2.611671396293985 0.03407541821507062 0.508708187079382 -0.7639220575162069 -0.0741992090212335
Ni 7.365031442094758 2.206721375478262 7.9644157729166345 1.1589635736073525 -0.46204857823931395 0.7543387847031461
Ni 2.501277497666873 1.49668361693199 7.701041695637511 -0.09834700991203062 0.16741763945744717 -0.7764944948645788
Ni 0.6408422234672836 1.9312444032312541 1.4514287007545876 1.443734588876004 1.023746944362482 -0.389648112989716
Ni 3.708021977438013 5.437764604376219 11.976660391094253 0.3825881208191411 0.42377205125661854 0.7225864319922136
Ni 9.224275327286167 7.56512273416344 12.10740475611053 0.5884692064591092 1.0158240899709794 -0.5681292093501763
Ni 2.9183670860403135 8.718071345617227 6.923704092809798 0.8160372901542075 -1.9282643789369691 0.6508670519700402
Ni 2.48012023430137 2.641225742408552 4.859661659531589 0.044327104052149464 -0.44440849656004755 0.34495539806803177
Ni 4.60997021955164 3.6345357493485 3.9546893392409204 -0.3025900457279434 -0.058127757380667625 -0.6210016318691757
Ni 0.14364747470078504 5.728032854522755 13.578417560159044 0.00867644472807538 -0.32679621066050174 0.4670041224723764
Ni 3.269163915868511 7.751908458382261 10.85671711049065 -0.2331653752772178 -0.7453304105569486 0.5400746172058054
Ni 3.1175086520645876 0.26479396473165384 12.316045463224507 0.46108878542920595 -0.2139183541221477 0.7212754264902739
Ni 5.2788218387464 8.28006897781051 2.3490241885518177 0.600188037557934 -0.2088998178616338 -0.2818021624483147
Ni 4.621874706405296 5.1135224908787675 9.840654112366032 0.9988890047785378 1.3693348338081899 0.13019320788834995
Ni 0.3746330728971817 4.103352495843554 5.903511196876234 -1.3614742001131908 0.2914409710896594 0.49455554972808374
Ni 8.292763335829811 4.800705299598688 1.7893553321968465 0.16917318869597317 0.8276373362869811 -0.16744309337874388
Ni 8.376273405140491 7.3119126062051025 1.7735832975999763 -0.33484350644501043 -0.8285451928132311 -0.5595342685923138
Ni 6.251294292078369 2.401537456547812 13.274719619550902 0.18016645448268326 0.3668102891595941 -0.13105684144022592
Ni 2.3682124159401043 4.571924758406384 10.087733335562453 -1.475366099738356 1.4537451790344704 -0.16128195887335448
Ni 8.344800800480785 4.48347799431042 9.034758905608971 -1.4088241501520642 -0.8597416730206934 -0.26312669752599843
Ni 6.16617627075191 8.50296309817312 11.588363487354222 1.4624108251292685 0.6041678481412885 2.651066526484415
Ni 3.7780102046510966 4.817386626358866 1.4339499802462337 0.49175484705449496 -0.5079612816110284 0.5544771657843807
Ni 6.335020635636784 6.888720322754236 5.859912189178239 -0.7223920565932204 -0.7860109189954464 -0.6919471098398018
Ni 0.08447013890606571 3.240737957133438 13.366157550525342 -0.6257023797789547 1.2034192328175661 -0.46047969109029735
P 4.726927571436139 3.3749220230115378 11.138905166677196 0.421155696679694 0.43279585202178367 0.516592217813149
P 7.302302507023083 1.2410098431950922 10.637892707276743 0.5117878544459703 0.32876644701299507 0.695278745316196
P 3.4318867792196337 7.388200996287025 8.678129253351608 0.7604690659705999 0.37189078900629496 0.004748056207946661
P 0.5220662872561673 8.44140016339359 2.678912940560818 0.36432840327800475 0.7563216194611297 0.1437804596544814
P 5.924738984452956 8.975823232778026 5.012646539797683 -0.8975780271421768 -1.5216464708621342 -1.242776137348634
P 7.368096894475716 0.02751196495768354 7.8773672688484275 0.8330945027468105 0.35881827209305306 -0.3966649106271814
P 1.5607478104027321 1.6795199853225835 12.875480179198235 0.05073095069596425 0.6718824778794429 1.9179550265911613
P 4.30576638526836 7.716336046243729 12.81930153286452 -0.006937607660097728 0.6415624867396628 0.05878364579711167
