# total energy = -381165.5141393758 ev
CRYSTAL
PRIMVEC
9.25390035321355 0.00000000000000 0.00000000000000
0.00000000000000 9.25390035321355 0.00000000000000
0.00000000000000 0.00000000000000 13.54401856551887
PRIMCOORD
 96 1
Ni 5.573661091122211 3.2989506351567157 6.549941081875435 -1.6436311747977628 -0.29648676104368293 2.1322361633693667
Ni -0.07645849941753508 5.47968773484308 10.473399498865517 0.15845863049194645 1.0883032309773129 -0.5508958761910254
Ni -0.008389585898834139 0.4841807141866534 2.814271135750619 0.8532288116028401 -0.8028441885027012 0.7228088324156647
Ni 0.3110050770880407 2.9206882115953388 8.152997910784984 -0.14883447713862108 0.6051091290086352 1.7459060590092899
Ni 6.209228209054958 4.576655140146597 12.896113132673053 0.30641353323909165 1.3033425860777812 -0.7157372702808642
Ni 3.8689816320487123 0.8960893933950311 7.375218705739837 0.6342289291927271 -1.0203944829504812 -0.26635600309657353
Ni 8.217685449179667 7.941067865142661 3.8593002016854205 -0.8496431511341109 -0.6356178391204538 -0.018225007648458937
Ni 4.689543468383833 6.363388932073574 10.838532488858323 -0.11599531912141313 -0.2716028533178097 0.9476913988588002
Ni 5.84778937601209 1.7832265637605762 2.317272844431299 -2.3426002244813526 -2.0332067826783304 1.3324508162976474
Ni 1.164779161151946 2.197653229206625 1.8569116692956045 0.4072989933022599 1.5411855693363263 -1.1757227953435623
Ni 5.692212806266667 8.027008836069722 4.558117727315642 -0.17650057559532184 -0.21077003830115315 0.3342704075503598
Ni 4.438207539625466 7.252781277911814 1.3189148986400894 1.2471099888372972 -0.5547340189901929 1.3293402956931233
Ni 3.719022179709635 5.397161453080668 7.190370198960229 0.5084716455885436 0.7596982492428466 -1.3523853504380452
Ni 0.2516302027839379 2.6563968225916956 3.967530116574461 -0.45523001265558377 0.13659036966394542 0.7323175432370486
Ni 1.7204943744729118 5.052823827561565 5.691196728027431 -0.01399708561004041 -2.348329413655646 2.744397314128777
Ni 5.958049596599569 7.65977706151718 9.421814970046606 0.12796174745466996 -0.47564200065303247 -0.2783273165258368
Ni 3.857377241229014 3.5927156962183635 11.08500734385466 2.103056199371301 -2.3984474133579594 -1.4929167070276095
Ni 3.7529377238517343 5.9355996347745394 13.243869148916874 -0.9101018706408003 -0.1844923355515468 -1.772159079168548
Ni 2.42785324996484 6.356032081434292 8.959571551615275 -0.2307742493372219 -0.7127745881081143 0.7964151450479058
Ni 1.3830879201850323 2.6856298932451446 12.85487127576225 3.019457272757252 0.09808552872052785 0.6488533639741213
Ni 6.940351100196793 3.1150386230748386 4.858076423764548 0.42098471831946854 0.04497142250436771 -2.521110374307536
Ni 4.3274661162288774 4.290552308430014 1.402821862308641 -0.027756087067345746 1.9685219409054355 -0.9470396242074142
Ni 2.3337688468836064 1.9603739748143838 9.769747735783772 -0.3192145416585018 0.21797169825591492 0.15928498304798372
Ni 0.9351436283044177 5.064724343186869 3.7097340401037893 0.9369130772963735 1.8707881390973717 0.4824888483715368
P 2.412177143068056 7.138523372448649 1.2721327316943956 -2.7837382778202446 -1.1353377066582961 0.5847310795729156
Ni 3.8812708114813748 4.4510426991684655 4.959900788952319 0.6087917200665451 -0.5795749892932729 2.649569116003282
P 2.1416116097456284 0.9499868841854345 3.258053948722447 0.9987997874988412 -0.25070724081572304 0.7435195826004549
Ni 3.282201075839608 9.204290016358359 4.898126378332787 -0.07324352997618354 -0.42356996254814144 0.32461385829720224
P 7.1041266254974405 8.723540648356668 2.010744804248019 -0.12001369625218684 -0.8249194231351858 0.028965533994414632
P 8.971526665251613 9.1733449741725 7.93938180453074 -1.3304939496815926 0.5135655151716833 -0.6972011591498897
P 3.5762900234073873 3.824507387806712 13.086839716843945 -1.05872988819557 -1.4374978639376725 0.593407524300991
Ni 7.738388943505483 5.169265653466076 3.865720557626972 -0.3626564148922206 0.45611190103990484 0.759087355131725
Ni 8.657384516004182 1.222902908152362 9.74516474996836 0.8438990495614822 -0.6971582217270961 0.433798325144369
Ni 9.30849818623126 4.401006860921172 12.468148936660707 -0.2637139374880361 1.4526668583686273 0.8038623453545704
Ni 2.4032101137982895 2.126685068763035 5.6623208579207445 0.9824205748098693 -0.34619929777746183 -1.1544988529677795
Ni 3.0949021362936087 3.0457269107626086 7.765896161776258 -0.15354422390946462 1.4754488892601492 -0.16143262551860585
Ni 7.907032020298285 1.9424491701750262 6.6083165349606166 0.5658902927173286 -0.07269511367188125 0.65784836838388
Ni 1.7446840695308783 4.766350839837973 1.038273718806907 1.8849286922638118 0.735837640575165 -1.0777501380518149
Ni 7.095788861439588 7.265431359451309 11.45817179380952 1.5634639211185526 -1.996225577468291 -2.353758297980701
Ni 4.5175504797276105 4.689441675481906 9.16729569962797 0.29833307022380234 -0.9404894817937223 0.6055508445317442
Ni 3.6709204065989582 1.9944190735589356 1.4180176917863332 -1.253709496431686 -0.6733462069091629 1.483182253348665
Ni 1.0907572136505403 7.565341010229288 7.167684262680732 -0.33627432535426605 -0.5821419786895007 1.331822438685029
Ni 7.1706899294576365 3.0188165690531337 8.767259774344373 -1.374835194801129 0.37646452441990647 -0.9524808498276435
Ni 4.262559260400041 8.975052401218365 2.626280004471515 -0.31223271102403005 1.6812178748022852 1.1363499499728944
Ni 2.494138936919781 7.446289584475371 11.171187990796257 -1.4002670046106722 -1.2298910538558496 1.187633430738219
Ni 7.81996207354985 1.4303198266792407 1.3409299271568846 0.9090474612343569 0.3466518119338482 -1.8613653031215749
Ni 1.4559993996654141 8.744519240053842 9.408270961750185 -1.4791042266245493 -0.3471182100473054 -0.03884679766386858
Ni 7.042912075838507 3.5736249001569305 2.1726232800127505 1.010514247722292 1.4338389270288467 -0.268070414684519
Ni 8.182622421415843 8.498522811696564 13.114523684608066 0.885637824061165 0.45689994415883894 1.2962206303210193
Ni 6.257968501277722 6.609413122131377 2.5698145563824943 0.7022808876656421 0.3126214618220164 -0.17358340194852687
Ni 1.423444178849069 0.9998839139300999 7.531313493895069 0.7143892408934018 0.2029669973169666 -0.4441925238944996
Ni 1.2123812236531621 0.5714283358184513 0.26559526353832863 -0.5430061890303035 -1.2330643093775087 0.48694585570162585
Ni 5.190614401170258 8.13696367795142 7.19286227427741 1.7117769785360648 -0.20298473792877947 -0.7176871949183833
Ni 7.1338038833593 0.8800977285022722 3.930054597034964 0.06282850529044663 -0.4375513644288981 1.1696791602526435
Ni 0.9322749192501063 8.96552088403791 5.4166723762100535 -0.7752721924217035 1.2360889551364453 -1.4028185673879325
Ni 3.651857372238051 8.360102972875959 9.656397637927794 1.9472884854479562 0.050148852940249115 -2.6312885725265396
P 0.6254266941207643 2.95845337821032 6.113851036119248 -1.0393692242807713 1.1362784733050109 -0.9821652642659537
Ni 4.612301163621459 0.9643211755568155 10.394898663679315 0.8245635824576639 1.7175617035386421 -0.26860083326669226
P 4.722626161510164 8.662733270305445 11.880839982751601 1.1008093338641236 -0.8733381807582057 -0.735547877248888
Ni 7.519006732052074 6.683287007229979 6.62077691154652 0.5015674622695426 0.2309359717260668 -1.0784759604742458
P 1.7370218401858146 4.154797592859865 9.243142516243926 0.5406248332823206 0.9391388813030987 1.1043096337078981
P 5.940994658576679 1.0300053590003682 6.2596119939488375 -0.777776446900796 -0.7393937333575396 -1.096063334538706
P -0.13647559439379658 8.26105847930082 11.09532729333004 0.34361431065910497 -0.013311886617557719 0.26611946160573524
Ni 5.492402593683801 9.2296827184391 0.33422959035773414 0.8925654044189337 0.7933470476455434 0.6978207950117595
Ni 0.24157028790348062 6.6597173234837514 5.238799459382511 -0.7681633492910641 0.07226599655426263 -0.021527846769446794
Ni 5.156106607416945 3.828782689687654 3.2573228906086067 0.6302555463672759 0.21277035656063356 2.2191805878714104
Ni 1.532806771119554 7.877438047538003 3.2308844978080673 1.8601594557389316 0.05329639743029531 1.3101259275482018
Ni 8.204859543536845 3.3187262198311127 10.773155534900587 2.8636371083294168 1.4395395769580497 -1.1919251161350375
Ni 6.23934040022505 5.524707959195417 7.8725418089553045 -0.45775946394565675 -0.9103330128149999 1.3379226380454958
Ni 3.0909784826193247 8.404780802921813 13.188948176767095 -0.8060966340017278 1.1324750403985204 0.5366730477234242
Ni 6.931513625529479 0.28590572364285227 11.39925498756409 -0.8248086085889345 0.793752253503762 -0.7603222559800906
Ni 6.744196178183129 0.35304924714403346 8.605503450061953 -0.07958412748223068 1.19656852844432 -0.8433272362184122
Ni 3.3519292136597216 5.940717041571424 3.436916107478719 0.222534635036249 1.3350967385609265 -2.7489692497701754
Ni 6.321820412486586 2.7196657380895215 11.389652215352287 -2.965799635332796 -1.0379564030936446 0.26564226485900055
Ni 5.930658052080983 6.885207109052791 13.17381990076068 -0.5358556940284513 0.448608393574008 1.2282586604587493
Ni 8.192820219408912 4.520123063976316 6.392329579481487 0.1993060035256116 -1.2602940916277392 -0.585255841728134
Ni 0.038874709245987564 7.501285513216571 1.6493772262365007 -0.2815360532711216 0.3886145295188791 -0.8292856705236814
Ni 1.0731655494174897 6.621979918569295 12.863607882917654 -0.7134914116694809 0.7598663993895945 0.8518933806208683
Ni 1.452853073605847 0.597726069336328 11.492356626446718 -0.23411514078499682 -0.36118805787681024 0.4396498988291396
Ni 0.23939469597229165 5.4111718579459165 8.09019446646597 0.18981246221287956 0.3087318969596231 -0.23573519288692305
Ni 2.837292063216458 7.000945638543987 5.328595605122559 0.1068211088213128 0.293965537283726 0.3952302350631839
Ni 7.607446256026438 8.784172202304562 6.200776622024949 0.30561700547972526 1.4767750642707407 -0.5446915471525264
Ni 2.194932582555117 4.835421950745648 11.630167558635796 -1.6729186109079706 1.4903209212759752 -0.885679733042694
Ni 3.96394515564659 1.639948427347992 12.730591396409347 -1.174346998041958 -1.0455648115685219 -1.8829851953841958
Ni 5.677739706392658 2.618613148176364 0.2678772753215323 1.250740643611349 -0.46863317343536703 -0.6758550893739457
Ni 8.006289353577452 6.042630244200875 0.5949674816941014 -0.829620685265597 -1.2971148600005145 -0.6883231399339694
Ni 9.162323579063838 4.358253842111759 2.108193925432955 -2.0717656167881353 -1.2904955549117838 -2.1780802182866745
Ni 2.737433226425901 3.730904187534589 3.105914277502094 -0.7570253303963737 -1.6974551625967538 -0.29922292902792336
P 3.2053289270842416 7.67199220974844 7.3338019501157214 -0.2632028021795725 0.2124587388574857 0.9260535088740504
Ni 8.378407187422498 7.500026982792743 9.055720499825597 -0.1873593726866967 -0.7276389068144565 0.4987832146561861
P 5.811643641927768 5.368122714330897 5.624451122233783 0.7409294532757755 0.1725909561282705 -0.20477139751555704
Ni 8.662474161100539 1.8195481219482268 12.358239438889868 -1.2067781219874698 -1.400320226446111 1.0253531125073374
P 8.015839378558258 3.541652675051623 13.793092751264938 -1.0614262040808107 -0.6547113654167951 0.35139215483231095
P 5.013189373111194 2.3083021136014628 8.667237143520714 0.11687823594699871 0.7295842034662854 0.5602138111578416
P 6.709864208533147 4.876231650518269 10.272460310461277 -0.6980125993075914 0.6754791940917657 -0.021379494117040602
Ni 4.281705579862525 1.8562305822427099 4.271458736198529 1.1576155442198903 0.7584435509001389 -0.6158306291911975
