# total energy = -381169.8430641468 ev
CRYSTAL
PRIMVEC
9.17415410504316 0.00000000000000 0.00000000000000
0.00000000000000 9.17415410504316 0.00000000000000
0.00000000000000 0.00000000000000 13.42730187043487
PRIMCOORD
 96 1
Ni 0.898042361341511 4.222450354324645 1.7063688336540892 -0.08692128457359223 -1.3420888536080435 -0.8237788817728394
Ni 9.120742302336241 1.237464967232152 10.416269574263586 -0.6909592920052358 0.5089133611116526 0.049344611871398894
Ni 6.445944243855216 7.431551155059134 2.1603591949625778 -0.13704005560685428 0.6315711798549059 -2.9494399630278494
Ni 8.759216406663471 7.021044449961719 11.385049251782041 0.2638774596490939 0.5419762051038924 -1.3772641159575956
Ni 4.0185731249101755 8.770803363453755 4.8705658191029695 -0.7182973176985565 -1.606357120937653 0.1726909720412445
Ni 3.908354836011943 5.567959335902934 11.810118091885963 -1.4529093133967363 0.5874986150157236 -1.2980767096931516
Ni 8.147144359017107 4.79103691092909 9.94314559689665 1.885027165514889 1.0106805980968272 1.0836389927324241
Ni 5.980346742617141 8.825921682057098 13.060535130057563 -0.355986973291845 -0.460323110907775 1.0078927509390447
Ni 3.1645878044190043 3.8988962830026135 10.151752102815784 1.0167872252151973 1.6773730471348984 0.6929225863791938
Ni 5.773735615242652 7.0366129896870655 4.190970161505818 -0.9611819771460672 -0.6187606583537989 1.6697903496916338
Ni 0.4920539272015111 5.946971169534756 5.704360660968601 0.6745057744349028 0.462682355168571 -0.10461510230892952
Ni 3.544039997453783 2.7098066310160407 7.526620163080253 0.24095118987022374 -0.6111242248544637 -0.01592901252543063
Ni 3.8786305763124025 4.008142111552652 0.004479739509656004 -1.0718628260331025 -0.857363145486188 0.5874304807819496
Ni 8.009632961289821 7.006503415509938 7.185392083637491 0.4587652795023518 0.7510799114462161 0.5474290006883475
Ni 6.805901359154955 2.943059502269376 10.094108139553402 0.6177098484917812 -0.8969164822987779 -0.011161673043774327
Ni 6.2990843829693395 3.3852996068423185 0.4327943953795328 0.5047445744459436 0.5571829947513178 -0.6313811753312869
Ni 0.597520921624932 2.431692145586547 3.986955319777924 -0.17936144208288465 1.7777463434483385 -0.930513601527933
Ni 1.8172990369204345 9.068348707538687 11.154342208327046 -2.692101332938538 1.159516617897345 -0.2943602016189834
Ni 0.04507720680052177 0.30835525001208447 4.215769735215631 -1.394965904112733 -0.8443790745216941 0.4204604703848823
Ni 3.2156511468534617 8.234381391573566 9.704878132942152 1.175979905659691 -0.09781427733701219 -1.1289446586477587
Ni 2.1598252591864933 4.104791826347299 5.823823745082645 0.8981758086271758 0.08892983036318877 0.20692675329566299
Ni 7.982293981689626 2.6627615681335586 8.039422357484382 0.8549905314889533 1.0938051346321485 0.8260885037426225
Ni 3.4781420476322404 6.367707056596673 5.326731372378977 0.12241407816356337 -0.7603438532466453 -0.4890112228710869
Ni 0.03040865160496783 5.192552944882816 3.549802283724548 -1.3068644831881107 -1.3691371159750871 1.826796821118086
P 7.751261255759528 8.464579269468894 5.46676474510361 -1.0919313146482033 0.46776876855254285 1.1400248277213205
Ni 6.737875005552459 1.6126053077796507 12.157696520885521 0.6648888201704292 1.437506348578105 0.6698425646312786
P 8.896837894241497 3.2958516031168505 11.476852260897903 -0.7255722540934149 -2.372368456882721 -3.088564411967558
Ni 8.530587309141174 8.869306257402508 1.2327778918369374 -0.5271985325740857 0.09150041930384241 1.6026416197592785
P 2.446545101282089 6.260626328444502 9.67345848954123 -0.6134418172440467 0.09596565416404762 1.6879893891981639
P 6.448824928282886 0.6100849258405245 1.4878661675689384 -0.006655557643304668 0.3080443839742953 0.9158673123696678
P 2.69253169860424 2.5593596758269173 4.309600232415936 1.5929974118012953 1.1013649492572772 1.234300238667139
Ni 8.139850906405645 7.362644082650725 3.697301583160134 0.02828599142888677 -0.3292953229332716 0.7471728630823261
Ni 1.406755635206107 0.8584402897844108 13.415647374509362 1.3468600497444416 0.9920722389670203 -1.5219305777614562
Ni 5.577683939384882 7.355414849118861 11.279497855139722 -1.0339693934214387 0.06877855222629445 -0.16912716594938615
Ni 4.46258384124917 0.06610528570710077 2.597203062018462 0.7671801594421884 0.6008071591991717 0.059405852762142844
Ni 8.14681408946489 1.9551957491253074 5.896196812958489 0.07469080394567136 -1.9070779746673414 -0.254166145898601
Ni 7.73176617802449 5.024675096660013 1.7149622639196938 -1.4865488558280526 0.6469078102119762 0.3856459338088584
Ni 5.820395363647548 2.7051920314392293 7.108775969431082 0.6496012978837393 -1.4832048790564842 0.6158206018888684
Ni 0.041131403066950095 4.7013870758106 7.885854355026806 -0.8936617228069061 -0.588031090480426 -1.6498966960915005
Ni 4.593040314374931 4.9378509010438245 1.9463949829741443 0.7180728603925762 1.3798632441433398 0.8345620884312724
Ni 6.264497821528824 4.8481827176168775 11.382673145836923 0.49813581088017433 1.9178892063502322 1.0567465392169544
Ni 2.381096685017731 4.736707569589375 8.253252626821082 0.3158083441904303 -0.7493356750615998 -2.0146002233207367
Ni 3.414739467760783 6.8746891675583965 7.552602285270088 0.7478372361392024 0.27546902114143523 0.5041149112817447
Ni 3.0605437213163857 1.7488323239149814 9.906099444707541 -1.3457714446659534 -1.1007998207824268 -0.5109846418183844
Ni 3.8428146782053023 7.51649464905853 1.2197579321562004 3.441302796415119 -1.3400234864385823 -0.4078744061897556
Ni 4.654103484918184 5.881898893593756 9.403381480631111 0.13415322097736251 0.059098863044685326 -0.15143669064815854
Ni 8.51311971949058 2.080615611579756 0.3324080475677185 0.006727034311188414 0.2904094445013515 0.9694125925859756
Ni 6.411431075648527 2.9908476716443473 4.947463579844188 2.397382462428555 2.17744695557805 -0.14613944680496124
Ni 1.5592576009423589 7.798379711875835 3.841363327006393 0.1587221685659783 -2.304994241203121 0.45049069819838544
Ni 5.259074737191879 1.4518557773921994 9.290081593327606 0.7896289753640079 0.7902558103147292 -2.1981420220335566
Ni 7.122244545253579 9.153457336314192 10.738417247742426 -0.9343782266896616 -1.0995453795500354 -1.8425890509553362
Ni 8.60444842483284 0.059522830048329145 12.448330974590313 0.2932690254373337 -0.9821223268431603 -0.5991017464722908
Ni 4.799348694659887 1.6839343569043188 4.7130767831282405 -3.7693051115685794 -1.5086904249220985 1.1569177468219172
Ni 7.344213206806165 5.3793570732785065 5.573820703039365 -0.2351214705623241 -1.1694773286544828 -1.027011988266999
Ni 1.0753484878646908 6.646619693444024 7.9287013249344405 0.06573693718649325 1.7899164031519692 0.6306121583757461
Ni 7.456743382569917 0.5026913590291705 8.150936036959644 -2.2934384180447207 0.5409099686229071 0.940118985828181
P 3.4508214163405024 6.890459538676764 3.2011899275434663 0.6229770104279916 -0.021032395190267002 0.4766221051781146
Ni 1.858922174654019 8.040091153327621 6.177095654196258 -0.6765243475268284 -1.8398217726228443 -0.8349187004397428
P 9.187915459595512 3.697138283214871 5.560379649679551 -0.6988973159053898 2.709222051779224 1.1648223463809746
Ni 2.036726457751793 1.052816765080101 5.75788267673623 -0.03936641761276446 1.1001403328215569 -0.7965344442345894
P 0.875417979599216 7.3841849967786635 13.34638893199401 -0.6943685747971009 0.5866041282259122 -1.210195118088819
P 3.303741375753148 1.792960005752879 12.169607325320062 -2.953103013701733 0.4327675698870095 1.4345943171376325
P 6.839882426416405 6.595785704865273 9.765555989007819 1.2677963135420554 0.43587886182248164 -0.634488867722333
Ni 7.722124141930595 2.8743817837166734 2.8331072638437624 2.3908927409391536 0.5189308932486546 -0.2881880113700005
Ni 1.254785770415094 2.548543347991807 7.301834118764171 -1.6680803089790628 -0.5515952162508951 0.7430837806146171
Ni 4.354649916753773 3.8530071635528915 4.413204873531021 -0.6032875024188642 2.5779227553108894 0.3081336012539919
Ni 1.903600305745612 8.473936906781711 1.5629648766659958 -0.5355217077278003 0.03965206717398332 0.29979397104004496
Ni 1.7927490002056292 3.434463899351527 12.037441707261578 0.34275221976912584 -0.9929883230233867 0.8525958060045317
Ni 0.84775698718561 3.1722023524284544 9.491075386068136 0.40952016932329466 0.4633600979618859 1.0139921789685633
Ni 6.674821043541675 4.946520476789524 8.16649815477703 0.9933907006681278 0.1655535896655149 0.028280849222564197
Ni 7.333928979916292 6.758461807640659 12.999468289852619 -0.5325675101954828 -0.6464730366674027 1.9823115384903602
Ni 5.76335047265627 0.2543873703489626 6.583446467428273 0.7294728746994018 -0.28204538880737234 -0.8877193891805422
Ni 2.209540000949397 0.7616162660594271 3.411850526594306 1.644647531877419 -0.821510911674269 -1.0427983045669782
Ni 4.413263588118082 1.7013652499379999 0.571938792559448 0.35500558321518216 -0.875196574123183 -0.11804937343696444
Ni 8.791665390168802 8.246225224682242 9.255506040872167 0.8867441697514664 -0.8945886054965496 0.35047144279025444
Ni 1.3985906379429616 5.712011905594965 11.853783396350755 0.602097338765505 0.5929712080945206 -1.0297484133615553
Ni 5.658159620275119 2.4931956755327556 2.4985928304652374 -2.978879608445205 -0.35320015457532716 -0.2767702564513621
Ni 4.969033851265657 3.0510392975359157 11.630366135845529 -0.5638449801525257 -0.47876306278051733 -0.38844226560707296
Ni 2.282676358457031 5.9181826735664975 0.681874517507451 0.17446991831853823 -1.0690657229039395 0.028533074442686344
Ni 4.606718978329256 0.6306157655879323 11.200008395829022 1.6721827611832103 -2.7804773476807854 0.7427536509687079
Ni 6.633757529216013 0.8191446349785341 3.919349142439081 1.919053401861663 -2.517093796948975 -0.3769090681564928
Ni 3.2213849932461196 8.342186877909768 12.608223638972843 1.0238891263673011 -0.7443868156967567 0.8884596097806764
Ni 0.2699678364748049 6.717113894533921 1.9715578531913969 0.4735874321168489 0.22910123251017314 -1.8258000044224556
Ni 2.3078502376593577 4.943318696963862 3.616280957508739 0.46380412747783994 0.9003566183285785 -1.0056006124707586
Ni 5.7980654722559795 6.7010866470971635 6.801062910214974 -0.9048547633092482 3.1616984129490713 -0.29149959224173666
Ni 5.49561195565893 8.38907598017037 8.960736795856702 0.3191098977598375 -1.5253524589588117 -0.6927369527309489
Ni 8.654621874307157 4.355686596181565 13.063824981763814 -0.5961341792035346 2.537797090934597 1.6434856503588342
Ni 3.4566286559669863 0.01030349261375109 7.127493996302986 1.5862678063869455 0.9925373515288972 2.564825812917615
P 1.097751772490085 1.6754941350143258 1.8903087910997187 -1.1646261712097685 1.2633999842465726 -0.7510102345505453
Ni 4.939355462337257 4.7712390861045195 6.706493893599296 -2.458230446953863 -1.192657880536004 -0.9542178871234083
P 5.028179623575205 3.740623774256791 8.92804102760263 -0.565632925290884 -0.7808936523735389 0.04250239213858486
Ni 3.056965801167367 3.0629198272615037 2.2352698338979557 -0.22798768773102024 -0.870373441702927 -0.5980853893926344
P 6.198865922179902 4.538885281965552 3.480826405159427 1.4699827239392553 1.3722232110995787 -0.745640999818832
P 5.244781404904261 6.249534775982545 13.202864793585528 0.45651427868464606 0.3480985716827037 1.8464670458535037
P 1.4931394714193384 0.7672969023575615 8.840119603140744 -0.791074963781915 -0.5220198165866236 -0.3407387888835229
Ni 0.0854132106958823 0.04573591107411033 7.027084713105602 1.4490608861849237 -0.15003595364588998 -0.3786934137504252
