# total energy = -381166.71210925776 ev
CRYSTAL
PRIMVEC
9.28388570994942 0.00000000000000 0.00000000000000
0.00000000000000 9.28388570994942 0.00000000000000
0.00000000000000 0.00000000000000 13.58790516605938
PRIMCOORD
 96 1
Ni 4.107376610757491 1.3977632289734334 7.944766691311194 -0.6756681701741203 0.2654558598798073 0.11008743827741041
Ni 1.8776379851631264 4.351394256517516 1.6913410405514737 -0.13603012628510122 0.13663304997642275 1.5868609598862542
Ni 9.080716922850852 2.339019241491536 5.52495072294076 -0.5946917903300531 -0.4834316719007803 0.3115886496821279
Ni 1.7103052334062143 1.257400164514226 9.077305094939698 0.3019878933675702 1.9465505788406667 0.42902352946354505
Ni 1.8530171208899722 3.772961772151426 5.139815232832612 0.22820854549257472 -0.31385096335374335 -0.8108259211565971
Ni 8.177543408541075 4.527676673869949 4.820690025211259 0.29266044531905727 0.1835284289763807 -1.0231697317027733
Ni 1.2059767228818727 2.746099051691108 7.42186298273341 0.6416743297271787 -1.7279633584879401 -2.734647948051497
Ni 4.888467031103477 0.4409697057285015 11.668463525202629 -1.51639550687584 -1.486751201646846 3.273352681492969
Ni 4.010787066301272 3.003253395394764 12.50341347872896 1.8096632467615927 -0.8922838686227729 -0.17279201639548303
Ni 2.2757866975381225 9.276244834787844 6.827229189829205 0.0902025264280253 2.27179795695681 0.21399240189319277
Ni 5.654109066023169 8.228187003793737 10.050266504735044 -1.4596666867252281 -0.5994742993203611 -0.3980983006395983
Ni 8.7789813611081 0.8193790208118006 12.341636204038812 0.589104783160579 -1.098759136203314 1.8186343399119518
Ni 1.200554933765914 7.399516670401026 2.3390897990211275 0.24304303940224595 -2.026331652825052 -0.17684278942608897
Ni 4.846364610485545 8.87472607198632 3.778456903962617 -0.7751130411360199 -0.737609130653291 -0.12204821018371238
Ni 2.7855834166057853 1.3902618495116277 3.872239929840491 -0.0961515449226086 -0.44084880423324724 0.8223436919882094
Ni 7.725334631059527 6.004705717007858 12.304173869380051 0.3574033940233973 -0.903427029723786 -0.8226416828446025
Ni 6.339315517208847 8.719666616824094 1.8776314864432955 0.6162006109361065 0.5608059362158858 -0.3266730548190761
Ni 3.1449811910184335 6.447509918505731 0.5726189152831905 -0.44310289037474654 -0.6023570201847949 -0.14166212775989795
Ni 7.462814201552747 2.69033075165761 9.67619183577887 -0.17240198004591598 0.8529148799068472 -0.7752104859458326
Ni 6.24006149762201 7.548077405732479 4.915547196638304 0.7644743304752512 0.08531768753189822 0.4267249632373554
Ni 2.1574450094197606 3.190054454987575 10.586254921497813 3.3776348259425117 0.487623855605257 0.517362006099638
Ni 2.1617898678209055 4.141959084142672 12.981735040879098 -1.7284955768423265 -0.3311040940072362 1.186963144144072
Ni 8.993439115523582 4.216415845632377 12.76041463832232 1.6878207248307835 -1.3567479982821151 0.16336352399273157
Ni 3.562375397977988 5.774372518434346 9.8332946741336 0.4319041934454497 -0.719458170775877 0.8220241038652617
P 6.896413632759058 5.9444440164056545 3.1032055631691353 -0.08787670650832609 -1.4089043685706961 2.2265007756819073
Ni 6.634487371922521 1.4087460654874384 13.522030252112575 -0.475969044975148 -0.5811670163707411 -1.976746899918389
P 2.1493680290586576 8.699947644080437 4.800090011736258 -0.24626720276649847 -0.17790928301739037 -0.8808985096039669
Ni 0.323898981531329 4.897602374408447 6.62091061780749 1.2643731467931192 1.3386793137058624 -0.1857850862210413
P 9.180444420596789 6.974778910032699 7.6495558442785345 -0.6573038087343196 0.2046623827415185 -0.5409629333480297
P 8.68111064045667 0.7925374511336168 9.707702271461189 1.372751572799223 -0.2752653897710614 -1.1271914234020781
P 4.00289576364962 3.670885451380939 9.125025194657058 -0.9210087473612911 -0.6747371737194185 -0.7943220099643029
Ni 8.241481527790402 7.5571477618391425 3.108531728264727 0.7357134562924749 1.4416005732521366 0.6397215768761821
Ni 3.4138517981884253 7.950635963706928 8.635562041551335 0.4036511121370274 -1.7004391849257423 -1.772742976696476
Ni 0.09261325630833486 2.547516741433654 10.925245787253289 -1.4642666473910848 0.364054837901644 -0.564633280381776
Ni 5.507312268931497 5.635773392214919 13.072964069863477 -0.5557454909738428 -0.23574779129241333 1.5120732253514024
Ni 0.4678595516111424 0.3456167748172225 3.8777842662446873 -0.6491174162687853 -0.06887856813926847 0.3829848420369275
Ni 7.1459830420316575 4.215283211604728 0.659847518017457 -1.6885236644350792 -1.0720921684350893 -0.931725105337531
Ni 3.8994547117146707 7.903659503215916 5.8277028701427565 1.5395526617185937 -0.11396646161684243 0.5417232085528219
Ni 2.733519386875827 4.801625566393414 7.719030872823678 -0.5487883429297195 -0.4761292247020962 0.09681540375885261
Ni 4.8840850371604425 1.0232884245533933 5.541392484112614 0.17116167988091166 0.205799067449123 1.2293665488109473
Ni 1.9243637807463785 6.951160705390579 6.695426796164219 -0.8051566386859618 -0.5971700766672167 0.016436548289468465
Ni 4.936204770203235 3.8393137016236105 7.12999526285941 -0.09707328540592959 -0.7588572413987899 -0.45662097946583946
Ni 4.4416336233105245 3.183639290126056 4.557410173872826 -1.7787007369418077 1.4236303619269612 0.49787741501246513
Ni 0.23030163336290582 2.199129655191428 0.9737366142323023 0.2842449675618524 0.4319877542981916 -0.9142560020184899
Ni 4.464861904762799 3.8523761284834626 1.3762376121168212 -0.3163040528799262 0.7386285730567408 0.23339857433394645
Ni 7.2598220456958416 0.6900257161344687 4.247443519270125 0.11510905986171788 -0.07362251058215707 -0.2054198297328333
Ni 3.6171410383804528 5.521590884788251 5.654647531380576 -0.14212929720430362 -0.5179826704027725 -1.0800271070114495
Ni 3.7046045234171747 8.514854819414571 1.8300599288934958 -1.484961713846591 0.6630617942640192 -0.4608856682794643
Ni 0.665784562777141 6.076089512406154 0.32674449242866 -1.0758140973713666 -0.48606885241331127 2.282698405919398
Ni 0.8066870209823025 3.96362492810081 9.030304496346458 -2.3368841479331817 2.281835286588154 1.7786889098672656
Ni 7.294450938508385 1.9475363588858177 1.926330107689461 1.1298383741066218 -0.12200835808471246 0.8621106874735024
Ni 4.802219735063656 8.142088249921477 13.420161890376672 0.7860937085172397 -0.2711164005996944 0.25434458045799424
Ni 7.203515280304936 5.204852564121886 9.202557707403813 0.33804581543239204 -0.13227245901488188 1.2180205276705087
Ni 6.954939246777898 0.6580910068860539 10.937027037917934 2.0717537897135934 -0.4146975997591762 0.5255103462383853
Ni 1.2479306013322438 0.09631659822332776 1.6455770555031757 0.21618169623502767 2.750472059567947 0.24473688216490108
Ni 6.584753597446168 2.8134165052524356 5.552222136516322 0.729579318370279 0.27085851895261737 -1.0578035197265587
P 8.954075441120048 5.325673049661414 10.657931159288495 -0.6386453130928679 -0.9273783983330609 -1.3542018348214937
Ni 7.108856784027002 5.965704114137752 6.961477887316203 0.6160160057291262 0.41915537842021355 0.44028727530282236
P 1.3486886103656308 2.0984644850127663 12.56185460939 1.258098369528001 -0.6153279785231661 1.0224464803835036
Ni 5.915004815572256 5.191214536362737 5.178527178475975 -0.4085439214529545 -0.3428221537751128 -0.7990914063284883
P 7.99696255221486 4.003304254610411 7.49150140766287 -1.7398881349499842 -2.1195184586923816 0.624603233177505
P 4.8600490576720565 0.9711408398541824 1.0488748129156906 -0.6087973764935 -0.21479741429299137 -1.391410582661307
P 3.5454044553342006 0.09418037617609822 9.994067432415621 0.11309048676979234 1.793317458413718 1.191532251571993
Ni 9.116394894721793 0.27805608345651456 7.162782232794203 -0.9870781281865386 0.6132896079368986 -0.3388402863092293
Ni 9.126291516635511 2.7135126136825214 3.231013100915291 0.497833192038091 -0.05448604686302229 0.5028967226039274
Ni 7.434628325258141 6.547933707662107 1.1426123477547492 -0.005222938961836166 0.9817052939103997 -2.190245907114931
Ni 1.1924036823210313 5.796486733629916 4.079755194699615 -0.6617232779582539 -0.45163278222262865 0.23538449441572365
Ni 6.9764685771887 3.420266963049945 12.048843809171746 0.5357320239663935 -1.005757192653281 0.7913600991225016
Ni 5.665073334766229 8.030226713862941 7.584198218940458 1.7787701567271623 3.3508087068886034 -0.7170408195836361
Ni 1.2231147754641665 6.032186018006551 11.811408438211748 0.9241598913957632 0.9658511004869623 -1.268727309996757
Ni 1.1504033844432977 8.502284438484764 8.707021036421958 -1.0241482935659587 -1.3726896092130358 0.41285334746158575
Ni 6.506453307370836 1.9478055915645212 7.638861736602724 0.38337102173175264 -0.8384629661475752 0.27521833858320993
Ni 8.548490336481555 6.9524604493567335 5.420160722446653 1.3795320860561662 0.5856407358713785 0.08907432636085305
Ni 7.744877209979206 8.026448172475622 9.086951980334206 -0.8748075662148805 -0.29041458670767406 -2.7380731716829616
Ni 6.200883500927926 3.6929718149200923 3.0590857542380228 1.5462979508622272 1.8981734730888598 0.28596220736327527
Ni 7.0391069524718715 8.00905945498557 12.572073382129615 -0.2998021985701611 2.1584817273294568 0.4018130304870241
Ni 3.1752002382315245 7.412170606300086 11.74132253000251 0.3875112691523713 1.759838867040298 -0.7420499400334639
Ni 5.6801410808881485 6.059944835569422 10.844275451716058 0.4137948854392487 1.1787389564620667 -0.06839365808304995
Ni 1.6231945360174491 9.255569621840516 11.087472402000309 1.3184776419470066 1.21671543570584 0.4767684009479917
Ni 8.53172363931816 4.710170010603505 2.1904111583441734 1.8626295145459792 0.3696138200466602 1.498602701668793
Ni 1.1376658935749842 8.249892728028515 13.313252378829187 -0.8672143272486548 -0.8548010411859666 -1.0510818847320091
Ni 5.12503900071453 6.497763590568546 2.1154057192230424 -0.9971583952406762 -0.28481652379460626 0.009596642549499601
Ni 1.4456773618971697 6.34772671744696 9.199147736269751 -1.4148860400754277 -0.9258460208489345 0.46579698953815263
Ni 4.847367270116579 6.131709270272093 7.688729199029882 -0.9601805324647466 -1.9807467651064015 0.29482634262212454
Ni 9.123311389398829 8.12886799700859 10.701276692171199 -0.6342178734491335 -1.7864207312938847 2.6729162753696545
Ni 2.982940253980865 1.912220458548307 1.5805991410809264 -0.3149521668377221 0.1574283894552192 -0.8618371220971416
Ni 5.4571978551507705 3.801741817116274 10.581729955718501 -0.668297845851978 1.9570005705293974 -0.051600754895427266
Ni 5.274175336945281 1.6440182911323376 2.9996382503917607 -0.7661496612951451 0.05497069980892468 0.4662844706975324
P 2.784636460287587 2.140139846898961 6.090045049048464 1.617598755289743 -0.8814191579941272 -0.15389286549813497
Ni 3.170669702120929 7.13726547357295 3.6880290742945165 0.41757543552760346 -0.46784513031643293 -0.2925568298616575
P 8.435245501487612 9.0046540491744 1.0630773009115697 -0.18794455576620536 0.1767474014988053 -0.8133926534425089
Ni 5.246332964413157 1.7213994765458898 10.086261057100597 -0.9872879302044997 0.8673120291687836 -3.306059427697371
P 3.5468991608952782 5.420090164917062 12.16261504047198 1.4237743437039931 -0.6080399295021851 -0.7123554982928249
P 7.119013354733952 0.14785516003554044 6.315970258799618 -0.9575130129349123 -0.0793460433294956 -0.028452856024054226
P 3.3316986956419923 4.966228855821402 3.3904944707280826 -0.214152838730457 -0.8945623802443046 -0.4632551969529054
Ni 2.921146712275694 0.3790879671113412 12.947099649346724 0.08392414961848128 1.4658756437494174 1.4136403405937847
