# total energy = -381174.5487502557 ev
CRYSTAL
PRIMVEC
9.15733534467878 0.00000000000000 0.00000000000000

0.00000000000000 9.15733534467878 0.00000000000000

0.00000000000000 0.00000000000000 13.40268591458683

PRIMCOORD
 96 1
Ni 7.590844968049287 3.4798332345121565 4.250407440029714 0.33720583602959986 0.9975368616260176 1.5381143866101703
Ni 3.889385902451583 0.7109691094702956 8.779148426275144 0.41032800993657076 1.0053771836060428 -0.2982988745517572
Ni 2.016555140691283 5.03822857101899 9.934070649807335 0.5796282111287114 1.8621114372589802 0.21124183573124908
Ni 2.8936538815889263 8.371901575386678 6.655559602356144 -1.7227116231706976 -1.0341043763374063 1.225471327521599
Ni 7.742014260651559 4.373286976414625 2.172092482274128 -0.594909305657498 0.019184543348250833 0.011063714013329333
Ni 3.3565480281695104 3.694874941452984 4.727797648531149 -0.26365094546058465 2.05827889515561 0.761846920154733
Ni 8.83252470279078 -0.006698590837082782 0.4481068813943626 -0.5160553714730726 -0.1142045457695775 -0.4755985490096068
Ni 0.805269517839552 3.548714711308516 5.9497872807191285 0.8125981825656715 -0.3746976623274708 -1.0695390629959323
Ni 7.852772232181999 3.0068568616682394 0.13773181865239548 0.5191838897997252 -1.059323298805195 -1.032848392443118
Ni 7.675358016354737 9.050679903763882 7.1455887651615315 -0.4756276024753292 1.1446021626793577 0.3028949785628719
Ni 3.0155563302878274 7.835437396290546 9.316957817939926 -0.9044282172947907 -1.3881645649201835 0.8660293058016182
Ni 2.481875981149963 6.653088037534642 -0.049390088420787404 1.8328563970486047 -1.8247785051364769 -1.433177125075132
Ni 2.537222916241321 5.854989629038247 7.498253318463625 -0.9484768708745729 0.9043891365267392 -0.25842312140274204
Ni 6.330383538424871 1.010191453441951 12.399052262898056 -1.3472380019091508 0.9077847924718495 -0.48602848609367905
Ni 5.625232084127234 3.206395199795421 1.02851528155542 0.39519861049430005 -0.17854871637360217 0.22160440991249578
Ni 8.27867074379086 2.5704732010389253 8.746820285151216 0.030128186843948114 -0.8603070586058604 0.24065217057256616
Ni 7.364310805195214 6.7507143901171975 12.249237340199823 2.163126168080004 -0.05681855165094086 1.6456320072778756
Ni 3.630453086991087 3.2888295329675596 9.833095459673006 0.4446902894665245 -0.38640260946922483 -0.38898579681536877
Ni 7.817818683002033 8.738927577779402 2.5967172085303756 -0.4952147805786374 -0.34296690688309317 0.8534476124818657
Ni 5.4160235998292245 8.659231287888586 3.0075225999510224 1.0153204108616838 -1.5036724028822168 0.4228623949581556
Ni 8.678260230827012 1.345368243351594 4.1662515278044365 1.5478763510929407 0.14036552043566147 1.0110135559562134
Ni 6.2263104217284315 0.5587412288970498 9.664033649454089 0.47024371245559665 1.0331978053627366 1.6269768540705334
Ni 8.410179237312866 4.98957564809702 9.666338550771508 -0.8878518009933484 -0.41832645476101504 0.001586884871145654
Ni 5.241155123240116 4.142265719219924 3.2274735543939137 -0.5701727221427664 -0.3866592055647212 -0.3069079563770069
P 4.875695025198918 9.001120404638396 6.8507830040480115 1.2898862034625591 1.4477784199280743 2.4286828152037336
Ni 4.53131511322329 1.8205149046827143 3.6726977066078064 1.419143529800201 0.6913819813649512 1.5935018622415396
P 0.4516315397856041 6.504702574890638 12.764034348031947 -0.7069597811985502 -0.07777998439395636 3.7861072707275834
Ni 8.144204430938197 8.865106502104984 11.459430898898205 0.42540058799897706 0.368575608590133 -0.1509283835531723
P 4.194737250999123 5.991644545048891 2.156827204180598 1.711147315371866 1.1730437058495025 1.2669756174129727
P 1.6516719547795942 2.906904545896867 0.5768718372338101 -0.5410418662150812 -0.01100972084694233 -1.4945526999691359
P 3.0005016709082453 0.4203244415575541 3.0563348605087612 -0.3961666308345242 -2.039548151515326 0.5867355115974541
Ni 0.540691205111713 4.4909587361637895 8.004030350937546 0.6346421054707457 0.46282402295275776 -1.0835880848898305
Ni 6.16842690473431 7.67961617731064 5.777750252232311 0.10747622590680844 -0.4381002949538326 -1.3614469464196812
Ni 0.614076259452402 1.4688457537374098 12.089972963113638 0.06179877847435163 0.7579085043322753 2.3589822653838017
Ni 7.31512675682068 6.437185541067245 7.442618843041051 -0.3261243814044577 -1.3081562054163407 0.7173856045175646
Ni 6.758168461123877 1.9087366738207259 2.964714804207877 -0.8694866682225992 -0.2752527913655711 -1.7541896391743208
Ni 2.200443592638596 5.671229379786381 2.93635453650802 1.3189635804444897 0.07983352448887542 1.019048510445548
Ni 0.9335353989002969 0.12823474612042207 2.5208303701614008 -0.1859072136212024 0.2715763709552484 0.2674518072639136
Ni 5.169727907205604 6.199845722454105 12.937157436495903 -0.6872728442925841 -0.6637099693709796 0.39000755321166375
Ni 7.287380030591889 4.633309514786417 11.612743923715051 1.0694693861002613 -0.7800073931138437 -0.6932668570924899
Ni 1.5598238808275224 8.48137751996265 4.5757977856090895 0.17601437998752267 -0.3407166773963358 0.851064971182302
Ni 4.670607341825978 6.2096532286557675 6.962360557095769 0.06445164271616642 1.9051108236386416 0.2783820810231722
Ni 8.038812657945735 6.734789783875658 1.2066263706057876 -1.3242685375971708 -1.0125850142083916 -0.20431476959411263
Ni 8.107043963929474 8.105560475596448 9.131102370351046 -0.7197178521951669 -1.2303165714290423 1.358275747780551
Ni 3.358681687315157 7.95300842535043 1.5974797596807941 0.4154956701804393 -0.32294495523521155 1.2835656605611698
Ni 2.885009356981673 2.3973720901799016 2.310394802921261 -1.5130607860756522 1.926815562305585 -1.1803569516814638
Ni 1.5402180257595879 5.949896253010259 5.264722441597349 0.21617835380091802 -0.7421856942803798 -0.7761934186843923
Ni 0.8621457279408796 3.1814780902018436 10.267703512970385 -0.2944813005778799 -1.0544335748130615 0.1028595530704035
Ni 5.742858057199452 5.434365742613472 5.250730033122896 0.9739881277717998 -2.2677029609518295 0.29375085016975866
Ni 3.3997889658765574 1.762146048912973 6.58062512686763 1.2467063256409756 0.30255045073925957 -0.29600339364936123
Ni 6.159663334766998 3.731266192289029 9.543932448626212 0.4524606774405627 0.22898656130917983 0.4469582595650947
Ni 6.135982465450941 8.137949970867483 0.5527303539476839 -0.4309369444361739 -0.4285910699118167 0.2739243023621347
Ni 4.511709258155355 0.8785382740208002 1.530573520127851 0.869268381564206 0.3724232644709973 -2.4050091257358774
Ni 6.0381454941544375 1.8853946259140626 7.843640537332048 -0.3821949991457805 -0.6826623421037662 -1.3587169490830278
Ni 7.822305777342662 2.375147237190702 11.147845236417806 -0.6659038916985047 0.02619362767623231 -0.7169883690791458
Ni 8.322296289584248 5.509959546249997 5.354319642510795 -0.2205687695591298 -0.11072301497888028 -0.17116039432933103
P 4.273847471425039 1.5312072077367724 10.97682650362625 2.211926734522474 -0.027301001807798143 0.8386951367630394
Ni 5.408761832865715 7.808917753003886 8.756805443659426 -0.01144346595025126 0.33138254447960347 -1.3751028466402189
P 6.710504530423924 0.8884217861061912 1.045925207597063 1.459754361343028 1.3804844226671062 1.202978802846038
Ni 2.0500068868674464 0.7004775503150724 0.6524812083404969 0.17690552434322437 -0.17892178344230478 -1.3812524111813824
P 6.913925578756058 4.936289113468195 0.25000716065679857 -0.9196604608635128 0.6488747041303599 0.7892592507294149
P 0.9478483141133665 6.725769808517453 8.701867841459958 -0.4750545035806786 0.1823701470022214 -0.09523906041066824
P 8.048180612048725 8.67972540448926 5.0649423498158965 1.2619136295090332 -0.9134615311416525 -0.6707547920329029
Ni 1.0226362722356563 7.087951580489375 1.6076791998371067 -0.17693329225736626 1.8567954243627054 0.5633958084302491
Ni 0.9055441718166182 8.950864948023344 8.36784670727641 1.2992308779022528 0.6524665352466763 -0.20927931268823957
Ni 6.5597106885726015 6.368001872203048 10.064291621973638 -0.07067628346963957 -1.2904808996237647 -0.5486196785623391
Ni 6.375648247252896 0.9109854605047858 5.162084279356372 -0.15783410953407012 -0.6621238558307823 0.14693186079926954
Ni 5.520865932698344 2.9730021927349584 5.46723691372597 0.5567081119974283 0.5782020202051462 0.035618777644874144
Ni 6.432011646572438 6.072705277912673 3.274691522860421 0.5851332001073406 2.0224076351802975 -0.9314901065085893
Ni 3.467287685029172 4.342445070824339 1.1872604377250457 -0.6087472399818549 0.4546790252481202 -0.9636605205935469
Ni 5.088172678230813 3.9780289090174903 7.480548526222456 -0.6947074461937585 0.47925774302874885 0.1324488366917461
Ni 0.7270301600091329 4.696513443641572 1.3532023437769178 0.3655723029874349 0.05997972298774187 -1.377318366234299
Ni 1.0277369080473515 3.7642051276834056 3.530093269794903 -0.9189948022550559 0.3933381602467936 0.7760090705877281
Ni 1.6855632530544313 2.2849474836086574 8.313753411399812 0.8840241997171421 0.2388598545588338 -0.16030365412048522
Ni 2.126058557273424 1.8878671064691037 4.396630855788366 -1.0558253129542656 -1.6001337657357604 0.9890190539629934
Ni 2.284187424771367 1.111325065478509 10.571771003096382 0.20081935484634444 -0.5149544250994099 -0.7692542683623979
Ni 8.020800179235493 2.2476496565690973 6.384757964497913 -0.22979080237803004 0.8438373430856114 0.003954356662057706
Ni 3.5083674915844054 4.560389653083491 12.079546421039678 -1.4133454350611854 1.064813889606121 -0.728921630181622
Ni 3.9378831506719387 8.645907364897534 12.737992717652595 -0.21695559828657474 0.3085663179160363 -0.9110120411598955
Ni 4.305669211901954 5.663692892761201 9.112164085032974 0.32347074583169455 -0.4757327605946259 2.2178114754380256
Ni 5.937890986315226 8.07644930639469 11.403005229698017 -2.7643264489525357 1.0862530333165032 -0.9253752518601032
Ni 3.7888108878737565 6.581651664164741 4.715976444277437 -0.2537249445961243 0.37910273337370193 -0.5918409511448194
Ni 0.8243653093263172 4.443780144239455 12.144320832914053 0.1021509570391531 -0.11128685790215027 1.032578426611183
Ni 3.734965755786201 2.373572175503787 13.302178898171967 -0.5149423409145519 -0.544990566450184 -1.8255428941063268
Ni 1.453507216960768 8.308010846377345 11.979870656797056 0.662833223192981 1.2374840357117591 0.387442620697965
Ni 4.221797177073737 9.025286612730072 4.888803750808329 -1.3061623149147634 -0.38791184702489967 -0.8650147484941748
Ni 0.19754936488068275 7.338871727484461 6.511119119797738 0.5154511622301704 1.0675914523512582 0.618892813056289
Ni 0.24810335062941716 6.682858534884412 10.823004330961773 -0.9244308856689628 0.19310630247280292 -2.7909278535901483
P 3.776997925221895 6.8023068176990495 11.235431486479817 -0.13383800372978885 -0.28851351303021927 -0.04167064026590888
Ni 1.1569102810451504 1.178329288520115 6.393081066633012 -1.493143735436751 -1.2885705699749292 -0.6531010835068817
P 2.903067622368859 3.8367312239646028 7.114386976290456 -0.7093190254593461 -0.9852192206009291 -0.444765365678834
Ni -0.013800104431283326 2.3060093550034497 1.9907818202388299 0.30352978393339336 -0.6266341475646046 -0.4464651219787601
P 0.10364638486731068 0.9476560100701965 10.067614818986321 -0.5543627516937033 -0.042160949638766106 -1.0038034113610195
P 9.002347487580527 5.9669929981815955 3.274624674312081 -0.035930909568654246 -0.4721303879553481 -0.13017315328369194
P 7.376517533268805 4.146514722840438 7.521708001595573 -0.15425873347798594 0.2235237384223957 -0.28189266527959195
Ni 5.450839788978354 3.4406947830593992 11.92419588909877 -0.13546139826582476 -1.6452792519241468 -0.4598299733214404
