# total energy = -340863.29243301484 ev
CRYSTAL
PRIMVEC
9.33088976399165 0.00000000000000 0.00000000000000
0.00000000000000 9.33088976399165 0.00000000000000
0.00000000000000 0.00000000000000 13.65670035039319
PRIMCOORD
 96 1
Ni 8.018406701573696 3.767253382471855 7.509437463753124 -0.5381005241985701 0.428481798027462 -0.07244700221681716
Ni 4.480338630391962 7.307224955139753 9.071312686133483 1.4533569424571164 -0.8029832851837267 0.27649129175836257
Ni 2.708691945702438 6.346497896225435 10.983072942717135 -0.05899833291107904 -0.27289843220078164 -2.031382327875082
Ni 7.461903112669936 7.324496431859809 5.991385697646896 1.2577191318117114 0.14360948129425588 -0.4860675668617307
Ni 1.2349992289355645 9.465627684437381 1.1085610088949818 -0.5846567746915544 -0.5918586917566323 -1.7810401837082617
Ni 6.343707960223654 8.46968584802901 1.400521746403105 0.25849434096030965 -1.0044734408448508 -0.3515808738043493
Ni 2.0129808142884054 4.210946515651424 11.650913639871234 0.6563578998812826 -0.8023955310010568 -0.45234086403324675
Ni 1.2792276458199867 3.7212054421080105 3.8355797549355404 -1.3332733121989424 0.5420427966757697 1.015729216264328
Ni 0.9052857119518356 0.8688775136730748 6.63344141437517 1.1629765514214874 0.6500581829154998 -1.0943376100968507
Ni 3.6005663699774844 7.953547687699514 12.159256774997093 -0.8020654013551477 0.2792326019489256 1.3746829854939808
Ni 3.581764627356786 3.2062149812039964 7.46013677526145 0.25775154925701416 -0.4998679630799327 -0.4909431497864771
Ni 7.94296645884995 0.2913495642368299 3.122071817714829 -1.354295165866248 -0.6274414739572484 0.14664955367216034
Ni 4.836769283676358 2.062723786948923 9.16759253777488 -0.03761266814645135 0.4521734852174471 -0.04205579151946951
Ni 0.5530586244493865 7.726452495688319 6.709851136532311 0.261422313240382 -0.5404433133991338 1.6963439318104463
Ni 5.228060140648562 0.4040433838405447 3.035501689830801 -0.803851546721293 -0.04308500411493225 1.1726567548237288
Ni 4.706062181626363 0.09091365701054645 10.508366731647534 -0.16079216372112953 -0.08654564640172836 -0.5709970178162747
Ni 6.194311086228615 3.3931593551026036 3.590619641623308 1.1197269967042327 -0.32040393398091277 0.4770278252569655
Ni 8.068849490957069 5.976369496952359 12.519206106764004 -0.699707470511511 0.5519983652265849 1.174059034487894
Ni 0.36836019568666134 5.9321317491783 4.711602863893445 -2.6530506467939787 0.03812457478586337 0.8078802082647119
Ni 0.05792336360620829 3.7187140945746475 12.755003286451657 -0.38205847356791617 0.7110707180431303 -0.05097854793039608
Ni 7.2722621116659285 3.237949336863051 11.264851813452204 -0.37290843163753196 0.40397275714250425 0.8083417212821626
Ni 7.565849223237966 7.062531705271169 3.6579877317211644 -0.43853146895398026 -0.20469812107546037 -0.8580159485788384
Ni 9.38780806485593 7.652645158651235 9.961306003057496 -0.14366167468843 0.4854656716116736 0.37875923399135414
Ni 8.54664702576376 1.7158666264331794 8.378645290919387 1.379247722046528 -0.3505771151301833 -2.179315890465989
P 5.552831085391009 6.562452006008782 2.199015426447301 1.4209816114502043 0.048250864586587866 -1.861673578390613
P 7.580060168156737 8.866397951880927 10.65710111247827 0.5291042342372307 -0.45812481770487545 1.3703910429868462
P 0.46518497128292113 9.346285605966546 8.4483759622736 0.4059401652815202 -1.5882681246464259 1.186031119248106
P 8.231160316211186 4.672023096226705 3.4724887126274937 -0.17375360897780395 0.31854476928498693 0.5593735746447334
P 6.149737426427585 2.018831282091471 12.603727171283515 -0.07038574881241427 0.6789234438866243 0.4580476846100369
P 5.036245042358885 6.030553973080596 11.096164258219432 -1.418335946297241 -1.0411615402945038 -0.7875684932905532
P 6.0248061450635495 7.2310848956931535 7.453963458676907 0.2525674339529134 -1.528308199153026 3.271917491708339
P 1.8770950684892826 5.764576963947589 3.2938049753254646 1.9295170203971481 1.1634316366810349 1.0108456629197817
Ni 3.8602636903840746 9.184189391174103 5.223974144076054 -1.9639255797840045 2.4506372079876377 -1.161663746147335
Ni 3.4467373234043652 4.174686678517908 3.311203352144598 1.2958334221849297 -0.009418722210738617 0.45503897969070023
Ni 5.077851479255012 4.578247655364165 1.457607196119815 0.44117019212840797 -0.1611983980206127 -0.030489941058741036
Ni 8.00383185195904 0.3476372228894856 6.314707555228551 -0.12639440296755006 -0.2920138128739938 -0.8312654199578715
Ni 4.168183048440178 3.557000446257365 12.409556956449189 -0.5458727119448212 -2.1561139984282285 -0.1426813130530317
Ni 8.136834352860001 5.7254898672537395 1.4910108479351194 -0.3524185392142963 0.14442503521701577 -0.31668200504463523
Ni 0.21587106486556845 8.91260451736862 12.29802203333852 1.2800381070238858 -0.37893072657221194 -0.02440311143471281
Ni 4.14624612690109 0.03830143578632404 7.79112022632492 0.7299243604145236 0.4849864179824099 -0.7562678834050588
Ni 5.233453394859363 1.8943478834300627 5.3403163415282515 -0.4175564093642099 0.46749803138965934 -0.48129045718806146
Ni 7.9653232704227515 6.410162556225943 8.29229350585289 0.16052836853678162 0.2064618978441025 -2.380676976748416
Ni 5.4676867174436765 4.584256748291078 7.378469096793261 1.3452361409877736 0.9041993891134363 0.5415108354316996
Ni 2.069451358377967 2.510849092706572 2.0631175504916492 0.3981484371512433 -0.9242231405335309 -2.0602609585826457
Ni 6.210266907509704 4.398702676948543 12.854478034705126 0.3414720675051216 1.0270451554977795 1.4530718071165298
Ni 8.947697993297378 2.806927551811973 2.419721758323314 -0.8292920982815847 0.18363795797105148 0.37969665820395904
Ni 7.049057900633805 1.4141989644345787 9.851179111193211 -2.1555522123874877 -0.7946297710127088 1.2665608984730574
Ni 0.35310699039531857 8.691975631876602 4.723006144120123 -0.02722104049948215 -0.042406747100985034 -0.9886141052150909
Ni 2.279555000358248 1.652817805148783 8.54002582647659 -0.1863126765897372 -1.5439754733766378 0.5959801701241736
Ni 6.990851811071564 6.777678306400359 10.458983931327046 -0.8697967432638504 0.8047519470483754 0.1295889986454478
Ni 1.408348496631513 3.677088995899245 9.208097929693714 0.6168079055028022 0.8186580156065062 0.4225867726992658
Ni 1.4252000833178557 3.3109635482809 6.219616458927043 -0.3122545654009009 -0.37335837469075706 -0.25414840528678806
Ni 3.7679252065257955 5.012432612002547 9.219692493157972 0.18646668566909821 -1.154827439951792 1.1690268713806253
Ni 7.211032813860954 8.732443700236885 8.435046786425627 0.35077174763949265 -0.12153373244113908 0.6713194062871213
Ni 5.677454447396989 7.258592358346165 12.647401333323435 2.3276245770081267 0.0008674902066178608 1.327377772650114
Ni 1.2514029329192806 5.2339572628998186 1.444018621539903 -1.6800670490272938 -2.3858904026285557 -1.9283510251135045
P 8.689614916798174 8.101806193158708 0.7332511666058906 -0.13332275465626717 -0.30880054541402946 -0.3048155926243525
P 0.6454689561578784 0.7210584931158327 3.02605136480537 1.6159447646260878 0.8842126615788644 0.22619871415139753
P 6.567686635095735 3.5260218926589926 9.234865452798427 -0.3533803889069333 0.39821502872312065 -1.0584799769682933
P 2.3345512638849955 3.7119865231456033 0.2348183693646207 0.37563791475355307 -0.24754529814797366 -1.2172219430286133
P 6.352329702249224 8.91930409612875 4.933032339716407 -0.12373202564403851 0.6715284369741338 -1.0711629717526006
P 3.2868805221250574 2.8141683221711102 10.40281384188383 -0.821938486129991 0.7637500507147169 -0.17004453555733295
P 2.945444608489029 7.535402530348963 7.357670543790017 -0.6177365879646587 0.0925525147174406 -0.7932100078470468
P 3.8992481472919045 8.776933382031173 0.8631735408373263 -0.32814732537175745 -0.4101477756049646 0.6887555994856976
Ni 6.616991055943265 1.5950595982891684 1.5499811373587185 0.29386526426043585 1.2948975406342216 -1.4393184620861794
Ni 2.3822227790458634 6.775158966198083 5.257775291789939 0.8052659105703163 1.8664923399354953 -0.5877210154391749
Ni 7.354849815852431 9.075307239987536 12.894560737323358 -0.5034541377692943 0.420863619360572 -0.2794390615327768
Ni 3.972850204756951 5.703095732122387 13.199842252878781 -0.6563447872551599 0.12621082620183424 0.09838094847375961
Ni 1.479244596101521 6.242906359463651 8.651943316062418 0.2638491775143198 0.19040201616776242 0.5434767009088189
Ni 1.4842272911682473 6.577008193844161 12.895297877604765 -1.2116940712318487 0.23647078550136694 0.4594306810004926
Ni 2.954840814354559 1.7859975929528664 4.075841765315007 0.09035704972801857 0.24840944592048184 -1.9908404018969779
Ni 0.6566902840366138 7.527293987253486 2.4948195573973426 -1.2106293774127603 -0.24099566995491398 0.4468775269258304
Ni 8.315035683167741 4.9300968418362725 9.866173850841582 0.6376461824043922 -1.7630308916150346 -0.18242285461702776
Ni 4.85888349211857 7.506504765139881 5.817617473006199 1.1431777715280054 -3.551158064077065 0.5830729751442022
Ni 2.5467636869234793 8.532128161486932 9.276736886960274 -2.223080694256765 0.6661134366061496 1.5327307537007537
Ni 2.584339179495962 6.94581160678863 1.27160710825258 2.5761108989131314 1.9017516773584218 0.21311385594298138
Ni 2.9068800416149116 1.0608101811721906 13.324213680864533 0.5207787450906708 0.3122208839494881 0.6681739186796042
Ni 8.781122951478663 1.6163900120017818 0.40407417577635035 0.2925591438545026 -0.9544017209994402 -1.3237039233429524
Ni 2.7854291820858736 9.023968685198911 2.771299415906954 0.31604797100506216 0.05911608943586593 0.6267115377697594
Ni 5.066607757241145 0.25489937695469767 12.87201357560194 0.7806838503555781 0.5091509310437553 0.5915630148930844
Ni 5.415648345932196 5.552261901123087 4.028740367511025 1.1031801480891454 -1.5470314865941421 1.7877358505608825
Ni 7.237299268192103 4.995767643108965 5.553797765557512 0.30973874095758264 -0.5143926390586689 -0.9497793917360803
Ni 9.119115766838247 2.536313090528848 10.400424201047521 1.4398277976224299 -0.05587367123916829 0.31229261772768796
Ni 6.173568518563199 1.253353088853636 7.325235438319144 0.0956658635354417 1.1393684250842442 0.8294250243150233
Ni 9.053650245137591 1.9342187748535091 4.794006749554077 3.281751189969309 -0.9177650436130129 -1.820725932333658
Ni 4.244910953933975 7.29731555034413 3.6188483820453423 -2.715375987195762 2.05035321255063 -0.8984596584161817
Ni 1.2247072576647804 1.8297687962450235 12.059262296190782 -0.038541607718623944 -0.1369590658572738 -0.4488243662395561
Ni 3.0539908476486244 5.426966715063167 6.972277742158035 0.2285859834366515 -0.6875795768997255 -0.49893465263238596
P 7.915486988865853 3.594799880181161 0.5475011465809557 -1.4707805372502025 0.8413071204645899 0.7895461858422144
P 7.444687621287708 2.585160297784112 5.617615452148086 -3.9321736982027633 1.4941549503100848 1.868587531901627
P 2.8997885654899833 1.666739492488774 6.053646058756876 0.33436605258795965 -0.950916333554001 2.949247130290753
P 2.3396552605170164 9.36737341654857 11.350588692891552 -0.8728283310013225 0.7307116322025092 -0.34167055666917284
P 4.728969515687809 2.463093599538962 2.2725428367952434 -1.0685041939735145 -0.045213363311844716 0.4210590232008297
P 0.6140219918996759 4.7201145014212855 7.520840743979802 -0.7661167511746806 1.3572465351850884 -0.3689517609826291
P 0.3288485435142804 5.505906041401186 11.339267524493689 1.9002221280877725 0.6953669341546281 -0.49571820257761723
P 4.365615342291968 4.1121417252739665 5.505001878195258 0.3160369152614686 0.09444921751952122 -0.5243826603918453
