# total energy = -381177.2496278621 ev
CRYSTAL
PRIMVEC
9.14459261086141 0.00000000000000 0.00000000000000
0.00000000000000 9.14459261086141 0.00000000000000
0.00000000000000 0.00000000000000 13.38403563559031
PRIMCOORD
 96 1
Ni 8.672091691790621 4.205680530911954 3.7449064466488076 0.9800672440863444 -1.7529611660838584 -0.5703331589800307
Ni 2.0576339709399676 1.4502592616330374 1.5150331558264725 1.194601120305304 0.6027789382135619 -1.0092112126401522
Ni 6.48995408985329 0.17570694947283386 1.1070096551408728 1.8236801298659755 1.0376226739033096 -1.9794979803009651
Ni 0.30660082192013866 9.278469640482149 0.8737603554623168 -0.3278354505582935 -1.486585622603259 -0.23257607843265107
Ni 5.9356271633899675 3.98913657336384 3.9515696716745072 0.014007112912369425 -0.24915249473409348 -0.687510414224687
Ni 2.1095203904977375 7.6518203282939785 13.4034427387027 0.20303615999200517 -0.41442094905902177 -1.2977152125886746
Ni 0.9977573760184565 8.209805091878048 8.948887542391647 0.6284346911084532 0.23574856262336175 -0.797417103949859
Ni 6.882604615579679 7.061070488700834 0.8798515687276375 -0.03307852772152368 -0.7942135094108966 -0.07055467029011074
Ni 5.215115551938389 1.924680736193683 8.528950466203781 0.8717944904201695 1.4628669388300806 -0.3962969857648014
Ni -0.21638849947048122 5.639122886382365 9.340892459866225 0.4344405867140583 -0.8659783979590248 -0.9801209801424151
Ni 1.9648072094082574 5.032370009385961 2.950577853182032 0.1445546188163446 0.24459855681482393 0.42292641542687165
Ni -0.2922218641984895 2.0565731981749518 7.395803735916624 0.1802836967868379 -1.4269406572471166 -0.6197320211281326
Ni 8.211725456366437 7.85068778795609 10.255343509918992 -0.41908467308327824 1.057031674557541 -0.2678482713713839
Ni 4.599867348229054 2.7918167486303305 0.42428715898371294 -0.9164429823674798 -2.2885605211271294 0.005563867241022676
Ni 4.119447020790386 5.198737586230252 8.709580864441138 0.3100305611663886 -0.24878225587886835 -0.660727746814204
Ni 4.925414851975373 5.822215923461264 5.148650822535889 0.10239624028073978 0.021065048200415333 -2.557318705907292
Ni 3.3270406207305627 4.04799117263663 4.593227459395623 -0.41342593213560414 0.6286933440864785 1.1004082417709629
Ni 5.468786556262065 4.25362563097212 6.789855583086784 -0.9362551319974004 -1.8662691681810955 -1.2533886227571573
Ni 4.4183654702976805 1.8857156262649455 10.738587687614874 -0.07369295880877633 0.3075453328506897 -0.6921543407546015
Ni 2.3135271113144964 4.9932860197507996 9.996964869220916 -0.8501524866703616 0.351252286820337 2.5043688931831385
Ni 8.959067303098681 7.227428920952324 13.247197311630792 -0.490225297783846 0.5462360088215108 -2.3119143653617216
Ni 5.646164222839799 1.1300339108974031 12.482112211485093 0.7768500784317847 -1.4798303061572966 -0.1096125555235209
Ni 8.694944029202476 7.245809552484068 7.281103108402858 -0.2575425185700016 -1.0377748832104579 -0.054274959293480717
Ni 1.3025832324757536 8.605665369677888 11.381168164749697 -0.4102495912901515 -0.6986864854461645 0.5099963097631862
P 8.805236962985745 4.704929574929657 6.890864926257601 0.03330478479971684 0.018212152132652506 1.1705908734336354
Ni 7.502159922498691 0.37554647934978386 8.568138704196885 0.836622570504727 1.3056702057696932 0.2185442829299333
P 0.6954508548780726 6.51783595330617 11.084779109611397 0.36056610802209516 1.2209870664980005 -0.765671693217462
Ni 2.099799688349357 1.2420551727202234 7.776967738624593 -1.0875871787468947 -0.3744840036547679 0.39187545965833803
P 3.19546821949736 2.6088243020722524 9.050298333186467 0.4277819437469601 0.4524797036039562 0.3699696607241822
P 7.314128805306786 1.6162884885436595 10.66739794711165 -0.43389679839544626 0.04180896561598606 -0.074664064472794
P 0.5475169482037765 0.021304157850499942 6.712268285459379 -0.3982708216617205 0.10326398759767377 -0.19328987923851873
Ni 4.45601375886295 2.0349462361985458 4.683743382326301 1.7837735234790248 0.19192873722493398 1.1335942416046283
Ni 8.556101676691792 1.4697189551154015 2.3787445182588223 -0.7586744359640225 1.719890865892451 0.5415008081293706
Ni 2.0073021321585145 2.8792299112233377 10.894899870214237 0.12565983879437068 -0.04196657423977289 0.33566831633915095
Ni 1.1934150836071147 0.14147508077834037 3.41681034488861 -0.7608616734233284 -0.4435530905382878 -0.09288290147366585
Ni 0.8341340914740042 1.6764416199943135 12.580097437816335 -1.5742337580405468 0.8176683979997273 0.25979969003529446
Ni 8.666668948259117 3.6108156245579712 11.487156738701128 0.2847555886496838 -0.6834403579203714 -0.5679877986763057
Ni 6.430971466281275 7.8571164366958 11.982405937827297 0.15057125732406973 0.10692678116124166 1.5991878568827234
Ni 5.334315319110671 4.7527557952834005 1.141549696612789 3.4642064404861697 0.25137264231386386 -0.09348582516498738
Ni 1.0260416015546183 5.6157401625880015 5.323487206773986 -0.022114315400536107 0.6538490174164997 0.19071260542964574
Ni 4.145573122425309 8.25894813359526 11.600318331246338 -0.63943746997686 1.7520463675790727 0.0010495243104369021
Ni 4.734750092056532 6.343119363233779 2.639104792217061 -0.4227086429891107 -0.5433900547322834 1.3570213065481596
Ni 1.2630145794220928 3.4735918649732174 8.562383097487393 -0.8306383278968339 0.37665555738479006 -0.7447359715060594
Ni 2.869746968487806 1.01819554093062 12.309137666341455 2.233253263914392 -0.40068791574364543 1.2068046043500313
Ni 7.713884679640222 5.904005161481125 11.376912271259709 -1.0865124576254772 -1.431541903464554 0.7623909655836613
Ni 3.67266050567697 3.2146992981596774 2.4571886642317624 -0.45908203941182224 0.1957213714981468 0.6639233709333662
Ni 7.292931639192068 5.834936052048654 2.845258663423697 -0.5602685756551771 0.39017416069651517 -0.39757276715343143
Ni 5.067046305290625 8.939744778508345 7.62963646061594 -0.8818228211904491 0.01119509738487104 0.2438645068622768
Ni 5.9136069839230805 4.076010204981538 10.057741661900655 -1.001216881580766 0.14484746746641505 -0.013187188114235355
Ni 1.8061485242959365 6.055668233100021 8.094865790492152 0.6663296663820137 0.6145736168556448 -2.1844521832512895
Ni 0.5291637504504377 1.2095552899024027 10.025245436919958 -1.2919202031734525 0.9145984729595733 -0.47042883188320916
Ni 8.13613625226624 0.29752115572716903 12.211607840731748 -0.2997114386285677 -0.051113273736047446 -0.18315947567273616
Ni 2.449845556211866 1.011474265221251 5.402934514577289 -1.0989033750906623 1.43651647386101 -0.905846437798556
Ni 7.551778483041598 5.553163714044853 5.2106593918660415 -0.3651462711936099 0.7662589331794997 1.564288988123009
Ni 5.489270444138238 8.543582729146042 2.8796825685670298 -1.1694549600569795 -1.4327621490249 0.7277378942861661
Ni 6.424350781092726 3.344150153862848 12.19635008764184 -1.4181878507551513 1.5222427096852365 -1.1316450882980575
P 7.538793161262953 3.7231843809072624 1.8802700212514363 -0.8400123129125662 -0.8144254655823974 1.3820885339294326
Ni 8.940695816159739 1.677822453507395 4.712224216607703 0.30898900727575174 -1.4504492818920183 0.901165487383119
P 3.6312080665061255 7.542039491707614 8.70895171645637 -0.6767022678655894 -0.5418556203656281 0.03185442550643546
Ni 5.553355750493693 6.622623842222716 10.258930019215882 -0.485246613622332 -0.9005196262690041 -1.4207880073821595
P 2.2001524497570006 3.2328513148713753 13.333230555169997 2.007758517808555 -0.5329374919403919 -0.6790820809516755
P 0.9998697769556869 7.111969292236003 3.370193954162554 -0.9897183940228633 -0.9631519563882444 -0.75601411552304
P 3.1822725720842713 5.270202578976811 6.452162231181032 -0.09669713301343347 -0.24207604750328635 -0.05169717126397548
Ni 2.8362960480185917 6.981494242139024 4.412971075003861 0.9955224022991501 0.21010155147921883 0.7190200547971939
Ni 3.4549551848430204 0.6072091921772166 3.295149767793346 0.33231842603031153 0.2666637641449795 -1.3968569504878587
Ni 4.045074047532836 3.83951274593976 11.89887648379724 -0.6616973098163249 1.468174467085923 -0.3687514720463649
Ni 6.877867716508314 5.108288418827027 8.152015837666674 1.3333417035430326 1.7599900479061816 0.38095341342919553
Ni 3.2200854633199745 5.150819919948491 0.8693828388880649 -2.3780660214881304 0.19719384227861525 -0.6773596989439302
Ni 5.112494931515884 6.670248881534818 7.117336253751417 0.3779503649368136 0.9708819780426504 1.6022274150399956
Ni 4.6049608864196925 7.244693912162241 0.42135265915359515 -0.621868093634529 0.7401470665837963 -0.20432453978612553
Ni 3.462938414359047 2.860337182494689 6.80436347956694 0.11686049533518585 0.7809221916186293 0.26894716086251746
Ni 1.1093122636083816 3.308980049946883 5.920133479805771 0.5823623222304228 -0.27571687548618323 -0.013914038977930875
Ni 1.2735217165514334 5.0486748183516825 12.38460981965379 0.16918450154988282 -0.4899108518672207 1.5790319507601387
Ni 3.4101101017426854 6.237288990737819 11.802149553435536 -0.6578331988752284 -1.2297416727621788 0.15348894519149697
Ni 0.374952995276943 5.853828780777303 1.4558082005452075 0.4798969192746445 1.0693822257030938 1.6895161102553355
Ni 5.713934800094405 1.943225970395861 2.5617717142695473 -0.8079164608192859 1.5961567833658834 -2.381556551139892
Ni 7.525250019323394 3.1478157464068524 5.736237547478868 -1.1491908104913047 0.14977987177102592 0.3711641952529156
Ni 7.841424315447803 4.892210835511809 0.13714054379025736 -0.1979870276038719 -0.1616614536999603 -0.14274790462490897
Ni 0.6435479750532593 3.5467760411665257 1.3263811207833216 -0.4526229140500398 -0.43638459781430655 0.4523683748370725
Ni 6.999280475138647 8.913408351238981 6.275854481961116 0.9791398471760685 -0.8292337342398234 -0.7238951235013081
Ni 5.6633652019001035 9.059621245547966 10.011031081868742 0.5223003239415198 0.4846218355541396 0.24913423990164835
Ni 1.4894438417890197 2.6551233754280843 3.538363930248092 0.9259833177577472 0.06873227236939129 -0.106423616272578
Ni 8.815588642037454 7.914928552389178 4.946324877876112 0.15129296598144268 0.005919450808228515 0.12041118880092166
Ni 2.9328446588206596 0.17759439342713834 9.777332782683613 0.9903169468388107 0.22046772520489127 0.1053910612430056
Ni 6.800522750590158 0.9287065557715899 4.038592360154875 1.108660711587742 -0.558983024074534 2.6776062246461567
Ni 4.5987882862784355 8.637150202694704 5.091247470140756 0.6882871444897114 -0.2589370849246831 0.7812091267314287
Ni 7.797365667328427 2.30446481984785 0.12762010822423794 0.6611789754190096 -0.7483550563158854 1.6062748456364915
Ni 2.7298346986193036 7.75466956353653 2.091978318125924 0.433516275127576 -0.1357429340619856 0.8901313410561444
P 4.311428602072695 0.322639523235326 1.1189671246885886 -0.7969010835453888 0.5745507966058041 -0.32533993782994935
Ni 7.850742655512902 8.262029861369486 2.774550842961133 0.9592302527363351 -0.22430946754848466 -0.13100773336984534
P 6.8242895472821985 7.486495235029099 8.398549487308497 -0.5291042342372307 -0.6043257138753915 0.3904209865999986
Ni 2.7422530556442335 8.387704000245488 6.652909819123207 0.03052259406888937 -2.3180050516404918 1.3355201992515902
P 6.446444117302026 7.334018294650837 4.572629264109426 0.13826158671878125 1.0283517901243453 -0.5489318104861192
P 5.972498161567078 1.6060374000127713 6.500974238638815 -0.5532916301167116 1.5127010887433883 -0.9805675807615305
P 5.434741237260729 5.688704868554065 12.37016867870109 0.8905388609072082 -0.5430457840189874 0.04842132872618112
Ni 7.8730554619494475 3.1681441762053932 9.179949455471998 0.36907388838279015 -0.3362028486863823 0.25833930343968414
