# total energy = -381169.3603407278 ev
CRYSTAL
PRIMVEC
9.21658431618340 0.00000000000000 0.00000000000000
0.00000000000000 9.21658431618340 0.00000000000000
0.00000000000000 0.00000000000000 13.48940277334939
PRIMCOORD
 96 1
Ni 7.706336268110429 2.6851965030848555 6.261645913539723 -0.14879899591499535 0.024202051167500252 0.3457915208160819
Ni 4.673379610519568 0.8477321968437377 5.5630297538996345 3.3944822365171543 -1.0988501532552237 0.7297307563464787
Ni 8.20939586615047 4.652743678527123 10.983382176307956 0.5096055020826707 1.4741489395018033 -0.7518592128144019
Ni 3.1914726890058085 2.5682011834278207 5.8512304980788965 -1.5522171445601396 1.06988256237828 0.4219419400264153
Ni 8.572759697683367 7.264760503175169 13.170877603398509 -0.5845595869920577 0.23615608247442557 0.2357177093854263
Ni 1.3830774892873228 8.685238891089263 7.852882721643024 -1.777855872443009 -3.7957861885782433 -0.41121735452005953
Ni 6.335194255343971 8.004833780142285 9.017476474509214 0.5602837451638286 1.3641977696919407 0.23387448552910045
Ni 1.487455305193729 7.164428767726414 9.786291669260361 0.681326139790846 -0.8889494049329013 -1.0178118098249698
Ni 5.361517435598597 2.032791374894934 11.31987505664658 1.5657825419494003 0.47943617758814205 0.45668011483854903
Ni 0.7436815696759344 4.671646892692601 0.33921914594084324 -1.9313515025027252 0.42420811035277267 0.9508952505080785
Ni 6.114198999732156 9.243588777661095 13.03107308119797 -1.170857496831461 -0.06573539452459647 -0.24729821513417408
Ni 2.76397986470675 7.393857197868416 11.818470141306925 0.6816596118708647 1.7255228673672478 -1.1476558619040171
Ni 9.065782435544858 8.832741104401945 3.7490013779266675 -0.8321650489540054 -0.5002592849810804 0.15570060813083508
Ni 0.39474814400305125 8.343146935857646 11.416067624137403 -0.03737329844213564 1.1065935446460684 -0.03732033371701315
Ni 0.20897682983327617 1.3381097750438478 9.623124027806742 -1.2142176089846508 0.19617157166168794 -0.30658168338583974
Ni 5.326807779554135 3.319352794586505 6.394718642650808 -0.40480990833181896 2.3740399310478724 -0.7008582962865026
Ni 1.88430298707435 3.5574171641107846 12.170165777260351 0.27015506512768955 -0.7854010533255893 -1.1216972330567263
Ni 1.344155854269861 3.732504613892153 9.832156157145132 0.17755729899461034 -0.3283620124857248 -0.08759774181532656
Ni 4.7103104633528545 4.730725197324835 1.8106154748488925 -0.36932379961006717 -0.7788074592684716 -2.646183487360501
Ni 5.672853649401545 7.165700656344082 0.3703767304400217 -0.861306189294336 -0.8624446737741533 0.9629421543702835
Ni 5.486346851813728 6.1760054132834465 8.011626402687364 0.05670130934678622 -1.5520523368475012 -1.9212938611564072
Ni 3.567168310179569 7.79341455549972 8.648703429717555 0.19364649124698907 -0.7936164992568462 -0.26728854221317194
Ni 1.8285334361648873 4.5925501672083815 4.85943571714069 0.20558643721768463 1.6013254720510164 0.6151932527175147
Ni 8.688676676990639 4.852734338779053 6.062488432498206 0.0657590486736803 1.179687436418265 0.28875185429327044
P 7.773082770785413 6.470456844857651 4.607035872573512 2.19258766787423 0.18393620593776064 -1.0460960014816436
Ni 4.450974217527295 7.6705206219636475 3.851642789372432 -0.4921988765704491 0.29964253306384525 0.44637333359590226
P 6.185885591530834 1.1617043537238816 9.446278053762684 1.8435516719789216 0.05690854026158586 0.20661462137188286
Ni 1.1019532384460689 1.4927087581797465 7.434130905785964 0.007554158198174087 2.744600688388835 -0.8793273084621048
P 4.234071125294062 7.405691291963235 6.544842052505987 -0.03264246862536959 0.150753805648521 -0.029339372394065602
P 6.900668561491578 4.256006595656733 7.619880100153693 -0.26277239951037323 1.1628171430254877 0.6242990716735248
P 3.9341450427133764 6.826576441220355 1.939061478698609 -0.409522740426456 -0.3950456298562035 0.1198871979766516
Ni 8.055607942422938 6.914493437770571 7.8130348199148685 -1.3757415086654823 0.29096505989450533 -0.0905964194323343
Ni 2.6821365971351048 8.372400374063998 5.382433551750296 -0.6685091905318357 -0.1279800022871151 0.01748581548958924
Ni 5.359333105146516 4.098909918206429 9.493005213927267 -0.16692013099573835 -0.2480240375566051 -0.6756802543589782
Ni 1.482625815080267 3.917416942415793 7.326040649769438 0.9927864914252257 -0.8361201769470116 -0.7627318938628477
Ni 3.0632147034734865 5.582724672646689 13.186268377330704 0.8256503877639393 -0.6393629079851827 0.7190028284060134
Ni 5.421111868945248 4.599167674653927 11.995734548273028 -0.022242613448284276 -0.5950383750361946 0.3019025327426155
Ni 1.6805427438903477 6.392290994376217 6.410029232300586 -0.7420465975993543 0.45027086887809553 1.0824755685519423
Ni 5.109794088310671 8.999579711336848 1.7905565010264903 0.9489864635211398 1.2146315565936179 1.8300232984751839
Ni 5.9715354931171225 1.5744875096620903 7.4027005103948795 0.00032627299116718 -2.1832782175478465 1.4115757447552721
Ni 8.068022681321475 0.3363315901153706 7.62290221810828 0.08055111938119029 0.8281957798936124 0.998953539467886
Ni 7.852972122509628 2.150367339355686 3.9078390681297064 1.6816014833939492 0.4044304135052131 -0.5674730638234162
Ni 8.48587495856198 3.415739832003652 8.854848924888895 -0.6931501290089676 -0.28863538332006416 -1.2110240417480176
Ni 3.337859695631985 1.132791929132412 4.033007654642883 -0.966218254018394 -0.7874597356268309 -2.908153959794869
Ni 3.465767450965239 8.332381965528402 0.46348266388695464 -0.41265203008405704 0.09972152166205406 -1.569419367371039
Ni 2.930956720404442 1.1777504267917012 1.5768838215504493 0.5866982306016154 -0.19291089863254518 0.5711587402051197
Ni 1.5855658438536575 7.044686905981952 0.8945902325037606 0.04980689621979809 1.703913259517272 -3.5697204004602843
Ni 2.888440617554442 5.450282357893925 8.505270338322992 0.4300231743726529 -0.09208251705955754 0.25933534880436626
Ni 9.015174171779552 4.758135318693988 3.3138606320700696 -0.22747603820192439 -0.3102429342875109 0.09772403161605105
Ni 6.126281941599998 5.9287889756624725 3.008176949348392 1.5181307443993919 1.2166210762198209 0.007084931871239411
Ni 4.331997332270271 5.016254975406995 3.9338473470441686 -1.9927193640872456 1.076586970981649 2.3497499481522564
Ni 1.134884093742633 1.356441560989794 3.3366984060245497 0.42331413778359356 0.8538255646465747 -0.4434947264965265
Ni 8.816750330839241 1.9235564191225076 1.42129774224823 -0.3730557558486736 1.0448040221430972 0.42572249011477004
Ni 1.9515748350479356 5.697526445267457 2.4354842144663134 2.214992260821676 -3.4105390328697007 0.34841147493743224
Ni 3.0327538927387696 5.0818033221378 10.80084311821221 0.5922633833942187 0.18196031315831243 0.2553815063629408
Ni 1.3455014755610166 1.5813446482964715 -0.04322577983232183 -0.12031297266016054 0.025866583354116745 1.0552069626439762
P 0.7127202984199177 9.031846972572021 1.1110979332754143 -0.3398229619374728 -0.09903426578704234 0.7942811294240385
Ni 3.6606336904097554 5.183508328630268 6.252068039253635 0.8334791397797386 0.019772297530920788 0.017498928115711798
P 8.52602239927618 7.0075164219598305 9.962139487237074 -1.105521137517496 -0.4169588849895271 0.858988854015069
Ni 0.6427507562550908 2.7490674314938084 5.226266827644359 1.5165338322259172 2.0522594284344073 -0.5167912211978326
P 1.1244140541073413 1.2320361076472182 11.474368970722761 -0.5145772442656493 0.8010009646463754 -1.0236147896599919
P 7.837119597709714 4.192071151158478 12.990874949270749 -0.5897737842031455 0.01661421151791332 0.9253042894128515
P 3.561601493331227 2.9151594951096444 8.03215726562009 -0.33502734032104237 0.32186380635589085 0.17755498500176517
Ni 5.126024493062209 2.9660903393214597 3.928451037003268 -0.5131196858835163 -1.8039960211734867 0.08307902800936659
Ni 6.588677970211422 2.260634552556944 13.336877501172486 0.41718668472961706 2.3352319570417395 0.6430377857336087
Ni 4.831683660498237 6.531765562862897 10.170618621524307 -0.8211159902286955 -0.44528318585551696 0.7786449655486783
Ni 3.1857952731472348 0.917776393340471 12.001791687400063 0.5471600632976771 -0.08148622960094998 1.636574782171614
Ni 8.712649012458415 7.998686318490226 5.986083871254717 1.6146160185123353 -0.31154339826648925 -1.4045116388196393
Ni 5.174144279097295 2.2815193323224108 1.714732584586719 -0.837650497548609 -0.47368333426476494 -0.21263203121055635
Ni 4.58125063499635 0.14396580996051528 10.297054488363056 -0.2947679785803633 -2.4311266487585357 0.05411760778001003
Ni 6.716465909950259 6.575028209031962 11.588624199901298 1.5553459199971083 0.6128142109623769 -0.05258085942050945
Ni 2.2433442406240154 8.378704517647218 2.947838737657931 0.17382148610126194 0.20767622986717785 -0.9799991098525702
Ni 3.3279795173845974 0.38672049917704865 7.3584148233811675 1.0793851025520766 2.05189330334424 0.3898645998758963
Ni 7.293672927766638 9.111349227760423 10.947459617784617 -0.08509297311560184 -0.2602637741559066 -0.9243815204882662
Ni 7.267608427688642 3.594993177837091 1.9969711204560596 -0.7844983390056618 0.22079656929921976 -0.17350806862590118
Ni 6.423913094718371 8.38015152136442 6.380662430108746 -1.2633652743538952 0.33738966990563185 0.36894790432788716
Ni 0.9821376440281192 6.039268170300008 11.866303291573828 -1.0164077303885914 -1.354810672050086 -0.05574871562552979
Ni 5.875609284909274 6.3514891761848125 5.3838768688338225 -1.507467865368907 -0.8198625774375686 1.0309041242325534
Ni 7.701580510670455 9.173588820768455 1.4901741975285976 -0.5448398998049326 -0.8102669633293336 -0.24774532997392174
Ni 8.91040004275315 7.000456518473357 1.9901858711783293 -1.224615407279207 0.0652132034725393 2.147554538893992
Ni 2.228828120531071 0.254113207567355 9.80885939729819 0.9594253994662767 0.03207219794419638 0.6106827664416709
Ni 6.825175520424083 4.281131004147759 4.463724440090202 0.9832618397642421 0.21987405748495037 1.0529757593206124
Ni 6.731230877816224 8.149598667951727 3.3504569228974046 0.7556297356004277 0.6566281228235337 1.2347751214210285
Ni 2.7226434846325573 3.4932420884236937 0.8651321861284798 1.4445861382430216 -0.1582002346242372 0.14238023687284512
Ni 0.38428086934301553 5.527839913819083 8.443947795441465 0.3832488943315916 -0.33089712020275275 1.0051375567914107
Ni 2.764984472383024 3.3107168552042263 3.3517656778518163 1.9837703824240738 -0.828129188321735 0.007402977332290475
Ni 8.223534106291787 0.8707331043383096 12.790300879239846 2.6471106271604605 -0.716846701294959 -0.16444904374742647
Ni 3.457647640297377 2.5256205644885186 10.336821284150375 -1.5576072052274594 1.1108944860142675 -2.0381630982423418
P 4.864070737327827 7.699276364623956 12.008252512914446 -0.24304612472603948 0.7581401607271072 -0.6817673410933226
Ni 1.056460178903992 6.700631818318717 4.082527439815821 -1.6322285893877762 1.4858685419315765 2.435369997415922
P 9.020178776992548 1.0525339140407575 5.6910038686390285 -1.1039291104400277 -3.7949351534318576 0.1001660653986404
Ni 7.193977136626718 5.779480311849335 1.0228970659322685 1.4857014202260928 -1.771389547992375 -1.3936636403615419
P 6.162733532055611 1.085197488395928 3.829829899579435 -2.1415517843433376 -2.281750697294148 -0.7215700749125573
P 1.0863034784982475 3.2724956805849006 2.2426133654980656 -2.150528019700019 0.7098427591733001 -0.5301149348899322
P 4.342430505568819 2.8672609070950226 13.005335769858576 -0.20148578478574974 0.2224590446033072 0.7679987986887419
Ni 7.725552846138231 2.443998494937337 10.962702926369836 -0.48057337651637877 -0.736881508458647 -0.24986983251609227
