# total energy = -381162.6903207371 ev
CRYSTAL
PRIMVEC
9.35681208434568 0.00000000000000 0.00000000000000

0.00000000000000 9.35681208434568 0.00000000000000

0.00000000000000 0.00000000000000 13.69464028650880

PRIMCOORD
 96 1
Ni 2.247010310421296 1.8329152424087667 9.689259440053654 -1.1793606492064657 -0.7665152721646799 0.7604168725764259
Ni 0.8452260834746793 1.591200720265607 1.964564650340561 -1.0597159062579233 -1.009644700633145 -2.3059951716638087
Ni 4.036678368169137 6.979227292127837 4.129263086365024 -1.950029538528203 -0.3559854306299482 0.9938920657845788
Ni 6.571541640275571 3.9462822082796523 10.223007547444587 -0.7965961507104603 0.4434245353802234 -0.1458900497983165
Ni 7.2408905372690695 5.151739000628491 12.925056463446408 0.5131983616402516 -0.23168853362137518 0.6855175521643743
Ni 8.886763109541123 3.8471000020040558 2.514130448270069 -0.12361761155336129 -1.8467195281839421 0.0962207075976472
Ni 3.035480779876552 8.737924302444338 5.287952661411345 1.140285537581875 0.3840078839848032 0.10247440181684286
Ni 7.60080030749462 1.6985701369648971 3.046796908203883 0.9076804056835013 0.46853984239061247 1.749639043689161
Ni 8.916555198671452 1.258537986330108 12.423791464291924 0.9177203064180065 -1.4220095384940865 0.14931527342978154
Ni 5.716310317822543 1.867076962702371 1.525062095260036 1.846865052622871 3.901322517149862 0.7297109588521368
Ni 0.7320021095615553 3.0800940590767447 -0.3195098634296873 0.7445040580009112 -0.43225540613728136 1.6053731597578287
Ni 4.036743865852527 3.037726414735622 10.457582822098285 0.6010665835081455 0.3072208596317354 -0.5027576259229019
Ni 2.870688608468457 3.2632723658934766 7.985577676740798 0.483740975611083 -1.187439055339226 -0.8683111598572594
Ni 9.087840997547024 5.882056884045743 10.840088357412036 -2.0449479823746586 1.18725547857351 -1.3083737207437853
Ni 2.8112541391984007 0.0012435203032100765 2.6403267062190876 -0.670586898996471 0.3934008951639289 0.03518554676219746
Ni 6.434164927771956 2.793008355968456 13.157097913434121 -0.6807869794579243 1.1085182724726068 -0.7094979742393717
Ni 0.9167065124012637 4.947648219186668 12.271958477383045 1.186567708477866 0.6015648633008027 2.5126488738037436
Ni 7.741835533456136 4.021417407939373 6.789186699454264 -0.5711695388383969 -0.4831038562477164 0.8980390259389953
Ni 0.45297355719137194 2.6166043809765855 8.13756037264028 0.6207733179084535 0.7411449117206913 -1.0836847583686948
Ni 7.417949489094836 5.758032342141684 1.6349615939005446 -0.0859074985970972 -1.2877673573473436 1.3217781670751494
Ni 2.3252800420718023 6.944738083417286 1.8754129464354774 1.381431617071724 0.5365992570626952 -2.082111221688517
Ni 6.460728916792373 0.31639030233796245 13.057031488432765 1.4466270799324505 1.0633211071106785 -0.03557352622923551
Ni 3.2036881876328165 3.9017531403866745 1.322289688616726 0.20019971898447458 -0.08279260711719935 0.07900357238841232
Ni 4.95073596711789 0.8339529964821473 3.377960680870953 0.29506082723043375 0.15825936999694679 0.885032072156366
P 4.002956418035435 7.68655548867536 0.3621722473460631 -0.6836576161375 -0.9438044050995682 -0.8450282780699189
Ni 0.18417200024187041 5.34988820650569 6.663182256149457 -0.6780801220497226 -1.4474441765171073 0.3037503845846317
P 5.031372972182332 1.8364427604998892 11.929976358782405 -0.9561829812695791 -0.08356830894095929 -0.8719793527374661
Ni 1.3762092529453818 9.259828557316057 8.601918362885947 -2.1985392574719747 -0.29584707057715504 0.13413188082112384
P 0.07346875145805266 2.4246213141499164 10.22339117673301 0.37560808995688216 0.09529639601116492 0.5736359981010185
P 4.887783336568623 2.193526773527776 7.681104210054968 -0.12392177305734142 -1.3311392965750752 -0.17605268942462585
P 3.9032034462331575 6.054727491084409 11.165884127084738 -0.6378657546143659 -0.6523071268506766 -0.4683500949773095
Ni 4.79836028511807 8.00289994263495 2.280445006429276 1.2137594384013097 0.07943217528539867 0.16524865683058637
Ni 8.74554074734135 6.855792229374283 5.178422756841391 0.3602444630166182 0.4511141907149973 -1.5101261289273604
Ni 2.6677019308323433 5.160010422359399 3.218391481872578 -0.19120779989850942 -0.2979198939457837 0.9032599080183024
Ni 2.8192167861361868 7.634147985151811 7.763176550066833 0.24615690244087926 -0.053180954898353575 -0.20606029153030964
Ni 4.911587066074767 5.595551303276047 13.293154379776842 -1.2633765872078049 1.9383952967233842 -0.9117131809919782
Ni 8.154835854474868 3.4514097830239887 11.706068785390482 2.13278586522525 -0.40704599675118924 -0.3933816118902193
Ni 1.4200833440044642 7.627018094474264 3.832814957256796 -0.4260485059956211 2.1769687303900507 -0.6171583468636855
Ni 7.392012406472576 8.761185336859539 5.090160885749214 -0.30552881664129317 0.24373183793915446 -0.2421657790036152
Ni 3.289331087070603 0.5510918939524843 7.717587355384135 0.7390990849352561 1.2505601521694272 -0.856843525537292
Ni 4.414852635248458 9.18929690911743 12.129082766518284 -1.958589769393388 -0.7904172755932581 -0.18089407667732718
Ni 4.238654510118669 1.43018870087028 5.591261205014033 -0.5663813734211343 1.562125147702471 -0.1971622177097314
Ni 1.832091842960441 7.565628051514434 10.25115003063469 0.4471616338251524 -0.5887222030101795 -1.058827333005383
Ni 0.06485206336756237 2.8105804487406796 5.207496242816819 0.11137916050564044 1.0156793368629993 -0.6060010446952854
Ni 2.3808688616457 7.170022043841582 12.398949128663459 1.5608982172739052 -1.8055147718108582 1.1535133491260585
Ni 7.9141786520778545 4.653498123084221 4.590580112739033 0.10022854320545964 0.7143619871998923 -0.5482463543833204
Ni 3.989267402207019 5.069595548846087 9.03716169718377 -1.4799850865676059 1.8107634218043072 1.1586375577265013
Ni 1.9385910761518412 4.517459434684136 10.3874114111583 0.6134194486465435 -0.25130142275629624 -1.1036311195836348
Ni 5.619467314525144 4.066797945716416 8.011227505237335 1.8223374997951518 0.4344367300593163 -0.16315140798192548
Ni 6.8707257011871 2.442867097379861 5.252003790042398 -0.44563542698861314 -0.3619316209110541 -0.27786837461154723
Ni 6.757891906330739 6.419109817404274 6.491273293600493 0.1969812120471769 0.20420781170260316 0.40181791558303054
Ni 6.11638888158971 0.5965295082821943 6.732681847994104 -0.4775695566930485 -0.6210365988721691 0.094576744236321
Ni 3.516533193937022 3.654892371691479 12.674800107708059 -0.028047135945203305 0.06435959722299239 -0.020243580740384494
Ni 7.149998466348207 9.353583812682235 8.674431783847703 0.29525057464373666 -0.9760223845930093 -0.6601867867090695
Ni 1.8072495073319776 6.450614203114645 5.543275730800469 1.2010821000439573 -0.5852429862123276 1.1180303257281006
Ni 4.538166059447145 0.4202125516411128 0.7264722337210952 -2.626542573201122 -1.825996693814294 -0.7561151598772784
P 4.5567019038463865 3.360948125451114 4.269098769039321 0.547563983604315 -1.7579786739031078 -0.34293476809357715
Ni 0.4253896756724607 8.510937402251912 1.7302494950580374 -0.5568970880797829 -0.3306646924769725 2.5425731721670015
P 0.008384639155053044 5.043911100145474 0.7446693615290934 -0.037157582886903746 -0.24864367341847501 -0.17034124086214533
Ni 0.6244324570873317 0.5907825544053572 4.094451067643481 -0.5262582801480035 0.5340883177153835 -0.9616067233883115
P 1.444149064244166 1.717255690354743 6.430153662504943 1.0501058939719852 -1.0915898721483848 0.020021437427249388
P 4.961533728065252 7.843076238352547 6.085802399127983 0.5696027085719093 0.8989453398033486 -1.1856086869987066
P 7.247618085034367 6.961720697039003 11.925853747453628 0.6652994253452865 0.25577257115377244 -1.7091907058661273
Ni 1.9010328331338935 8.834271394710358 13.917588708226557 1.984171731627551 1.6818459953045872 -1.1026846965099655
Ni 4.042245671257248 8.271992496434939 9.960645348453466 -1.1895643292123448 -1.3746883848106197 0.2365363486319797
Ni 7.007512934540208 7.510057945564362 0.2777345052826442 -0.8940512449358409 0.3181434200815102 -0.2935873280087008
Ni 0.9222251600674284 6.550395245352661 8.485103244560694 -0.508250273606357 -1.0303243404696836 0.49002629439916257
Ni 5.736165472701488 6.448190788829232 9.962795543831028 0.7699937176315836 -1.592119637182032 2.7174958617522424
Ni 7.63243568857177 1.1927408849593535 10.494681645651314 -0.6398827850443948 0.23889302178961438 1.0356547515436616
Ni 0.45935677427827876 5.833298537168183 2.8574412341623256 -0.9321279972029044 0.5232210359835763 -0.16474883437603238
Ni 6.305854966011838 8.585623474939819 10.909177185213712 0.9466585867189116 -0.0912574500551009 -0.8054551437629871
Ni 4.0333566999400965 5.942408320883253 6.697720120281955 0.43402252534003316 0.21252404487778237 -0.17822604292686078
Ni 6.1934048004439015 6.542582307405479 4.145942539280767 1.3165793964830295 -0.2816777210553084 -0.2433482293474906
Ni 8.141408829380012 2.2595016543248736 0.8230261115303886 0.21990619627446642 -0.5825638967182676 0.1933256175724606
Ni 2.3950912157531445 1.5928943032218226 12.130465703318993 -0.2898432875852363 -0.8668191486927652 0.5688974549747686
Ni 8.601838829984688 1.0331230305390322 6.516539492808605 -1.2100287677142838 0.18158210388328727 0.8120829334921499
Ni 1.83677960572875 2.811983970527599 3.3579530099578294 1.3491089936796186 1.171551437574692 1.3095641415074608
Ni 5.490914075655294 4.612889559382704 5.76432011974708 1.1187954860288989 -1.4383167602945421 -2.0231627681787674
Ni 8.808951861674341 8.067059601920965 9.789216390355628 -0.32416931456061593 0.39063695926554654 0.9574834452485574
Ni 6.240853193653671 3.793784887724966 3.0354302530922226 0.2695164031024262 0.16597885012839156 -0.03175235271093241
Ni 8.603672765119596 7.6818583690951385 7.430287381283044 -0.28545467159923743 1.35543005080164 -0.6988713477634609
Ni 7.702536923422409 5.995798289657644 8.766829365805334 0.0176994741622921 -0.7943104400000772 -0.3378694377555278
Ni 7.913345895817616 7.716356934617603 2.94799084576718 1.5042341889229578 -2.234131809864604 1.6390507545159319
Ni 7.638564400374649 2.4625257592086376 8.628841653483816 -1.4256738747195512 0.25238822806257183 -0.5606105323756281
Ni 4.973772438047184 0.8358290372706622 9.460558371918806 1.2365003316422511 1.691866612765383 0.3486163918593867
Ni 4.76843720062096 5.676450299074048 2.1766264998508906 0.022106859201368376 0.36053551189447586 0.2868286691286286
Ni 0.902804161261237 8.89694332090224 5.986625806939534 -0.008297721232417968 -1.3733051313098479 1.8228314087124349
Ni 2.9487805606926196 4.144244277918595 5.239720167363284 -1.1906858444112978 -0.1064174456249909 1.5940299668308677
P 1.248049000175868 8.864044770216863 11.729568418509459 -0.7045863958703672 1.9953256913618411 0.7604690659705999
Ni 5.249349262502738 7.460139354009615 8.167168132575929 0.42480692027903616 1.4203524625066377 -1.4098453923277268
P 5.476635580676372 4.125540010904924 0.9441313281176573 0.6757715285212039 -1.5041092333093191 -0.018377988286555447
Ni 6.929299343761179 -0.12072345866122686 1.9829835345908922 -2.5884295683794845 1.2988724661215696 -0.2792403152584094
P 8.344807206740288 -0.054762613081998604 0.5046952064017132 0.6745929348320704 0.7850061318800159 -1.7090318116907601
P 2.893013961692379 1.8175420004360492 1.0611055122454285 -1.053670728505108 -0.4818848962389507 -0.3825693517660637
P 2.2211948663539025 5.141399723464855 7.374180194329177 -0.9345841720528808 0.6172249384355628 0.5686709407862593
Ni 0.05686789576237684 7.0359295723193584 13.485865406570326 0.010341748245640254 -0.08102960167950561 -0.19256277126450708
