# total energy = -381166.41383385047 ev
CRYSTAL
PRIMVEC
9.33787913290453 0.00000000000000 0.00000000000000
0.00000000000000 9.33787913290453 0.00000000000000
0.00000000000000 0.00000000000000 13.66692999829136
PRIMCOORD
 96 1
Ni 0.34990153198318164 4.937020673832062 6.206644459724696 -0.01722844806314452 -1.209949577736916 0.08366523953013978
Ni 1.164657621722025 8.7342411598684 10.26185560221837 -0.07761903333605988 -0.6173619782340594 -1.8746951874612616
Ni 0.7448807411022865 3.8564413147217644 3.459031455696192 0.5698047972803864 0.6051291836132933 -0.47442689729900867
Ni 2.676544274454389 4.453738745636819 7.406901811386854 1.3435243005029893 1.7386414070270768 0.3366473924229686
Ni 8.558548966283366 7.197357005024575 6.04871011065418 -0.4208844452961784 1.1206757337707474 -0.16269735116364237
Ni 1.6873734129791649 7.048529889353127 6.288591818346198 -0.17511372255012422 0.7268814598231418 -0.26623644679957376
Ni 6.729575955986982 1.4789799670988977 12.798000196808408 0.2801643697345756 0.2821261214466367 -1.2466780435062013
Ni 8.754280248225216 5.9890914883229005 9.650752117186096 -0.8370352325621132 0.12807796131756008 -1.9727704317691444
Ni 9.141764875650388 8.142527780601704 8.280177455097425 0.10272457015443599 -0.42852524967088784 -0.48703353031942576
Ni 5.191076348074318 7.35649313912376 10.605141246922521 0.3043049715365211 0.12071149365015985 1.3769327007601062
Ni 6.45902958741195 2.334609820843078 6.859294969838974 -0.9486103111286437 -1.5376870692647646 -0.7619173683813524
Ni 7.042992527099823 6.569776832478042 3.802030427514715 0.9229512157996427 0.3783697118624193 0.1769862569824887
Ni 6.2698161450195204 3.8904872215945274 10.734074945149718 0.05568418093618152 -0.006865616771581725 0.07387216469911793
Ni 1.1284079754027527 5.172503306722171 11.13655247111436 -0.06630257988197613 -0.7063512010802738 0.5762325551836011
Ni 2.168797103251291 5.310162319096904 13.54767220363105 -0.5963015580193344 1.425849481065467 0.5983589547689953
Ni 3.5513261180493743 9.3826074510926 1.8785328693574102 -0.4071997487202342 -1.1084388253849233 -0.3696400452989053
Ni 3.6969503412201754 5.0033196148075465 11.883176594227931 1.4978658235027686 -0.4658394127403138 -0.8027107482486304
Ni 4.011487457814293 6.288557268193858 6.8449585241939515 0.08831045161163502 -2.4451317047883756 0.16094257325606476
Ni 0.17493209023356954 8.324999274348457 2.3109681787639604 0.9311854307839771 -0.8086759646931299 1.1678912151142853
Ni 4.898613977461333 3.8778343955351215 5.337154392165035 -1.5423693052317824 -0.461722819468779 1.4975722035217498
Ni 6.114368473129535 9.107625589987519 6.376551837262645 1.7340717853785235 -1.3421788422186884 -2.5049705313228796
Ni 3.9560111186121296 2.075082149500592 6.951410344915152 0.7717469528772645 1.4173836096863008 0.8059835054626312
Ni 4.281884420325154 2.617444838196101 11.324855470303254 -1.0118926161270572 0.6478989704806519 -0.15515990513601666
Ni 2.5106008265564532 3.2088220538184156 12.933972788233818 0.11842321183661542 -1.1661518638256754 -1.767690501874233
P 5.874002129516866 6.468759657341029 5.987891570870034 1.7044177099575162 0.3270731184709722 -1.4299789298528083
Ni 8.095390167356033 7.112363630269806 0.3114388083383897 0.4512550871682357 -0.062225581599125085 0.5055534435004843
P 7.381938859427732 8.542693247723312 2.388269008789772 -0.6350015456926935 -1.7283449101970751 -0.2549649876508125
Ni 6.54610530918609 1.9170478851246615 4.606438279733976 -0.7313235547548954 0.18022841806887027 -0.14664955367216034
P 7.920118178326478 4.309412487648497 3.180704766329502 0.6413732535469922 0.8252220419772691 -0.9201335438451894
P 0.20690312039017025 7.037296420903338 12.163936734864793 1.9470159485128595 -1.092784663787434 0.6559820045991025
P 3.332268814338966 6.933720666917411 1.5729815937352236 0.21462592171213357 0.24650862935334322 -1.0958293641510288
Ni 0.5237578985547264 1.5245581545497908 2.4100944334013215 0.7528622001576195 -0.031001333477520803 -1.3165459721419326
Ni 1.5367067351426227 6.589377040521358 9.017672867690202 0.7770704219727068 -0.1208873571063918 -0.7384282841204766
Ni 1.7738795241336567 2.6428812206210615 8.319756989071887 1.7510222971899325 -2.3930403834097755 -0.009973309162627985
Ni 3.6562091750967896 1.4856005233174356 9.426191067586823 -0.9742650355822704 -0.2230596543017836 -0.5917594471746067
Ni 5.936584594646119 6.232464628976994 12.965529216562347 0.034224982621141056 -1.5192394040825383 0.0005011080061346209
Ni 0.2997851353331214 0.8570716222634218 6.090038629367334 -0.08156156292357566 -1.269732868443136 1.2807181638100458
Ni 4.074882318417472 1.01616666969496 13.23926447081951 1.7864335868096912 0.7050977882891469 0.2844231450109295
Ni 7.836497471786271 2.9814353620305236 8.571502472046914 -0.3610846995297265 0.585015957803186 -0.09913582436191314
Ni 8.6955076377323 3.7181473265743095 10.454299016960578 -0.2726179248458853 1.1026224758134622 1.2963245028887351
Ni 4.071651412279793 7.906242090116679 5.253103209402439 0.2143634120793663 0.2695094611238907 1.1273935121105552
Ni 0.49570971137049197 1.7309439564427722 10.146656990227912 -0.4364853850582289 -0.6514352657686845 0.3050061113686037
Ni 4.768490633448182 5.83637047710402 3.925661144251775 -0.9423478751586996 1.337099627923568 0.26953080128012935
Ni 9.048096611294742 2.224105360631263 4.455104877336074 -1.704069325479162 0.1753528351441238 -0.14745173785848154
Ni 7.946861863812927 9.224199671556244 4.346630472021171 0.8395646838521864 -0.8588353591563403 0.8147034018341325
Ni 5.293783679312255 0.5437082770609409 10.884137462214273 0.6685212747166939 -0.39970806832887934 0.6171483195613565
Ni 0.7635135448801009 3.5406529223402226 0.7800724057296541 0.12414263081889589 0.5277955427281362 1.6774213838743304
Ni 4.705151800119067 8.063165146890345 13.026292662860332 -1.7246137252894171 0.3943213500956693 0.17147278336342728
Ni 5.459951236306446 4.022188667160477 7.824084629217438 -1.3801491508148747 0.8219022335754168 0.09517992503795866
Ni 2.3423882740589343 0.4412726781022125 11.973446804411608 0.8412587837251576 0.7041968737414324 -0.2509358118867614
Ni 0.12515279101579313 5.779736240904538 1.9611357470854578 -1.3258345965327103 -0.3553074307263171 -1.2358776104565876
Ni 6.407241710418987 7.5761947564859025 8.678828318243509 0.9700224582558326 -0.6336257483910893 -1.1190232857689888
Ni 2.539800374222698 7.666912251074189 3.5315615633354716 0.5494748274737826 -1.0976921283913803 -0.8348461953305946
Ni 3.8786467910090465 5.887028470736696 9.371659721740537 -0.0039001063853545737 -1.451738433017087 -0.3684359976884751
Ni 4.434801527003259 4.57541130914535 1.4180671147367452 -0.1880520278783471 0.5600829420069321 -0.8138770492780951
Ni 5.982891136659841 0.03788003999452844 0.9396959771131941 -0.24861282018053957 0.37306218360657684 0.46583118521019773
P 1.3874220633996541 1.3396588122602733 0.2117746918700168 -0.25999457965491996 0.23742543610515238 -0.18227578751620221
Ni 3.240272030326223 3.331633838566243 3.450531184432814 0.22250969533558454 0.1725631882141286 0.5574917842409882
P 6.234388232053185 5.387853472465359 9.168418917498334 0.18015282763592846 1.3863470520954706 0.9786017152844114
Ni 6.973864208784118 8.526277256422622 12.511746581949591 -0.39212588510624724 0.22648924880862287 -0.33549785219955763
P 0.9013256984706075 0.7312679810805878 8.185233636468926 -0.29559818779114255 -1.7433262140972559 0.5265881526835963
P 2.573173953806696 3.7735302869863663 10.107050376404317 0.8216965453225139 0.25557793864446304 -0.02341323671761774
P 4.696224787784903 0.9304421390136581 5.2303337252229145 -0.5294590464734881 -0.494098150475691 -0.4959866257476554
Ni 5.540658524595336 7.040835477048367 1.850693850663014 -0.08531100266367887 -0.9735225009892913 -1.4922906434078365
Ni 2.025357943768978 2.991361527418825 5.850457601379459 -0.5867092863452089 -0.190211240313195 -1.3151704319506445
Ni 2.5624260550654587 5.427436741591427 4.777275710021383 0.0475461252100794 -0.9914490035607247 0.36177684050074466
Ni 7.434707213716812 1.3289762786721104 2.541023636373091 -0.7543372420412492 0.8982416288681047 -0.23663070811799894
Ni 5.698702126850277 3.923683381477323 3.2268852469765816 1.7791640497314714 -1.799182401834927 -1.2391835349013691
Ni 1.842195446975438 7.685345224241177 0.0006723272887654805 0.21074586993143704 0.46340072139183414 0.4861994644539046
Ni 0.015001302630579786 2.788440078638788 12.43746655578372 0.059898476127845234 -1.377042743975409 -0.24453093680168206
Ni 7.588390026473787 8.991443699337239 10.200149030140315 0.5014214236099815 -0.8347243250407494 0.9651820994443959
Ni 2.629247917265539 6.961472843337009 11.248484693026901 0.05719521826406924 1.3682212890290373 0.5662911277001732
Ni 3.130897453474694 2.2746419618368017 1.266951284919792 -0.47979561781008984 0.860574196224318 1.4994411384096886
Ni 0.2478385143969774 -0.24035700573365928 12.369624063407777 -1.1777879054027072 0.6073207919479734 -1.223461496180422
Ni 8.70970121382846 0.3304208487912018 0.6026527045276523 -1.3915581639827648 0.6909289529879327 0.5605470261275443
Ni 5.474798463933351 3.4864091831674635 13.081465520994648 0.284306159817091 0.7030954131471375 1.1971801938863897
Ni 0.5975355468298262 4.390334547154631 8.450412592188647 -1.5804964511208073 1.6810916336370658 0.4785925986409241
Ni 2.0520829534974063 1.2761705728669885 4.186987291091708 0.3878848504417062 -0.23804815729081588 -0.8936380686578222
Ni 7.538796551048323 5.606443882225236 7.345551012499103 -0.33905137387877093 -0.21926676291825464 0.9372460351557599
Ni 7.723873313039042 6.588844781417752 11.400078622249199 -2.308086506975199 0.47700571376977857 0.21109785395421707
Ni 2.7115146313492047 0.3729119334411802 6.2224572240413 -0.862915699873301 -1.1774130385617916 0.48799358023984984
Ni 7.887108776023895 2.6577657997640083 0.7304509166671574 -0.3997762025626534 1.3526679146754705 0.1732653564874758
Ni 2.293158975914884 5.1355533194771015 2.246282823281513 0.6104814490641421 0.4597417844830082 0.5017129867084714
Ni 7.661542970643076 0.6789114272558769 8.201921360048825 0.7623842807154418 0.004730572706449918 -1.0934451801895684
Ni 7.856097679829587 4.708429395651799 12.67509316569467 0.33254056934344667 -0.8335729850451257 0.2045636523801251
Ni 0.28140818944019824 6.119896497503829 4.229162755431128 0.028992273467292006 1.1371899293756866 -0.33841939672172683
Ni 7.211812041733033 4.4808839599207255 5.249987159176591 0.40828449714398074 -0.2445849299680691 0.14295359287781187
Ni 5.177788546242189 8.650956616972575 3.4296479518134375 1.0618854031054163 1.4440675467353903 0.4778156112655836
P 5.323590189114192 2.171168924519992 1.4255290138541408 0.5329585749863144 0.4441439300447512 -0.3113125132026058
Ni 6.965404090400485 4.949916284745743 1.1583573547535517 0.2286340630657675 -0.010342005355956382 1.2252849225424058
P 7.453317606585001 1.7370976187107785 10.615733203084279 0.19026111971452395 0.8037245342251256 0.24554806521228675
Ni 5.331648778700367 0.30486961045441036 8.219975215327981 -1.6333912422373096 0.9214972569619355 2.4573722127186257
P 8.508133757504964 2.7750122086215 6.488047046437488 0.5886003327203347 1.1762035916347229 -0.13092365829647132
P 1.0378398868786363 8.61465094337924 4.569401450214108 -1.6994732214680472 0.23332992587954007 0.9751878045068559
P 3.490415133263024 8.747827773828869 10.250703373315973 -0.09979916897752489 -0.15655447149069812 -0.7185449149329883
Ni 3.3045259757983794 8.020164214046385 7.934814132313409 -0.29981248298280627 1.7444613561429634 1.8549899957228506
