# total energy = -340860.08821378776 ev
CRYSTAL
PRIMVEC
9.36214757596784 0.00000000000000 0.00000000000000
0.00000000000000 9.36214757596784 0.00000000000000
0.00000000000000 0.00000000000000 13.70244931780866
PRIMCOORD
 96 1
Ni 7.859410569955967 2.630922633959409 7.705846071409453 -1.0071445599191107 -1.1962270859445012 -2.126007408850835
Ni 0.5721639061173369 1.6937435720975331 6.756554262974178 -0.31293256530453206 0.4996797583285265 0.05963853759823922
Ni 7.635046702564183 0.7436391292500077 13.457778233593446 -1.2447880255723403 0.8366238560563074 0.5875749767796138
Ni 2.9555644643653145 2.446422791076458 4.117010963498627 0.8668294331054104 -1.3856698235227878 -1.5385532739198018
Ni 8.493883313254164 0.7672055272053009 4.439867432355958 -0.01568424350447621 1.6982817722631076 -1.2857768092798758
Ni 6.507741147107799 4.622223343437001 1.6027341352139304 -0.6482494118415353 -1.8791295690835312 -0.8122400278953044
Ni 5.904725219767726 0.763527139410674 5.514386390962139 -0.8316618840653419 0.22048443737543963 -0.7129985311934623
Ni 4.871649679971611 8.406609373265587 7.449418720894639 -1.268823212144673 0.9547627038832847 -1.3680233140856182
Ni 4.864609344971459 3.2726604038003138 2.6305415945518207 -0.7154554773743872 1.3229899279950634 0.4453248377267298
Ni 1.511808957658787 1.4246286391462768 10.104158658365197 0.8430899233966254 0.5361840239021476 1.0710853244371297
Ni 7.945280187803555 7.377905956401747 9.129846510451328 0.40534881155442454 1.1910046612032974 0.9134725868852461
Ni 0.9079691613293336 8.081143673870303 9.802046836174535 1.6267850497747014 -2.275193098681288 3.5676961709414043
Ni 6.342808192722609 4.310042531495458 12.911749698734647 -0.09828401788457912 -2.9724695911538035 -0.15474004398977867
Ni 7.5569195807872385 6.374059041433387 2.2425021091984103 1.5438268636139152 1.5493220824005318 0.056323614292393326
Ni 7.357533923209821 6.243400909435902 13.193458592646282 0.4440238595271191 0.6281577832979827 0.31672262847458355
Ni 3.2840541374375265 1.3892490833409958 0.97418482270642 -0.4778138114933706 -0.28595140872999786 0.5668392868941592
Ni 7.432590260571804 4.902994150158453 8.994218950504267 -0.5760001274578209 0.42018433390536025 -0.2846656000390388
Ni 2.5466071326145134 5.211898210437693 10.205296066529604 0.7451478622324973 0.08414809270382928 2.281099436863394
Ni 4.291112269034945 3.4495675449743244 0.4581769503628951 1.0115974534841417 -1.378110266007975 -2.987600790368287
Ni -0.1809057144167828 8.890089399964797 6.106167741174311 2.1452955676564858 -1.0587743682802604 0.49900818618279874
Ni 2.887136527508792 6.395039614219741 8.347354468633997 0.9482264454266637 3.2782688878476636 -1.2526347753102685
Ni 3.3046134135815852 7.085292032957965 3.0170878173619813 -3.3167058516676233 0.213930952527638 1.0589702863411503
Ni 8.627986715570872 3.6055690105428337 5.219577980119373 -0.5544208586251483 0.10448346182707166 -1.2115315775120554
Ni 8.59153987493844 8.539767198674031 2.217699907759048 0.929006163744471 0.2614513667061045 0.33374847360861876
P 3.317196139964834 3.3434101532632687 9.503772558287812 2.3872559155175144 -1.2530929458936095 2.1510041880054893
P 6.878697521723477 4.602356866215829 3.8134330289927747 0.2894699634062176 -0.16696718218358989 -0.350902359680086
P 3.724552544474909 6.632679006917662 11.486187653471994 -0.039681634860338114 -0.3856752443848971 0.27672809035951695
P 0.7368150598595686 2.42172544569029 3.6522645941601923 0.20651280568669597 0.19050588873547836 0.2886402684160706
P 3.7358901052264826 6.954062809956477 5.516934767540651 -1.2894329179752244 0.5282192605291162 0.05546409450557545
P 7.193331216337944 8.446407862741175 4.061776165049303 2.0260164355774783 1.4370011268069123 -0.2930525385511534
P 4.713438747567948 1.3247251620364193 3.141245810276216 0.024107434571164932 -0.7341638524171679 1.3834697305476755
P 0.9524674489034272 2.4328008663088787 12.419585343915571 3.2698102155573494 -1.1425923313381807 -1.0263491578720194
Ni 5.361149567581854 5.3165576585316945 10.657011262614434 -0.09217790498684125 -0.4645829146253934 0.5248369743204445
Ni 1.5773439909048745 0.5896683134973669 2.628526860386884 -0.32954549127086474 -0.2863422164105133 0.4324788350019971
Ni 4.609032077459323 2.76893941397567 11.435269741284069 -0.010951099694865012 0.05888469015135021 0.01199213936486967
Ni 3.9410522078771635 8.293842305344283 13.053501039431175 -1.046948579289926 -0.23174741188376866 0.2176269133219865
Ni 5.900240751064172 3.1418899260315487 6.618776217721886 -0.662249068554737 0.30083398226878516 -0.7828263506198776
Ni 1.315054063558818 7.825912805819611 4.514792699651449 0.49704797713263427 0.4263647516844592 0.2118247048179126
Ni 1.6032958640703252 5.840248109201182 6.21621229657162 -0.30339222991426457 0.979548652578713 -0.6210468832848143
Ni 1.4888436095798363 8.319185638915306 11.934052198246238 0.6433131508821823 -0.28544258741437933 1.6565527679554375
Ni 6.007858637801855 8.028069659088578 11.984957003427517 0.9541842056719956 -0.09370668292654183 -0.7218798928434923
Ni 8.116644937594469 6.497283628231245 4.606365737820968 1.514436069156624 0.32753103194399724 -1.3668588614638717
Ni 6.231389274056654 5.690566093267117 5.517853194220856 0.9971149435972504 0.07228399427639164 3.957662843612804
Ni 5.183727508289481 6.721713030656277 2.1642055325497878 2.273797760995658 -1.7683150228321094 -3.259332455954477
Ni 9.573357656588508 0.27092089122456636 8.688380993566184 -3.38722761183727 4.77058884183154 -2.3129788020704938
Ni 8.83685622867376 1.886716158564442 1.7707125962155421 1.0839282418380687 0.42914642819465443 0.43373584733754983
Ni 2.8696480357796936 1.0597763847700927 12.301305843483512 -0.4268206082749552 0.30855294817959766 -0.493094391801525
Ni 4.643559677832405 5.138321092397549 4.228548781439187 -0.38045770473969964 0.1752826440278207 -1.4980458007240587
Ni 8.85889472413966 0.33417998638749363 11.47022425558801 0.486910117367684 -1.7066201169254736 -2.030240758071471
Ni 2.843396573890832 0.9998305536451355 6.121582517208552 -0.4126072928890507 0.5465687095705812 0.757515896879547
Ni 2.074062094319794 8.254708528348763 0.7728939680910613 -0.22092820978107755 2.360580977329489 1.128473118327979
Ni 4.812771133673804 0.7907316679258857 9.895580308052873 -1.8019188269294837 -0.7118027111131483 -0.9207220693588078
Ni 8.366548743657015 6.437384607844321 6.858335786893917 0.859166517243514 -0.7274391320988245 1.1507237021960635
Ni 5.412023477676031 7.531604333659036 4.2076524679812914 0.02980397073530996 -0.362217270472273 1.2392303289789044
Ni 7.1331138829323955 8.679253835864527 6.714364680999869 -0.511927208237312 -0.580934845755277 0.9438823095253551
Ni 3.815421549144413 9.11681252855344 4.543403422737169 -0.8279055023467031 0.35540307576391694 -0.8741236527739784
P 7.121851219361676 3.999097523037984 11.003217863817344 0.23318620121282418 0.06263824365651148 -1.7038088727289238
P 0.4530212156759493 0.33566950407170115 0.5565881011442632 0.7592249091508537 -0.24828500452747565 0.30169453049686745
P 6.3908453720919915 6.9102292348624506 7.830141687893504 -0.9316184045563375 -1.4793919330682972 -0.3523992559405867
P 9.182160318847396 5.681971641764274 0.52699248013033 0.8194095490605502 1.85323804602875 1.066737331881079
P 4.087803871610367 4.194251489897227 6.035599617374924 -1.0122893373448436 -0.5118451900464668 0.9120193993784874
P 6.440249425011936 0.67348293994531 11.189982410206326 1.1505015588829282 0.310103323385853 2.1380406858662857
P 2.384632616873004 1.8452231203720617 8.073880519757115 -0.8435558072894505 -0.6561684095782957 -0.11651005397430257
P 6.085227425622664 8.02820072915507 0.48348845263205553 0.15292073139285275 0.25110344781287725 0.4034775626736406
Ni 2.5966852601621313 3.966882373123729 12.28672617101578 -0.3126032069895713 -0.41763508512094527 0.6367005306616712
Ni 2.22700213762095 6.2363699365833565 0.05318636055300356 -0.12445013475698569 -1.9725984249676545 -0.8912934796850456
Ni 2.5797584972894274 8.950100766123 8.15127177673218 0.5914537430087298 0.17531529703796903 0.7167798526127656
Ni 1.9967307550894102 3.647118221620853 1.446923657456596 1.468818014207193 -0.5557781439839912 -0.9390249814330538
Ni 1.7501317871319884 3.473366124190261 5.682076497817468 0.2220661800402627 0.5682472229852794 0.6473829500761819
Ni 0.5879297626868243 5.8530929757174155 9.160786535861567 -0.8852596147861399 -1.3376141056661415 -2.07213919807747
Ni 8.663581600771105 8.164775738439918 13.26623150220702 1.4162626087079802 -2.079245470104948 0.1614652785287542
Ni 5.176350135975492 0.906978646112557 13.193760053799213 0.7585872755668548 0.779061998481439 -0.057720494639919954
Ni 5.8471948227252675 2.881528601092448 9.222132008053707 0.2509769495373419 0.45766407601837317 0.4303713017406911
Ni 8.319110741734454 2.3913733631497447 11.86543046493426 -2.753133922670826 0.7294669611621308 -1.6727792571166287
Ni 9.094933189596855 3.7429959752598796 13.482141350310059 -0.5451854560698094 0.655127369908291 2.4289813202807586
Ni 4.680493350140379 4.7261899926081155 8.355589413668747 -0.015036839728464426 0.7906713005855932 -1.1675621139096408
Ni 7.117806771595632 0.7089402015757256 9.169816327228116 2.187552419443168 -0.9075248539422434 0.3556146775540908
Ni 9.615955428198466 4.404291271450939 11.2264854237244 -0.011154473954922726 0.7557315512856145 0.039106993303790714
Ni 2.1861831740562434 4.343296879794043 8.083238922504655 -1.5496097888442797 -2.022970963882935 -2.1540609725539417
Ni 4.904726147465672 7.491103683112954 9.569448023747999 0.0681915693745729 -0.27157559962430006 0.8137400094795987
Ni 0.8716889669242994 6.766557717691813 2.3401455638760384 -0.05580733677760712 1.0685360756527147 -3.975092351943161
Ni 2.5912926631407385 4.753387031405241 3.60938970298108 -1.4269280588416264 -0.45844234894529434 -1.1825966396452599
Ni -0.27924103180253756 3.1248882659779924 9.334464672326066 1.8775956489375083 0.08079537418151246 1.4231055997717428
Ni 6.8459580915432525 0.6849553156224181 2.1111502420632764 -1.8420318929002857 0.06316120603951703 0.3514574608526076
Ni 6.571853133917687 2.4244966413818383 4.015940962796989 0.5718596229268861 0.32286190860310204 0.09292095380045287
Ni 4.5279184305958795 8.974067863995854 2.0284010280129627 -0.3639162554412506 -0.6596825933791413 -1.117148180233463
Ni 4.912749507964515 6.066615476180775 13.245691886572937 -0.8919833066632187 0.003361974493697436 0.8126367491130908
Ni 0.09498834961640101 4.270637252219346 2.369797357775611 -1.5878307799986913 0.6007007155282945 0.9669798147747669
P 3.189945829696144 8.660716783603489 10.493007033271818 -0.968771616567867 1.034031871228258 -0.20143667671536922
P 5.800355998249528 1.2461767436171798 7.673590664260489 -0.4688141790979216 -0.443007759557779 -0.9731242371096079
P 9.460356534977041 4.078441724003783 7.160502845755457 -0.009467830281119178 0.630861555382391 1.024826550579906
P 7.006996392524103 2.586695848665906 0.775273826012655 -0.6829389928039206 0.5168452143642196 -0.38301003884790813
P 9.021805454641827 6.545723379947711 10.889788892060254 -0.4034598220618277 1.0285664772383125 1.9651422257999254
P 3.734467058790282 5.152008552198374 1.3395089293219762 -1.0634584040194912 1.8829764536334475 1.6742877233413553
P 0.6636133639384493 7.857856453453275 7.786663874408528 0.28201479267975305 -2.914620798466135 -2.7564434466600334
P 0.7550515871824336 5.758348041938786 3.967722157764039 -0.30123301747941666 -1.4187702056211824 4.059559518549305
