# total energy = -340861.3774944615 ev
CRYSTAL
PRIMVEC
9.36858305987441 0.00000000000000 0.00000000000000
0.00000000000000 9.36858305987441 0.00000000000000
0.00000000000000 0.00000000000000 13.71186829901441
PRIMCOORD
 96 1
Ni 2.267721709852887 5.152598820260022 7.2506161451911675 0.4470132811727463 -1.2939297774043135 0.6683911768967328
Ni 5.278699946506097 2.052965683334405 5.731821765386504 -0.2173518052837289 -0.06311132663818808 0.7867791646200385
Ni 9.104688686625208 1.0899034638159992 4.702402809828846 -0.6399097816275883 -1.2181303137754955 0.6705300776166064
Ni 1.6775009852241571 7.381094273382425 8.104345128192714 -0.21966528390825393 0.45358939172836715 0.27065977267825003
Ni 1.6242405912636122 4.283222430047764 12.726135966195084 -0.6114898357239985 -0.4978702159236135 0.438383116301574
Ni 6.975378420989223 4.140182905863138 3.547795228002556 0.6872509899157132 -0.6388384029402804 1.5110671526843913
Ni 6.011107654272767 0.648189768370202 1.4235524288737411 -0.8897698439516676 1.209903040769697 -0.41807140132741544
Ni 5.283262446393307 2.2603673722523547 3.3190266119947536 0.9273511446395512 -0.27833143029089485 1.2371184248422242
Ni 4.521418651058644 8.648813441221492 8.638449914783648 -0.9919501115668594 -0.2629274370309988 -0.6730034788577636
Ni 7.4439762020127125 2.1214312873913377 11.984816862344813 0.8617180800207739 -1.0116830712194125 -0.055455352754827075
Ni 8.283841555993533 4.98387064167965 12.638434787665012 -1.9073980770109213 -1.7932662934608081 1.7963405615107577
Ni 3.995316508007041 3.4631060488846783 6.954659799838168 -0.3224937266304059 0.8474163186861213 0.3521370034181355
Ni 7.908386226466216 4.088646331161826 7.79734978157257 0.8220451869111843 0.10799841695886563 -0.1712645240073631
Ni 3.195811009291308 2.3286362360677444 8.733911090555146 -0.08773606716540373 -0.4205651142835467 1.5149302351842233
Ni 3.268895324733034 0.3803785198573553 11.308753686039445 0.3262359672816575 0.41404556799747405 -1.6050461154357132
Ni 4.163463834445715 6.989468769716867 12.792761580564445 -0.3989416224765 -2.9260789197044055 -0.5197001673145114
Ni 1.2355661912211975 8.338254285654545 3.8698458873921973 0.5952916286975812 1.092530638795099 0.16931228537699874
Ni 3.7579821966257776 4.733692003100513 0.20839850614176705 1.1189042436926213 0.2521401166075077 0.029293092537162457
Ni 0.8229747358152163 1.039275641658957 8.308363821814417 0.2922948344495224 -0.3856053103789101 -0.0722809089525981
Ni 3.0488835231904767 5.461818268467893 9.559846298576437 -0.11068650531399002 -0.06161571592926808 -0.05870676981258922
Ni 0.27990796279285646 5.441891292574476 9.414513345290397 1.527042445066725 -1.1339302847878086 -2.0864317034407427
Ni 0.593891335420945 3.2025095460866977 4.284135866883499 -0.23028728239847435 0.9209588679599623 -0.27016277843717346
Ni 5.130844970695135 5.479618576036061 2.97281531408535 -1.7284798931130425 -0.613452101656692 -0.1443864686695965
Ni 7.397264447520667 4.238028385990479 10.430096777576122 -1.5439430774768055 1.362628368322292 -0.636512325910265
P 7.765861974342775 2.124316810933967 2.8099734161602834 -0.3191158112971085 -0.34708170038241515 0.14221877159431637
P 4.380074840384459 4.0415036218549725 4.852465960636555 -0.3923197462846082 -4.298349696212468 -2.127808466615316
P 1.9381630681026518 6.2251516684885235 11.991467619367256 2.672346261798798 0.9682465973023324 -0.6411048303769539
P 4.7938383055150595 7.9676612506682165 10.865503542993027 1.0088000932446628 0.0486666119677678 -0.21004164477556084
P 9.09377428751104 3.4878765821532234 11.6236326951957 2.3023256932320217 -1.789972453200885 0.028624348604911993
P 9.19100144116496 5.090457009681255 1.0721790417695691 -0.5131757359324324 -0.6958377031434596 1.229506416822921
P 7.829840027175942 6.458663598034096 9.559311352491099 -1.3315077356580876 -0.5032273664704688 1.7410723850660725
P 1.4216449853890678 3.5945191616524115 8.715619869241413 0.949316850277365 0.2609093781597055 -0.5159694966274855
Ni 3.9793899170249967 4.501088826099211 11.60614998258888 -1.6685667616971778 1.7001453078344075 -0.2024612613251416
Ni 6.034529111599304 2.4818031984003652 8.438681747237561 1.5685135677273179 -4.59022286974354 -1.4837589517877416
Ni 3.7268129212156227 0.2883574877379779 2.5259451505945427 -0.32304754225134685 0.03923709112375178 -0.22994738256055236
Ni 4.828661328268156 2.6516837126812027 10.722927763663469 0.26378052905991345 -0.9907167533803906 -0.7179679593835957
Ni 5.437947119160687 7.69677804381242 1.4496326900359864 -1.2554712163177992 -0.7417151824018645 0.5542215981301486
Ni 8.991169567254948 5.575178121928332 3.362342255174451 0.865305026041084 -0.27789717096695365 0.527989146796181
Ni 4.091166479970162 2.914491201050808 1.5705164524480018 -0.30535141052316445 -1.0170656756875645 -0.6541400662943573
Ni 0.884626569506713 7.098341071953541 1.8834074483063807 0.29737353452401044 1.4712752174984336 -0.1294838405261512
Ni 6.515502790674136 6.419802716037905 11.912281545862822 -0.6546766555241176 -0.3059666755096601 -0.8570085903602467
Ni 2.4904316632794616 3.5447626177079163 3.099650000374892 0.7013671176021211 0.583146251584299 0.25564453021634037
Ni 8.82324708680661 6.817152423874069 13.684376176079102 -0.09329504931041997 3.297646521043327 0.3075936695901219
Ni 3.294874405199629 0.7556342985682505 7.073746668044091 -0.0564871364534511 -0.5060080145393996 -1.3001821860719287
Ni 5.90294736433882 3.666216926820406 12.591457902276032 0.032696718902072715 0.6263004183742698 1.3323022065349248
Ni 3.5130031215731323 2.419530227660569 13.05527489543003 -0.23756864655123602 -0.1322313213643013 -1.2228495736280358
Ni 1.720184249056038 8.437327050145795 12.714658515246787 -0.12679909460513647 -2.4200331099485353 0.72225527390504
Ni 6.164265248022457 4.281077024556653 6.248868236177374 0.21358591048339343 -0.5030952117679788 -0.023456945471359604
Ni 0.6740283200928375 0.42469941198550765 11.229621950316007 -0.9915245939936667 0.78595024096084 -1.9355166896240086
Ni 1.545282174324391 7.664522012782314 10.197968587729399 1.1237250621200325 0.1150175285891761 2.8399279376379347
Ni 8.17926943332201 6.968417563871776 7.546724261587642 0.5393752771459357 -2.303500944487046 -2.8118404353730995
Ni 6.771265104679919 8.234768918602974 13.354618920370738 -0.3984330582711977 1.0726588395718364 0.6134384748099371
Ni 6.638887027870331 8.240183959536868 9.068385427769075 2.1798092851626394 1.7725154340667022 0.4305649058087359
Ni 8.454209236586763 2.8372003918732362 0.8603713082993513 1.1931343059517903 0.10322722082246738 -0.25088850358859366
Ni 7.943209249219311 8.340156107989458 11.389406879630815 0.6857335248299222 0.7546000087843328 -1.0825192773056842
Ni 4.071885936298957 9.029730654597358 13.339714441786423 1.452916512485588 2.0534071688856055 0.4432718118524431
P 4.0696374763956085 0.1513447729526162 4.6296613845223815 0.01012911801420191 1.418559375161957 1.1749890025013314
P 3.83086040324303 6.591435155326768 7.48722813882848 1.0729475744568489 0.6025020304030914 0.3604252115688567
P 2.8653810893285256 8.084796643049692 1.1139722902230416 -0.4149804211069176 -1.8065848649465852 1.5188830491843843
P 8.977051112778511 9.159579214015679 13.209849018918828 0.9590227647112194 -0.45794175515979196 -2.4231829684314263
P 6.069295922854816 0.3285196659032304 7.322206171655461 -3.462615698960281 0.5071063898099007 0.38488257328027264
P 1.815781269280031 5.542706613490821 4.494544870922176 -0.6987111680365128 -0.3993010626984478 -0.713167709781475
P 8.143378392114826 0.8430450510274723 9.799021536503567 -0.29542412410712343 -1.9371087167014769 0.01476430279336812
P 5.380808131866868 1.2648430128793686 12.930799218322417 1.613219138164809 1.2290022234929932 -0.49464708100062554
Ni 2.1402059275842897 2.7066491887351196 10.90831234583618 -0.39359372790102537 0.09089569584030797 -0.2429445661511687
Ni 2.2304160126231793 0.702579076573886 0.5653996010123593 -0.2471562902396711 0.34303324134465435 1.0424972283867917
Ni 1.9788695609361728 5.199244994671552 1.480607098921185 -0.6291553713245617 -0.9728414157618664 0.40545551233561783
Ni 1.5954696730836944 2.614012640717201 6.620666070928579 -1.7641925160233036 1.0044924670082442 1.2563610751219203
Ni 9.045319976593902 2.73012685755924 9.648027148552556 0.37793339565594913 0.129247556145629 -0.28220119765894625
Ni 0.32062382420930824 5.115433651774273 6.1707792237341135 -1.2653236836318467 -0.1860833341877505 -1.2242107156416207
Ni 6.148732137523497 0.5261424279582043 10.787414530549768 -1.3179089139277302 -0.1428497203100959 0.26692190290237255
Ni 0.9120146848460721 1.048662961755433 2.6536164513397886 0.33508621858343585 1.0185453455568847 -0.7490009174300004
Ni 7.977704371569835 9.443531594059682 6.951999122285873 3.588856607069103 -0.4553529113866932 -0.3220103592360841
Ni 9.01482523915475 8.27417317840914 8.95608516103809 1.366163120948428 2.5681623334900157 2.4165009284255605
Ni 6.364031541851956 0.2586525218398777 5.138782971012244 0.9963664954670003 -1.6081417236419016 -0.9977985999278364
Ni 9.341142351210994 6.460050148307827 11.38565007787564 -0.9136659338429748 0.6181199394460064 0.4111358505498468
Ni 6.417226355731987 3.611476296756824 1.3734492473608133 -1.341306209805748 0.5646039698057372 -0.18528372110459057
Ni 8.771804197934603 7.521782283251467 4.93080136681089 -2.073340417474423 -0.6454487091679465 -0.06305244837579463
Ni 6.056657704481417 7.193319765704113 6.671015646172582 -0.7012984691477148 0.9315826662223957 0.034009781286541425
Ni 2.1915832363757812 7.203709524174165 6.073671987941705 1.120136830548142 -0.3103275235815172 -4.259293096530639
Ni 5.202523998697268 7.934262252520575 3.871573454084603 0.3312524466596424 -1.0648491137194305 0.006753259563433531
Ni 0.7145736732999521 1.906562837877688 13.009353849337328 -0.9567607081499199 0.49719221601998237 -0.575206685022248
Ni 3.079059728809987 6.913892411215597 3.269279436633189 -0.2989794455585496 -0.17089737047593148 -0.5731215203584452
Ni 2.8839121463652813 2.051288706989825 4.948407744712394 1.199133975178651 -0.4622601800294878 -1.456099281088944
Ni 8.249234010647843 0.19782324972968912 1.3022077321815395 0.03991971901307318 0.17483810029123437 2.661097685468172
Ni 7.083182704771806 6.056020640842135 1.9759353207623045 1.1073350507977833 0.3433435734962216 -1.034300294398296
Ni 5.509822887404363 6.348076845121119 9.081274724165015 -1.2956534449636394 -1.8043490336375312 0.5568145556683056
Ni 4.701539026482644 5.8838448237432965 5.317216064650441 -0.9969871597701345 3.4661769339489785 0.5094864600063032
P 7.266694507216688 8.106306909458382 3.105381699411842 0.066660220331711 -0.19148085105423795 -0.450187822245986
P 5.446912853025284 4.1849085207738925 8.939260122952998 -2.0454308355483484 3.4226594702823188 1.3649279629897462
P 5.752975088785539 5.539708666953024 0.11511458904334278 0.3984981071811782 0.6036482281923927 0.2324081853962191
P 1.815781269280031 2.744938587172542 0.9808213053216792 0.4285967263387715 1.4305240037230007 1.2045788003433062
P 2.5797611015228736 9.340374127410684 9.096110812093936 -1.0678832725600642 0.7044385574385933 0.5820969843841781
P 0.7298622637844223 8.754968854408288 6.031988351908521 -0.2127474737424981 1.5580936579455746 0.9813075442513487
P 7.56526187663245 5.760179529059182 5.75337606413497 0.47581220768230953 0.3602133526683667 -0.631487361891848
P 8.617269422494113 2.8750307297470585 5.857010391655137 -0.18176490931805472 0.7369357587353501 1.7852922741163961
