# total energy = -340863.63966129365 ev
CRYSTAL
PRIMVEC
9.33433684488837 0.00000000000000 0.00000000000000
0.00000000000000 9.33433684488837 0.00000000000000
0.00000000000000 0.00000000000000 13.66174550172384
PRIMCOORD
 96 1
Ni 4.974706740401627 4.564593323220771 12.951033730499331 -0.9671813892626117 -0.09706428654486508 -0.7931948383383952
Ni 0.7511359409875037 1.4587047988689 13.61597827328116 0.03649835203635005 -0.0032138789516073683 -0.40567199922179814
Ni 8.514081861027147 7.900601250198272 9.889901483748943 -0.20103095663651832 -0.1968932803190609 -0.4227924609521686
Ni 5.981414953323955 2.846235280412508 5.597312598786857 -0.7522968145724528 0.6719593538639653 -0.9003324499588623
Ni 6.663129565418126 3.915670235948076 11.348319718481202 0.991815385761208 1.3199732526559267 -0.36895304653420974
Ni 6.7630349711010895 8.008067468606939 5.279089192366049 -0.30195241214394447 -1.3841729272622871 0.8504193671785032
Ni 6.1886932340486025 1.395791369521691 1.5478346462672323 0.5612551079381625 3.113081680382632 -0.3353019341386677
Ni 8.206207433703854 8.660882974282867 12.237029780898059 0.09928829077937738 0.8440648857153851 0.16462824963776806
Ni 6.999884430486265 8.859302969480733 2.371091406321246 -0.4898501738326144 -1.2266398939084036 1.2322065893629037
Ni 0.9565828248519249 3.849013737584809 0.9908193049943126 -0.1684100852777035 -0.21806914306572764 -0.07028650423038862
Ni 2.883413943482231 5.020118288439338 0.4824414585220706 -0.16198181315385654 -0.9891095567942707 -0.7398161656069387
Ni 2.0340266412747194 9.046465754620332 7.031713585194136 1.810528680085682 0.5066142806648306 -1.4619264292936824
Ni 4.015547638620945 3.6286487168090065 2.2312770440842766 0.9365055574453097 -1.4690496706020246 -2.922294512961309
Ni 3.897822984180737 0.24112271872570212 11.365847735933457 -1.2038941155714558 -1.4381545236850652 -0.06446321268039222
Ni 3.9275435122284397 0.02255175746333188 5.388314933242365 -0.4818242182043444 -0.2555949079253275 0.746782826732759
Ni 4.763610715967336 9.033901737424285 1.2813598690686785 -1.2993476059857751 -1.279672753264667 -0.47475728405523404
Ni 4.103859798124497 0.5852694450253033 7.705142106601138 0.7940736413989228 -1.986411419591347 2.6275514740816104
Ni 6.56335484044894 6.389008099596245 3.1373788426375904 0.3268566315847919 -0.29638700224102504 -0.4091959532146565
Ni 6.064677236673674 8.762636578632113 10.530240714993791 0.4766429311137211 -1.0158855393365342 0.47117496602061437
Ni 6.2615850693264 0.9792465943556375 6.967011696935514 -0.3938312978331282 -1.7074729518440723 -1.7211957007468033
Ni 7.202066163373587 1.454074967866494 11.366995859347359 1.0943363245452702 -0.3278529340597902 0.511147392648494
Ni 8.25035884628728 4.2214911091977205 5.174645432180324 -0.4534135282721353 1.1782823285406223 0.11833425166723491
Ni 2.3345082739328804 1.94592917151523 1.7495636638246812 0.3529849532407276 -0.5489621495034223 0.894453365470266
Ni 0.798306078059193 6.548055862600264 12.347198289780913 -1.8813646290616375 0.19413114419289146 -0.7053209600435466
P 0.744580436324218 6.022570043827196 0.8989582306780288 -0.5388528289835623 0.5932668849580686 -0.08197345365001367
P 8.404244721097086 0.26267196842762597 0.946280517437902 -0.23356903847353966 0.46749006096985934 0.1523967405685827
P 2.74244679066301 0.11820070561182597 0.5004184575695172 -1.1337261391968023 0.4479838726161317 -0.2592499881794116
P 1.561653198315542 3.7721174718633987 12.54375048420543 0.9063069223747423 0.7391996150688624 0.09083707468823066
P 8.335235969885822 6.508356928621973 4.639460304143951 -1.3599245962378836 -1.2919477139772781 -0.5360400421251156
P 4.479286820134104 7.809003404176884 6.988638421632034 1.6853393531698266 0.530524511623525 0.05465034035502846
P 8.360457347644896 5.8656598439271095 11.030507022875124 0.0030518994524463567 -0.3219846482044713 0.2718905597615575
P 0.7858998111533508 2.729994785507346 7.658678578817517 -0.9950547186341121 -0.7380960975920384 -1.4003323106309689
Ni 9.458390033120677 8.229179236318615 7.154519852532952 -3.0599585753054077 -0.3534703775175783 0.806250643081089
Ni 0.5459569525863264 7.97279301022369 4.7455982464404345 0.956840669458236 0.7129692206174237 -0.5178523154724952
Ni 7.77211410554481 6.306837933640239 7.08573232510144 0.844628471528339 0.42803828273214023 -0.20129140938675655
Ni 8.20955846057858 2.7752103124743903 1.5133937441511496 0.29045006793129974 -0.6118155944945334 -2.6471263108897443
Ni 9.220271103944519 0.3802818105264433 3.176546652857742 0.41491382953504025 1.230845704459635 -0.3195084187498368
Ni 5.058267722525695 8.264519035058752 3.713439964509923 -0.977639094260826 -0.45889306332946767 -1.2229400764593132
Ni 5.024412083320602 2.276635386402807 11.182330009274583 -0.9743642801642961 0.3741428182652653 -0.007986360639586246
Ni 6.247910266063245 4.7668217277915845 1.083802366581744 0.7083252940875091 0.6379403166060432 0.5423256180235112
Ni 4.384001911116847 1.3539175350926733 3.5579009786708315 1.4746580179277378 -0.3341932744555212 -1.319633867038637
Ni 8.611812366259384 5.0212477431798455 2.3836880936957345 0.10443563930827175 -0.11510417476571146 0.5659427432218189
Ni 8.099441290547567 4.750785337343736 13.214050135951128 1.4398429671310815 -1.6184166232053483 -0.909527229084253
Ni 8.850043307475921 1.926812449956909 9.59707587405081 0.4203062041952052 0.23537652399592365 -1.703660005855885
Ni 2.637043460664689 5.5076320255233195 9.098763242840452 2.556611652537939 0.9681095575038359 -0.56665262480465
Ni 1.736382646972872 8.292830078264997 2.428088733069009 1.3621830532547572 0.8838573351219745 0.04752349950226009
Ni 2.791545401696588 2.6912012821888 4.342672268517346 -1.3658350481850479 0.14265714468331558 -0.07540017130787015
Ni 6.298595714335551 6.048043448677127 9.32515171108773 1.4822805674700021 1.8399138181160184 0.6687321051759193
Ni 1.3479995656258885 5.062122803582135 10.704168344128728 -3.5136870637148 0.47060803777355076 1.7817459515260348
Ni 4.561503657773601 4.4326151366421085 4.169537124568102 0.27238986799547926 0.2717100683196353 1.2388978853401502
Ni 8.097201049739951 4.364241120326336 9.179381108603513 1.3816612165840267 -0.06047800278039906 1.0757390211590572
Ni 1.658067562073305 0.6593280723904006 9.067505349538523 -0.2961252639392062 0.6619222813429374 1.0390450081721332
Ni 5.18545739437808 4.135157829074229 9.54092610507526 0.47148015596585896 0.5223059803684746 2.1998062971098564
Ni 2.5833990276589898 7.224263216042379 13.488104394548781 2.5104960891267987 1.280072302695931 0.11849468850449915
Ni 4.703544259313139 5.386939052013021 7.645304341196052 -0.3932623127035356 0.5385748927318273 -1.3909331288042561
Ni 6.405053824380792 8.252225713626961 8.280643168271567 0.06644836143122104 0.19158318096005716 -1.1660842438125336
P 7.181222589526062 2.7468432632479556 13.117816858325314 -0.4037009915383563 0.8150453585545835 1.021725543057079
P 0.23302798194085056 0.9870874371822926 11.445099988237542 -0.3843624391107445 -1.31510101216529 -0.13745400321582135
P 3.9546504260005904 3.7800423237203393 6.195710788378459 -0.1454334218768721 0.34496491114972844 -0.7967887263372406
P 5.738778205185772 9.637795984463905 12.533449110225078 0.06624601561242784 0.14771733281504237 0.6434093101404146
P 5.691966506643302 6.971265354168974 0.9974345494124679 1.0500891818014366 0.178176420635848 0.33441490354802406
P 6.414518841792969 0.7485120589415837 4.505329619522636 -1.7749705804754141 0.17714515115785623 -0.6156619648238171
P 2.6754915935253942 6.933759989314807 3.759042866449951 0.40663693423822866 -0.6441744704412131 1.2736982808487871
P 6.862949711120753 4.454196123088807 7.511268866809062 -1.583671506414679 -0.6218066442689743 -1.1655265715368508
Ni 2.2164475833715302 2.0143311908410975 11.494992951324154 -0.6788123722300567 -1.1440280353434424 0.39946792729361524
Ni 4.999172036888132 7.437468800570509 12.58147053880366 -0.21449428123027572 0.8714268226681056 0.6243687485691957
Ni 7.855283045527546 2.5212603482577483 6.934018550441352 2.2560013562441856 0.9207909749235303 1.4752195468581626
Ni 4.455848300684424 2.8154599723178864 8.135309412744835 -0.47578469687848385 -0.47857048715373707 -2.3429295827963137
Ni 9.023979337513888 3.119824689042581 11.453816391846509 0.7749739444549943 1.4846102440444433 1.5795572271359892
Ni 2.3873499539825165 4.788990777450283 3.330228105693852 -1.796127159948371 0.9068975047708896 -0.010495243104369022
Ni 4.083025558613671 7.651066427239973 9.219273263351461 0.6682577366426621 -0.025333850779098305 -0.12130850380421043
Ni 1.6131880712274027 7.546913898359238 9.097478838110751 0.964368602404165 2.322766220474561 1.7687770500701925
Ni 0.8695550700780722 5.849194073991134 5.76555748373981 -1.6614651176553903 -0.6427001998885319 -0.5977789138958092
Ni 4.0223430357373795 6.148611592265677 2.1174746779247364 0.5457480134414988 0.7492973656244966 0.7675270012586459
Ni 2.6823523309987176 6.835217396789809 6.594373774731389 0.41723579279999756 -0.20244634892680619 0.0623785622372216
Ni 8.223363944555512 0.40743819628309536 5.4944258059624245 1.0416112262374126 0.33333015512427755 0.8174524253341792
Ni 2.1004497812205263 4.4887705062196765 7.254113491370189 0.20715275326354002 -1.229975643149856 -1.3856052888334394
Ni 4.528609455248443 2.0769925930974495 -0.09135421983356073 -0.46408566327400075 -0.4742268654730607 0.19721261133169263
Ni 7.696916689102509 2.412011271539687 3.586645135099881 -0.08794175541830661 -0.7088811665909791 2.512679727041679
Ni 2.706724284118237 1.9287633263268746 6.6276814883722865 -1.974403853607509 1.5585927090691802 -0.6109943841448187
Ni 8.817569150102193 7.459889877320064 2.2449527807811007 0.10211881824963703 -1.3315789552156552 1.2225140446654879
Ni 7.873662354486694 6.826769822077758 0.01671406329215317 -1.0651435050313978 1.3791060542623412 1.4012705061745223
Ni 6.244839269289472 1.4767107343601116 9.177523575600532 0.12773394771458 0.11175994088382687 0.2003051342140873
Ni 3.3130267900260426 4.010087051652381 10.944014125594089 2.0536786773794375 0.6388767123773835 1.5673959091831071
Ni 0.6084568708177962 8.226052233524651 0.3643368965782382 -0.06268863727847268 1.2625618046159932 -0.8145640480427908
Ni 1.7792925927754122 3.2772016057775875 9.408447598049564 -0.13403057935656917 -1.6329158452627877 -0.5147129985125651
Ni 0.3202536246527094 2.2114443789011884 5.276179679617158 1.6470803096886277 0.5195561855374794 -0.46563989513499804
Ni 5.993586928378668 5.629202426683268 5.410283294662047 1.087222339208308 0.38523224331020756 1.309472610234919
P 0.8062383973854923 3.1258546705497467 3.1013529701501192 -0.696200228689201 -0.3409398491507354 0.572261229240679
P 2.9713713981912444 7.556537599495287 11.096151679140286 -0.9943476652647586 -0.7215001409065703 0.7896081494284014
P 1.8787592846335515 0.4819224694016397 4.454699243836851 0.28643580456558415 0.7092449776883012 0.5191100991389963
P 3.4925447534096516 1.654212481016866 9.667980429045517 0.4979332079510651 0.16192859131841789 0.13073879597917484
P 5.270745228791351 5.875516903480619 11.230815354387078 -0.2708932288452947 -1.6383483291322687 -1.1972701824970349
P 0.5435720295598854 6.251167949570986 8.048762376310949 -1.0407337087284658 -2.3582423018939838 -1.725629311038125
P 8.199225349853451 0.4797120984714588 8.283006622323601 -1.3690311865248421 -1.7650818606067926 -1.650515560622422
P 6.1539695015305576 3.6816677492559124 2.859662723753155 -0.15726049641878723 -0.35536888009187184 0.8130275567936064
