# total energy = -340868.70183353825 ev
CRYSTAL
PRIMVEC
9.25914176983756 0.00000000000000 0.00000000000000

0.00000000000000 9.25914176983756 0.00000000000000

0.00000000000000 0.00000000000000 13.55168990854664

PRIMCOORD
 96 1
Ni 1.9690120321337155 7.812604489774703 7.455394211249325 0.3166241552235063 0.9996505655349106 0.2650699372952984
Ni 1.6761824175060496 8.934164320921518 0.6090070809041369 0.05394123010314582 -0.5653081949616136 -1.4246971126285788
Ni 2.516505079402857 9.125967440728388 11.79754555082579 0.7674025598656397 -0.8880778009612253 -1.2462183302609635
Ni 5.066583806520883 7.520728566739608 13.45861704911751 1.5920389045427679 -0.3773548974446598 -1.0550830354716023
Ni 6.220708038940242 4.164391559948743 10.217093399102177 0.7322427241350551 0.9131655971677886 -0.31034989217902037
Ni 7.009735055955076 7.82883576513176 5.562087699196561 -1.5395788869708387 -0.2796126109961636 0.42194245424704757
Ni 3.976532834495612 2.35257197603908 4.57355951198589 -1.6947346783417974 -0.8550964609391984 0.1249422439020558
Ni 2.6152630845131677 1.7599035765354354 13.228780153050408 -0.10268831759986184 1.806764585057559 0.03269723312270498
Ni 7.679198776514872 6.10544098422261 0.5528985341792673 0.5554667833911594 0.4558509340690343 -0.2643824243099705
Ni 2.0357889618970346 3.2819212851453035 8.598953763016999 -1.127085751062149 1.1351960388741096 1.3095114338926543
Ni 0.4288464058399724 0.044949429177621764 2.3761800095689654 0.5840309681820973 0.31179356660408236 2.8964418135642633
Ni 8.667584372943743 2.340359168169166 5.0251019259007155 -1.6144450401521098 -1.9281497077359762 0.06974194458082827
Ni 0.9199836873015099 5.893110347321275 8.71555228230756 0.2567717018422481 -0.6261983455787667 -0.775829093366438
Ni 8.833656338034547 3.778952010283263 8.075072452934414 1.0210007490759125 0.1833142560830456 2.2446818174663083
Ni 8.730120615819706 5.1613511215690755 10.494157473199062 -1.6989677425865388 -0.11808999686691275 -0.13621138905797187
Ni 5.419792284014134 6.259448287710309 8.759351726089092 -0.08349477539054652 -0.6004736871191529 0.2275907094029177
Ni 5.852462715366066 7.13418717921475 3.108690151711043 -1.023021379050367 -0.3263439536144315 0.6188095093138632
Ni 1.1287541842286362 7.586551804910357 10.251405926323047 1.811028759650552 -0.7808322030079843 -1.3451160704701415
Ni 6.930949019438703 5.07179670328416 2.904222377920497 -0.7516684369598344 1.8565971923089706 0.7127383355535403
Ni 7.813632254500678 0.2668216115755045 3.9650477951613885 -1.2229845565440036 0.8156320842959889 -0.47271942768959885
Ni 6.552472344313159 8.54026191576468 8.22774551410668 -1.0764676717949655 -0.005978071960305834 -4.372686716363146
Ni 1.2844466515012662 2.655781088484921 2.133646052522324 0.9000200609247662 -0.4029617993794867 -0.2116185023443775
Ni 8.920960784892332 7.5033861943814975 7.213686169640133 -1.4352214091986701 0.2971845584416559 0.036444101759646914
Ni 4.794013193879094 1.0302091393768609 8.66069557153721 1.1046009396960719 -0.8045488298986339 -0.23082310029728637
P 3.3642350546400217 6.328604816884218 7.9074653221538185 -0.9777409099460128 -0.9756428897664037 1.1004213543970853
P 5.852518270216118 2.0394926185672126 10.308906122041735 -1.01417704128586 -0.39665822575896204 0.6830644626381913
P 7.377267425620243 3.104692054335586 6.837721499651137 -0.9581719866751498 -1.337991543610218 -0.7691372831685592
P 5.61044727025325 5.392598184913348 0.8705009823595896 -1.1579086499802769 0.8281806103849608 -0.07007593088147931
P 3.7745168814207237 0.08039805308206804 0.08811647358272011 1.4190358005777433 -0.1970496033912671 0.45023924430921164
P 3.4419099941553406 2.696484275290183 6.641913801069635 -0.16266392682254566 0.08755223328937178 0.7018751675867912
P 5.278914443422218 -0.05161508526977558 6.39508267637142 0.6735665504500851 0.02171630863116905 0.14583554241129723
P 6.2678555883516145 1.4629073481538188 2.799724630885577 -0.4416149929753104 -0.5785380633883261 0.29343331892933977
Ni 3.911311440533768 3.8587102566755576 0.617245865166949 0.056975903164411555 0.8497814764841881 -0.986227093040153
Ni 3.1964223709142323 7.0769101288104395 4.23524158613509 2.9959237084116856 -0.15575382996627368 1.5139583581892573
Ni 0.5529272375184612 4.972483149673322 2.048174915716279 1.424517392517605 1.234126946314068 0.3249522154732275
Ni 7.674356245418615 0.6864375790792244 6.598588425341887 0.6186007357371669 0.08560925063038805 -0.04340227824503493
Ni 0.2676966004638342 5.2992845551081995 6.5288383851865825 1.3904934701636762 0.5900509491239322 -1.2968788327303085
Ni 3.9161724899133774 5.632826615682803 2.2478047879814045 0.85168872080923 2.0279473340516043 0.28387729980978854
Ni 1.8966796173651286 7.291842584522576 2.436308875609314 -3.03349832423135 -1.1647655250011102 -0.32142131950183356
Ni 3.882098848547735 8.023092557482626 1.796520704119323 0.2948494825505761 0.9762442707958284 0.7677887395604648
Ni 8.062749461278562 4.450869403387053 5.004029045361567 -1.4974171660011244 1.5996223733169805 -0.35423605203900926
Ni 8.384708335617182 8.500067981751567 0.7868501928069372 -0.2387107305754792 -0.3565258765144505 -1.6848009641678532
Ni 9.127124833437819 7.707828042575352 4.547662618633833 -0.35411443885948046 0.5909315519566727 -0.053995994600481205
Ni 6.94185628833238 3.7286841301272644 1.0677012558490782 0.3355297338787576 -1.353207075008392 -2.2765447276131763
Ni 3.1887095058985855 9.30265964132093 5.481794274415425 -0.7757097941797544 -0.033218909954129884 2.2484986201092374
Ni 5.431662503642056 3.058646342783591 12.316399146978606 0.12047032417363124 0.5323127138721994 -0.5513864426741988
Ni 5.173554670297314 0.420581695980469 11.973473872230107 0.17455502183317678 0.4929313838610995 -0.44318208035211415
Ni 1.2684005589777176 2.7169747558179456 6.496801754989538 -0.49590743577028784 -0.20391856259695848 -0.4646819020971029
Ni 0.3576065697890882 1.3747418011202188 8.554057110946927 0.10361262918634415 -0.3997330080295438 0.19719255672703456
Ni 1.0976249499157855 5.7140570656014935 11.931083669811578 1.6547933620621693 0.4373968411289048 0.7081561154994965
Ni 6.12097782395401 2.3240815971037314 5.326979573773627 0.4195713829117097 -1.4011715187028126 -1.0342815253452189
Ni 2.89868541119858 6.3160031250639355 0.12132438520170839 0.22224949969566238 0.046656780626590615 -0.9219847381213154
Ni 1.3492976797960923 1.267243166268287 4.506397401928871 0.5482975193362299 -0.9994119671615432 -0.6216796317728068
Ni 3.5292237001548 1.3455199499925103 2.408500895415446 0.38606322385193514 2.4380501153512464 -1.2793282254410547
Ni 0.8538058240045923 1.387232383240396 11.455243416312046 -0.42930095149464775 0.9526790818813786 -0.34801835326407166
Ni 2.7295579293548773 4.818512882752325 6.360566448033691 -0.344508026117968 0.5858726493765264 0.09771426142403816
P 8.506216051824063 3.756313408886797 2.9606244394364785 -0.34781575033496226 -2.8860422154974943 0.5571652541395049
P 0.01556739489892792 3.1221455363938015 10.231458031497466 0.6643692002215332 -1.251585508110148 -1.3377321193012446
P 7.5224692853745925 6.355752620276626 8.987304386825238 1.3612695403015522 0.4776163507705839 -0.19296103514419025
P 7.235667371977642 8.301783462771883 12.357650474971054 -0.8676300746298349 0.4749776275961562 0.5403389266107856
P 3.1605894926302547 3.8200163036138677 2.701840688749429 -2.443947454672288 -2.3559985001651294 1.237837562396436
P 7.905695900179641 7.470469945725286 2.63107399483816 0.35110444838856303 0.5881804715740967 0.5187424313869324
P 2.7499558184658857 9.128041488463689 3.3765524908108677 -2.169953475414482 -2.4317794518511864 1.688294064922776
P 0.3529473696980037 1.7881161812205206 13.79697571519168 1.318192763716736 -0.12435397549875359 -1.7304760976074651
Ni 8.25524701671109 1.8335693077052866 1.8123621696118444 -0.7851642547244349 -0.39895267822009356 1.8075618841478742
Ni 7.0429661154282535 1.223762236960391 13.451569916388328 0.6935332233799991 -0.23284732981616674 -0.4658489258220106
Ni 2.9959712127824947 5.56680893553687 9.901067782749184 0.40570696622479163 -0.859658369278268 0.9378708132239526
Ni 5.053593230750232 1.9025962088957389 0.8389050873062965 0.864723185395685 -1.3271921390018693 -0.7860127187676591
Ni 4.3195192195791705 4.6837182982411765 4.502480785000158 -0.5294047961967849 0.753402903152438 0.509138332638265
Ni 7.808780464262743 0.8214719753597662 11.205756769781312 -0.9672124996108632 0.44197649007978723 -0.5276147941758977
Ni 5.274831161943346 3.3632998813308013 2.771875910468337 0.2180382898277922 -0.4424225764782703 -0.1058165788161984
Ni 4.970890577305145 9.080755051927184 4.144065892142803 1.7074958346622076 1.0004920875995995 -0.9494993986018165
Ni 6.099894758359017 8.7807681207844 1.6285608000408942 0.8942160526484794 2.0578009270779267 0.055555368667801086
Ni 8.248543398138068 8.498919848183812 9.60738910482988 3.7218626018158996 -0.36991181090305325 -0.5564689994034288
Ni 7.059734421002487 5.232035409119433 6.992739901409795 0.3586408659749243 2.302013818418558 0.7438921354485254
Ni 4.758124760745064 6.480399185511485 6.380366196592465 -0.16266624081539083 1.331914484178203 0.17210861717521328
Ni 3.9316722930780745 7.975593160687585 9.547842638800917 -0.913318320695569 0.6114224728211729 -0.14782711892002928
Ni 8.386115725151848 2.9989063606936113 12.207402383003588 -0.18664486311817532 0.8056225225787867 0.7409862746556399
Ni 6.2631704626638385 8.24363605305008 10.2655946350265 -2.6488702901640444 -1.2052709413143243 3.933068699213207
Ni 1.0566347297185845 3.665092345100299 4.288622389722374 1.8628655418161852 2.3469225060057903 -0.35830122324731845
Ni 4.256788534728022 3.3198837660146334 8.980583175883034 1.1430191344629541 0.8471003301075991 -0.2816813205997342
Ni 7.424146459923028 1.8003752847988115 8.792079088255123 -1.2858737398690565 0.264463414059551 0.2630073983393148
Ni 2.578448737211593 1.0320424494285991 7.813755401084962 1.1323572838737337 0.899354145205993 -2.608553849933185
Ni 0.17949123912102982 8.050805168517236 12.088079824232112 -1.4823433023871375 0.3352975632632935 2.042524974755463
Ni 5.134027394484834 3.9718477088078363 6.8124208950229805 0.019452709407972953 0.16642802185066824 -0.21219905743819586
Ni 5.139119922406329 5.911730481230598 11.801353835796899 -0.46701646376755057 -1.3044808134472825 -0.6667217596141097
Ni 1.6183683368845627 3.952866468373171 0.015614616521472696 -0.5320787434845223 0.190077285838492 -0.6715081252591596
Ni 3.278625030708845 2.0076782077703794 10.64057042868456 -0.06503785423693961 0.01137944548153524 0.5484720972408812
P 1.3601308755563646 6.336975080958821 4.655005699905618 -0.012771954953687681 -2.9587609833184594 0.31837121982160005
P 3.260199338774706 7.155853570735295 11.454823051279979 -0.09433428920821173 -1.105294880439303 0.9336894281527532
P 7.162455338749888 4.905169189692827 12.242514900065215 0.06435676900951498 -0.6266338904542885 -0.4180996834621896
P 0.7981102349984476 6.423288799657332 0.5755121358932098 -0.46565455042301745 1.3982463746362177 -1.6052734009551708
P 1.9031887939629675 0.059885350614284245 9.35647932822363 -0.5246037752637159 -0.8565604470792345 3.3911598570121404
P 6.018960600973942 5.953822539287176 4.878649156106013 2.3067695879359884 -1.4974367063851501 -1.0103574104294537
P 0.7076558281426772 0.034689374287059684 6.233722688479249 -0.1536817779285934 0.8009919657853108 0.0901611316671286
P 3.2330978310906753 4.100373854404707 11.797925175634482 -0.11611076165335488 -0.9106973381329542 0.4923863099909068
