# total energy = -340891.8896133395 ev
CRYSTAL
PRIMVEC
9.03495482367063 0.00000000000000 0.00000000000000
0.00000000000000 9.03495482367063 0.00000000000000
0.00000000000000 0.00000000000000 13.22356965166820
PRIMCOORD
 96 1
Ni 6.255450266042964 2.1207749150345916 11.446718393597669 1.25400543040555 -0.042045507106824365 -0.49460362935719976
Ni 4.631489439654572 0.30746492916787876 6.032209184521116 -0.6261731487677861 0.4785522323212919 -0.1724382326004901
Ni 2.3806653867722054 1.6615010631368652 4.730004778633628 1.064355976133096 -0.9853719441287093 0.8903246880138731
Ni 3.296159275881502 4.145553436458471 4.7376212454396365 0.96000364056725 0.5927436654647469 -0.5416285919564866
Ni 4.928621994635795 4.663952031865704 2.5351432351182983 -1.4193240212421234 0.19853672945975484 0.3187805394448768
Ni 7.032772593035684 5.882857769467701 2.5917002445041186 0.9356959170598207 0.9684327451712095 -0.28383359105604666
Ni 5.287345835757652 4.76295706538911 11.564950714202764 -0.9010343611218934 -1.8107186846093006 -0.7282773117294039
Ni 5.869296302473849 7.572267807650541 12.350509305893416 -2.0339840271639873 1.5147916527238299 0.11801877730934514
Ni 1.7346299864201693 6.297209826632961 0.4911058042713044 1.177867866711023 1.2850998378175094 -0.23733081950881704
Ni 2.775682640894931 1.5507054137393905 0.3700997525755272 0.2493142171229384 -0.6043385693911979 -0.0394126974696676
Ni 0.6863060004086637 -0.3738989510238382 4.595719150530414 -0.4687838400806184 1.126541448522905 -0.024238560832390517
Ni 8.238695100744167 2.219292061004588 1.407979330962187 1.2453392700901198 0.382124036698529 0.7121323265384252
Ni 6.703918312128136 0.8151679452098071 4.683669013491742 1.2892909930807215 -0.9823802084902372 0.6955584813401441
Ni 1.0444949722127084 7.397576958665777 2.6143391304778 0.8529801859271439 1.5426174166868465 -1.1287579965582497
Ni 7.692577264339506 4.038922901174365 3.9012970503212316 0.08566478645867183 -0.8178972261810817 -0.88552392419112
Ni 7.507189028998498 3.7597247312582955 12.90080851932989 0.5467422590339681 0.559656653102791 -0.8945844917314916
Ni 8.203485882306431 9.010180847005355 6.487893448919404 -0.6454055146348369 0.1834698078243034 0.18940751346497703
Ni 6.675286540706737 0.6019077781370639 0.45468409491379813 0.6517918777771549 -0.526751417734338 -0.795531456891372
Ni 1.659947050929708 6.552835799755586 9.29716082339831 0.47105438128235005 0.20427080373005463 -0.7377302296121875
Ni 0.21058220650180526 4.667114266008174 1.4888150705984267 -0.7522939863589754 -1.3006915216081791 -0.47088366003244064
Ni 6.442473828183364 1.8892722709416707 6.7755980286787185 -0.3942172204176372 0.786180097583459 1.2579335618153624
Ni 3.517777679540529 4.243320681188967 0.4044651062449583 -0.6449887388123924 0.6456104315567914 0.05131793354768581
Ni 5.646051606970123 5.509144938510535 4.726500119708302 1.3691533139250034 -0.11225436402174216 1.0166455574310105
Ni 5.222872399070024 3.1031907135532575 9.16068060480022 0.8374219264775706 -0.9241542349688083 0.5858952750843458
P 0.18755662446727342 5.432447208123585 12.622849041702201 -1.1895890118026933 0.01296735879394541 -1.3063659462851374
P 4.025858356688615 6.094076940275347 12.57066856436956 -0.8912032339640845 1.2336872876734881 0.6839581780970543
P 2.332102505298551 8.504358908530463 1.25395684433261 0.6327045221284007 -0.3604596643512179 -0.32622002644205755
P 6.344272905627616 7.81887689598978 5.869704682425962 -0.20765874636568107 0.3487503463340897 -0.18503663809079102
P 4.837043693869848 0.8199420152694683 12.434624734083132 -1.1233288551228784 0.31896437332090877 0.9714293659056882
P 3.8600217633027682 6.145458727613146 8.028584518877324 0.28780363144738824 1.7404062122369832 2.6185418143838324
P 4.754346753566898 0.8736250055675172 3.645976458667223 -0.9967560175959349 0.8568327269040147 1.6789110810459795
P 0.2444226293035863 5.693331524877403 3.275147585247989 -1.1035922959258995 -1.5507241049543807 2.968213644090927
Ni 1.4163375675484715 0.868710893710118 2.6408793098878203 0.14850383327207972 1.6581805333668476 -0.36816423208432725
Ni 1.8159626485645113 6.486239148715157 4.750011782305305 0.884801701313115 0.06403666666593488 0.005562067468809776
Ni 5.913070657960334 5.640160816510435 9.376938569840025 0.47135365769032367 0.16287424306113885 -0.5325911643445667
Ni 8.634923038795725 2.1926479796156007 9.818090109614989 0.012736216619745808 0.7606256461531222 1.9050321478819061
Ni 2.4274122423526125 5.27010714220384 6.817332291395575 -1.089957221640968 0.2950405155154596 0.6554081343735035
Ni 0.60446286332418 9.03218999663695 8.884480232851212 -0.6501075480961965 -0.39859709465288773 0.3232138926258821
Ni 1.462867584216252 1.2487933677256902 11.382372349771208 -0.8418179986627373 0.7255907660361762 0.8464863506726842
Ni 3.9634629595803252 6.8911948529999325 1.6407938504764987 0.46427129692224556 -0.5553922213994822 -0.6015622921976413
Ni 5.803088154485209 7.777984691050289 8.054674757543644 -1.81463576027552 -0.4803908281919275 -0.8126606603724907
Ni 5.392928316297396 2.915597949267213 4.767573023741647 -0.2956256985949683 0.0694102722730224 -0.05785753443841649
Ni 0.7381052026532695 7.399907976976512 6.861313547344524 0.03732367615112282 -1.0324511570046992 0.4890086517679255
Ni 5.307963602366559 4.873924378925747 7.2035133598287695 0.030343131068231614 -1.2798786986278863 -0.8320503777530122
Ni 8.139039550482881 6.959959893166627 9.223267542947998 -0.23500859913354363 1.6378122541231406 0.5034909045445006
Ni 4.847713975362013 0.3797165583505147 10.293517557007924 -0.6417517199323335 -0.31552860816648237 -0.43165685332133397
Ni 7.948971208611017 7.049893832178489 4.607660650147852 0.2561338111479331 -0.14315311048312765 -0.01304166367530657
Ni 7.355004252153432 6.120856545984726 6.875859824399889 -0.19610677986202354 -0.10348150292511857 -0.08235680513136139
Ni 2.4372061332395787 5.2362531669700205 2.6024382881564794 -0.6687719572749192 -1.2116434204995714 -0.24609108219995038
Ni 2.2787420628830337 5.467557042059701 11.395886835000658 -0.41227304947808346 -1.2189564092212168 0.4122887332073674
Ni 1.0701452085854906 3.4391374338946332 3.8384056342003086 -0.37916521118052116 -0.023193921617960054 -1.1629045605329715
Ni 3.8468216944966267 2.6101622709233308 2.7551832321924987 -1.1305312864085886 -0.36401472869232787 -0.553420442385092
Ni 1.3003558541573452 3.4806078759344614 8.346333936971986 -0.8887516870997983 0.6563558429987535 -0.15353471082776785
Ni 3.7848780451229755 2.7965082114617728 7.308891650392457 -0.38156225065778804 1.2194809142661192 -1.6238377942209197
Ni 4.079092309738433 6.951548350347656 6.075648343188498 0.15381161863823833 0.785908331979311 -0.7653711312579077
Ni 0.760187535417876 7.38973461799245 11.502944723641733 0.16511084570114146 -0.459391343122125 0.31896488754154095
P 0.1020913740464571 5.611682639318814 8.005178565250226 1.447402010425262 -1.4716459705742913 -0.33177103816727377
P 8.407133761081532 1.6866453420468523 7.820670334496295 1.4949998148088834 0.7235783635918377 -1.1559515262539057
P 1.6466747024860247 3.383852546129556 10.574862432158996 1.081959548147472 -0.43900583748723754 -0.12021681340192844
P 3.897164462044757 6.186224443186938 3.8335791614034296 -0.6781654826746772 0.8881487634084769 0.15019407649030905
P 6.883822329970629 3.8861418173195745 10.355231718532378 0.9408694908409604 0.3217553058024846 0.05996918146478059
P 6.317655929102706 7.8630036147092826 10.215762736921919 1.075718709444083 -1.273444255856452 0.08162584050260781
P 2.262388794889115 8.65139376120065 6.003209690443723 1.8288724727001922 -0.5574925555719367 -1.1953284853896318
P 6.639661714353134 3.823773525075363 1.7950864822513901 1.6048795079508618 -0.6970389225404124 -0.7756786838315028
Ni 5.1930028388557155 2.6618693166300704 0.4512571365988294 0.40546888207205656 -0.07685130193209991 0.3616004628238805
Ni 1.583475194410078 1.2507810577581 7.119583148210254 -0.49383769772545266 1.4299182518182019 0.09605281456121523
Ni 7.079673042845869 0.48400071590090776 8.82960191804731 -1.026687772158361 -0.12555879444013213 1.408420744066058
Ni 2.9819235516668585 1.7714654967026044 9.436722865042105 -1.1950865445821546 -0.24791733677541175 -0.1279872013759667
Ni 6.272616679959233 1.7344221824622355 2.6117081516712646 0.9849659669395424 1.305931686961196 -1.4026537596752942
Ni 4.080375273304807 6.87962107603849 10.28356013344102 -0.3768751295947638 0.7434010547447197 0.16375536011451153
Ni 7.99551026023349 7.278541430588494 0.28768650984992955 1.1334507740482287 -0.8084414800848205 -0.33548139713932545
Ni 7.5561946232520985 3.9098495384334107 8.205727454565707 0.41337605273427525 -0.08830299541246728 -0.6678684716240433
Ni 3.1193271426345497 8.266116188236733 12.349769343104077 0.3386986185250425 -0.2621311663819485 0.06696798138011692
Ni -0.11021379831525997 4.843223602879705 10.295488080626416 1.1061142910168047 -0.9482326160742508 -0.31980178162053957
Ni 8.685121247068771 2.646509893652356 5.76741996034908 0.6535435703609389 -1.499945845960249 0.14123840995891804
Ni 3.744410483054046 2.7547125110530053 11.544625680125902 -0.49857109864537996 0.10485267224103233 -0.11888472485406623
Ni 1.0962110528741407 3.129193313159058 12.89857417503437 -0.7105621538378278 1.0273007231520115 -1.2707659376933405
Ni 3.0628135010312554 8.448089210703872 8.128343067622108 0.46101345210658023 -0.37673140492804796 0.2026191270592446
Ni 5.7045439036511345 7.887786495431558 3.5864171338369943 -0.36860800448996517 -0.7895027341987887 0.42496092935839713
Ni 3.318195530377175 8.427399164457423 3.7228313972658267 -1.5546080133898195 -0.9602052150550947 0.5025545087731602
Ni 3.417453542631978 4.531047848335014 9.351748212661104 -0.5244608219279484 -0.14746433626397182 0.415549149126194
Ni 7.287007183135622 6.069980716109722 11.412178665302665 1.098710799463882 -0.3263424109525347 0.3354338317308417
Ni 0.4068476237974425 0.17117805860021465 0.5012872947145902 -0.10764643293608558 -0.07320367787718361 -0.8671508210005712
Ni 4.438421492824706 0.15403152158427014 1.4711354712556086 0.6181855025766192 0.4533700766287095 -0.00324267530701377
Ni 5.98027265096518 5.527422651854014 0.40878020060622666 -0.2600210620174812 0.47067025847005384 0.8950228648204908
Ni 8.130094945337037 8.87494564516393 11.229878577475647 -1.0594914489519431 1.0195812430205666 -0.24956027169547346
Ni 9.249173468538585 4.988523744248879 5.7186646343404695 -0.3022699433843633 0.06927066137136458 0.2315617782355238
Ni 7.994913953223767 8.495188429517299 2.509040347515408 -0.20103044241588605 1.180556726397096 0.5093193383008197
P 8.54980473063511 1.4494777813615625 3.595171101438822 -0.2716802435229643 0.2363553429694252 0.28037751418664614
P 1.961045951021059 3.137758450207807 1.6312728152212546 0.15250575534262123 0.016241915780159124 1.4136881631125846
P 4.636919447424928 1.1286826800399665 8.172298122202449 1.784797593868165 -1.172870927717064 -0.00761380779151592
P 8.393003091942036 1.7068113609211213 12.38774687165968 -0.22030831680889157 -0.54281515606542 0.21129788578016515
P 6.272011337994817 7.657187346807915 1.4870035621825255 -0.9555273499634511 -0.18426864957651493 -0.5565317343205641
P 2.0123193189025455 3.3194875288982413 6.178818490825272 -1.8260884821971517 -1.4903885412891171 -0.8085618077127688
P 6.982782188720571 3.9808823522279915 5.928945976851005 -0.8652980840625485 0.5403420119345791 0.35026061233102906
P 2.1614051062879915 8.669174552036026 10.298449738774707 1.3601117725480252 -1.3831645406024309 -0.7144455480526342
