# total energy = -381167.7780425663 ev
CRYSTAL
PRIMVEC
9.25489180898059 0.00000000000000 0.00000000000000
0.00000000000000 9.25489180898059 0.00000000000000
0.00000000000000 0.00000000000000 13.54546966124117
PRIMCOORD
 96 1
Ni 2.422810373596194 9.005176361300684 10.108455721087653 0.5058439781577094 -0.11206821615286505 -0.5866864035270735
Ni 1.3843559783063801 2.9741705557557103 12.831094975076386 -1.0238796132856045 -4.8356192398693105 -0.08001401593079768
Ni 3.781696889522331 2.5208566978899065 13.399611875753523 0.08233752185765175 -0.01310568414402259 0.3676237861998249
Ni 3.4022740882131632 3.804686040885894 2.3105050374241243 -1.25526527095458 0.6186411020567991 -0.37669823769726735
Ni 8.030728798068196 1.560717197462599 8.09110215958392 0.5767565460078712 0.08452475931695766 0.49866905767582514
Ni 2.5946366957443034 4.256408057352933 11.302177586021676 0.2828424307873709 0.738434968988696 1.078694504242955
Ni 3.8830379553158134 8.837690583431765 12.592302106456271 0.30239849854242756 1.270972911497824 0.7670215223771372
Ni 3.764149614568501 4.808175454753993 5.546748216767707 0.46122248279359274 -0.14953870229449728 -1.781550804796093
Ni 5.02277788704799 0.4506493745012428 10.151435438854316 -1.8350498051554978 -1.2321862776479298 -1.3824623723290836
Ni 8.30497900835662 2.249549543210826 0.5070560893686507 -0.09281116769546596 -0.939332999591776 0.3369091307247875
Ni 8.05521724191199 0.07365690779274767 4.64253325134225 1.266090129484226 -1.564452253173751 -1.1914533187049414
Ni 0.5723928493852941 3.0110142802236424 10.73963379254665 0.6720591126666232 0.5941991669643508 -2.164884545532007
Ni 0.777467370516333 6.381035070328104 7.626194698693506 -1.2092502376770464 0.4016232830737212 1.5062969849892573
Ni 6.290253836139222 6.676081022610863 1.3701515702899567 -0.26525814204670445 0.7658005054858424 0.5974796374878355
Ni 0.8688483216973087 7.826491844649878 3.3535739217919867 1.0293483497096594 1.5407680221829336 1.2673772237267655
Ni 7.1356326775857815 6.571213843021279 3.5407994584947784 1.4937404884804855 0.5944930440556858 1.7493739629532323
Ni 1.5483619168384624 3.8577165712052226 4.029966767400212 -0.0006474037760117882 -0.3130922308108479 0.5027316577809728
Ni 0.10537342217395895 5.79399728007417 4.575619457753807 -0.5564458594749772 0.4135868831935007 0.638727588394029
Ni 9.260259690560954 8.893617894901173 9.619098686899227 0.12605296046773132 -0.2672785149108429 0.19699792421772525
Ni 7.697395358188391 3.9285257487747143 9.743486284385762 -0.3922338714390213 0.4030003659269059 -0.02870456702354411
Ni 5.344135496869642 4.631869764948894 0.8595193907091964 -0.08553366019744625 -2.151326090121282 -0.6251128258240719
Ni 8.743253666960834 0.15291487613510402 2.3736400586688706 0.2605607365710351 0.3917098806147512 -1.0995155547533644
Ni 5.754950891345157 0.9268033799717713 7.9703980090549935 0.4283432155670687 0.23073593990011876 -0.7395495422091134
Ni 3.6365894401546592 6.054818642283477 1.3985289196905024 -1.8568519886322536 -0.3379406573130954 0.3856557040008713
P 6.256760382522179 2.7634829427156538 13.513745978555802 -0.264115543801829 0.6927616353212972 1.3559985217106003
Ni 8.16545225877648 8.215400910108665 7.633400557490475 -0.24808497270152757 0.6266881407309917 -1.2531513099353708
P 7.6844847840530575 6.915912290096918 5.874792485953357 0.21221474116747968 0.6419651214947202 -1.2178845163132768
Ni 4.303015692726081 3.792525112990676 7.476408901493998 -0.13541357574702484 -0.8673140860513129 0.6570094174223523
P 2.2285872131631335 0.17261298795563806 2.4441984286691385 0.23297717052581166 -1.7054574640759403 0.7776828587457252
P 8.82249405100867 4.961806659518542 0.671378545202115 0.306106286411318 0.15761736553757372 -0.12408452388745081
P 7.686169174370355 3.56668724198679 4.130731253431234 0.3407979242562324 -0.6694556136055051 -0.23804815729081588
Ni 2.09096697130477 2.039750399788685 1.6381352933045221 -0.029164794489414288 -0.43554384708056604 -1.2146672949275596
Ni 3.306300859694587 2.3753883077399562 4.5770817306666265 0.3787659188595735 0.7028239046533057 0.29480603090715035
Ni 8.699700145899271 6.984685391458686 1.6854490769260766 -0.6327834549954521 -0.13376601284127287 -0.8404851387839266
Ni 7.34781958310607 4.4824310261938844 2.1678436559732757 -0.004003207622122138 -0.34319213552002187 0.42221062030676965
Ni 9.293762399069848 0.9048609568768154 11.69475251414355 0.7117566883665614 -0.04657553376669398 -0.25516167704265086
Ni 5.103397249981965 5.626715109826024 3.1895383676059743 -0.8252827200118754 -0.08345080952648853 -0.0859478649167294
Ni 3.497960415084288 1.5342296969784945 8.541325809059913 0.4719365267769872 -0.36833932420961074 -0.03818576704110198
Ni 5.348263178636207 2.7271760019752125 9.619531815837961 -0.5141044183942888 1.824219033088581 -0.3836425302255844
Ni 6.91279339154236 8.022843630209195 9.768356029773912 -0.017171626683280105 0.3120383356250368 -1.9597043426138054
Ni 2.5370249939575973 6.763132535382872 5.804179512091156 0.5319507025470903 0.6632338010655093 -0.7883449664452616
Ni 6.215187408317218 8.93385816467926 5.921944308967479 1.6671662818052253 -0.12414854435616683 -0.33301468076638774
Ni 7.033847376983341 1.7359215551371574 2.7006959054045905 0.5259140094347071 0.8774429469551985 0.9031159262412705
Ni 6.3399063309321 5.916985537912488 10.607606281835228 -0.3347100661909397 -0.8017316721648128 1.1946106333870006
Ni 4.3358798136971 8.182018515193862 1.5065677507182076 -0.41884761737180765 1.378859999689806 -0.28665769076840303
Ni 1.4640313422713198 0.9781772846493622 4.524214086443915 -0.9570309310921711 0.14148729274493052 -0.6330223104791357
Ni 5.55189856408406 1.823306244015884 11.808670052476462 -0.6652356619868866 0.41970867982052235 0.9239490609365377
Ni 8.386024096315847 5.0168455013700335 6.571042627521993 -1.6173015357642986 1.5022382415388515 -0.21270839297444658
Ni 6.76751935412133 9.240084026320789 11.470154798648005 2.21422890029309 -0.2945682038647314 3.108685865307782
Ni 1.0227303340310812 8.334529878044162 5.916024880138117 -1.3542226607571 0.8629239274034171 0.7938885219713102
Ni 1.2758423713266014 5.789878853199458 2.6083561474276147 1.4733143594156497 -1.3538051136037073 -1.206716158401283
Ni 5.253974340434929 1.2313541061878552 4.285136167154718 -0.03338551743898121 0.18016902558584455 0.8395394870412057
Ni 7.016873905324415 1.8344768984828004 5.569152458966141 -0.6154472777098497 1.864734476704124 0.9619867324355497
Ni 4.148940253152575 5.109412929686601 9.934721965728581 2.3117721833569025 -0.7432110502211007 -1.0693498298032613
Ni 4.303302594373533 7.5294560906186625 10.8108557382928 -0.06714718727045856 -0.7944713910579737 -1.3365604675906464
Ni 3.571305433021579 8.95483900451066 4.910584535067345 -1.5845215131198 0.6477801855146005 -1.779573369354748
P 7.167543544695913 1.7757823743492602 10.171333456338878 0.7150117049687492 -0.9673312845769149 -0.34486798056054796
Ni 1.7430755865397474 4.646205592429634 0.403111622496839 0.7597697259107303 0.8676161906727639 4.032570905775604
P 5.194252523305674 6.88085475975667 8.973805979874784 -1.0550303278567958 -0.15866894673053963 1.4375572564206984
Ni 7.852137149975334 2.9613525305389095 11.860210545207414 -0.8938674110598088 0.3967006489611233 0.8796715791754012
P 4.273501842605952 1.7548570638689804 6.50766327713232 0.054847543967499086 -0.029528091366103987 -0.9312175695734929
P -0.014644940868639841 5.527326826213586 10.033576242081088 -0.2005146791217321 0.49614706258491975 -1.1908128569074654
P 2.4967754692876563 6.03280125456451 12.747885167912676 1.9101815532933293 1.3178173826551884 -0.7829219956574774
Ni 3.239721167702047 6.009571476012762 7.810304113309296 1.5689884504812075 -0.10971719942218523 -0.004678122201959685
Ni 5.868887864950961 6.813247774768415 7.103122093483559 -0.01571458252177939 -1.3350211481279848 -2.5796160838529123
Ni 7.399082429081423 6.110061091755741 8.589291137067939 2.203264430861786 -1.5675833426035648 -0.1019126157761019
Ni 7.15238403184023 5.741559062833451 12.824809978018818 0.5203298304787103 -0.429613340528744 0.435171808453128
Ni 5.155872486790097 4.144932884980102 11.96250579035097 0.10414536176136256 0.6210983053480399 -0.23459028064920243
Ni 2.0203336366804905 2.3752217196865977 6.861349149686684 -0.420533746824979 -0.1647256944475808 -0.8331526096782554
Ni 8.66449453728937 7.277001150644725 11.417638840315718 -2.608926402781255 -0.35981148924425777 -0.6025670793130719
Ni 1.4738878020950694 7.574240512296714 11.841720196773732 1.7758820365460901 1.7261090788880207 0.12376544998513524
Ni 4.371501892440398 8.493186489085046 6.891434026634161 -3.2755489178133397 0.0311532856743528 2.9146053718471676
Ni 6.233160408296299 0.5524874279872465 0.8771305244168145 -0.050593396676835455 -0.2658440964571615 -1.277571390650948
Ni 6.281896668795703 4.431816022648263 5.472017741519978 -0.8518134193125524 0.8470519933681669 -0.6861816681109343
Ni 1.7469071117670079 7.7273071686582115 0.8596045357142466 0.7205899703874751 -0.09463947915345636 0.4012957245309734
Ni 2.237962418610512 6.168986988185614 9.87192474803648 -2.7315960485990507 1.6327494948882526 0.7358008737999586
Ni 1.5210229663038553 4.69855126075182 6.351647086737179 0.32980825801394814 -1.3477031144710274 -0.5179926977051015
Ni 3.2470788067254097 2.0802127869712512 10.876375745168136 -0.4727022012984181 -0.33820522382839174 0.378031097576078
Ni 0.047534050047662466 3.692285379327735 8.037055442139101 0.2882463754117616 -0.7008079026645414 1.7894003827474987
Ni 5.299712015973869 3.399803032088336 3.289286666511506 1.6263253365294634 -0.9435614358508266 0.9617676744462081
Ni 0.37527660975889593 4.996123798510526 12.066413237655366 -1.0342275321788317 0.7007423395339287 0.09894299162481669
Ni 4.696940909569348 6.677561805307389 12.922310263693186 0.4734421647882363 -1.4777292006538938 0.12510782294564263
Ni 5.9599652556791485 8.729482387883145 3.134556906083972 0.8777789901383786 -0.5895025328196299 -0.357036754712598
Ni 9.18570228179088 8.793072749807072 13.498412473733278 -1.1021100549534182 0.04710518101791887 0.4368846773791767
Ni 0.4529010896891473 3.327587110957145 1.9989863031317012 -1.8063766055905213 1.6571945153044942 1.1024414701509078
Ni 6.605271845041371 3.6488521718602636 7.613962508131017 0.6962457372151557 -0.36465339071759134 0.5205586586600647
Ni 2.128412263743165 3.9278501416694245 8.86751447242898 1.1779449998058615 -0.06573796562775776 0.30478833893084284
Ni 5.113318494048687 7.220592584798948 4.848696147755236 -0.4428455229483018 -1.0930209481679565 0.04616030060614631
P 2.276435004044622 0.899350594267369 12.55073098322968 -1.4139810117626552 0.686606671463495 -0.2805569771873039
Ni 1.3286785489170112 1.5903143416094077 9.080300169452176 -1.2534446728060735 0.14976778758616785 -0.25966007913363665
P 9.134818886381513 0.9381591322757533 6.323174411950545 0.5969795579229654 -0.9618633194838079 0.0263185832898708
Ni 8.990174181606505 2.9853967395737464 5.9005830930809084 1.346734579910171 0.20318631241662427 -1.8868374792507505
P 3.115464989679829 6.3937327819508125 3.828030580096623 0.252268671765572 -0.5910889034701432 -1.0021735890670804
P 2.0821100398011754 7.987212296574044 7.94794008848381 0.7126365198683533 1.0978147700121739 0.7049841455294181
P 6.501524507366035 7.898254276080259 13.213957819687419 0.5534255845914146 0.673364204631292 -0.6367722644398711
Ni 4.221989114550562 1.3378038722843515 2.1412275124924105 0.38968128022049664 -0.06007871045945137 0.24179502592775778
