# total energy = -340873.7519686911 ev
CRYSTAL
PRIMVEC
9.24331979207254 0.00000000000000 0.00000000000000
0.00000000000000 9.24331979207254 0.00000000000000
0.00000000000000 0.00000000000000 13.52853284478373
PRIMCOORD
 96 1
Ni 0.7752113508416275 0.702271389919761 10.531611201396013 -0.4221854234957891 0.470288449650603 0.43037978638112334
Ni 5.354174511040204 1.0518713072938588 8.646950979856387 -0.745016993081588 1.7084476570525158 -0.33194458763066054
Ni 8.805020067528417 9.271049765512052 5.460372860956377 -0.10693192336756424 -0.41837504861076336 -0.533281762653688
Ni 9.247756599600697 6.148758011531443 12.345732876499394 -0.6346624171857198 0.1384878437969744 1.0425108552335467
Ni 4.2907398106689225 1.553607949688435 13.505115085121892 -0.8641511149422989 0.20115899757395034 0.8274391042332458
Ni 0.8031187820001858 2.906783752701532 11.480867793862522 1.0782389047627752 1.5671400844185592 -0.27054253037409537
Ni 1.0619557692023074 1.6899099435490936 6.335236442627502 1.466564956506958 0.48486866145762303 0.6564679430965855
Ni 5.760261280081322 6.7521711717930515 1.794438025576305 -1.114772738022751 -0.6080173037943658 -0.45604942323308556
Ni 0.9849311852581278 4.1373376751669895 5.278793389357548 1.4762469596814125 -0.7169253770516943 -2.470741177826364
Ni 5.363140531252116 5.945284812639902 8.711496157730359 -0.7852192763320864 -0.24155308512028073 0.0670649119692974
Ni 2.4708133307273137 0.9402674639550828 1.9871251945861164 0.22941542131648232 -1.2629207306173087 -0.8785150969734548
Ni 3.6305449368384806 5.58965732642025 2.9577292341447987 0.1444062661639384 -0.5123820363865434 0.29069200873877676
Ni 6.147232863763438 0.21416402257927022 5.826888053575627 -0.35624099828418 -0.5595890330896492 0.6752449665937725
Ni 7.815901658398128 1.716253404996461 7.090195679773978 -0.28273650133712597 -0.6110843727554637 -0.5387810952053624
Ni 7.226908077034027 2.71412523798312 2.5750613401644005 2.186872105546692 1.5165250904751688 1.220984238284523
Ni 2.177994202590069 2.1844090665354985 4.110035681455731 0.39162426287948043 0.5148302408167198 0.2802453594841561
Ni 7.835257170072088 2.26897619944145 11.508263145103824 -0.10344730725307345 0.5948650826831238 -0.1473470939598172
Ni 7.211453246318238 0.6184363279424517 3.747633766150193 -1.020737725222513 -0.09500329025077832 0.07524204846345106
Ni 1.4897920697471636 3.577414334593054 8.926179654882732 -1.8039134887620094 -0.34094319158484504 -0.19248306706650722
Ni 6.911849521443321 5.244391601703229 11.73163258987798 -0.30594353558120857 -0.059503811792587846 0.9149928801845144
Ni 5.1525130028306565 3.6225124919269853 3.7032602850890592 -0.5374641761661518 1.724118016599921 -0.3512767123003692
Ni 4.4541801914802726 1.1785972218354046 3.6957112658034226 0.17703305106002415 -0.4827572715415751 0.02993098323147748
Ni 1.5509828468635043 8.178794393985369 6.451906549551998 -0.13485924590545162 -0.40115277119520587 0.44938640939061314
Ni 4.61109478850852 2.0040164371997724 6.182174461294434 0.028171577338209547 1.8942278581775507 -0.17432259410739653
P 2.624233952868858 0.24016085953390898 5.050904885530191 0.8262533114552609 2.0413787769661615 1.1373200271956476
P 7.557014757269053 6.571103780111479 9.173048391599924 0.6358158140638727 0.15199230604131242 -0.29111675498102124
P 6.269355605041549 3.018785058791971 7.756111244232411 -0.5484258173839781 0.26766623726756483 -0.96781773729503
P 7.342246221574465 7.654596484461986 5.345596710260149 0.8784420776436742 0.9035602128675406 1.8922054284308827
P 3.6260989000117494 5.20607804110697 0.8060258060792023 0.5102709035808115 0.12429458301572786 -0.45858350250884894
P 3.289900872024507 8.770376104895176 0.2012298451746032 -1.5611021057545953 0.21313622454048456 1.0754369165376059
P 4.27647736820812 6.45849241491384 6.613437260491409 0.636096321418769 -0.6368046603397033 0.46029585721426536
P 1.0130586074280712 6.439451176113286 3.196522082347406 0.18227604462651834 -1.1448639009811765 -2.1834826202491686
Ni 7.0622475780082725 7.4063209144703075 13.08330912641853 0.4518924636419185 -0.13899769355385738 0.17142650350652414
Ni 2.3311282818176244 6.7634572652762905 12.936348660489465 1.9850700750721038 0.7663748899320736 -0.6129643633869959
Ni 5.185289814863065 3.64841227402366 12.69966698653057 -0.0673176514100518 0.8805457542502384 -0.5140604525302308
Ni 1.3325354698860903 8.467001105539373 3.8198222451718244 -0.7026295292543124 0.09517015484594578 -1.1675258613550665
Ni 8.46738932497123 8.18750160124271 7.614426865248663 0.04359202565833783 -0.5658789798634191 0.2651828087240788
Ni 6.3413148497319884 9.133804953031172 1.6139400223947895 -0.02110592874067978 0.6337327062825989 -1.3046453640496047
Ni 6.067157984283248 8.197549089871934 8.066468647369737 -0.6979668336713206 -0.8244232002250577 -0.27569373555773163
Ni 3.634787620629478 3.6834814293679803 9.330778249435069 1.7644303430657229 -0.07470931588843263 0.06942749866420302
Ni 9.199136737420643 6.571806272416743 5.0717115984137076 -0.6838555910809191 0.7182590082614533 0.9877473863394216
Ni 7.690405105390792 7.449709057640112 3.0578140523412207 0.7089192189177662 0.24182613627600935 0.9579321027502019
Ni 8.614940439035903 8.000740324560585 10.752599566988122 -0.09000789391871596 -0.8674310712451513 -0.5256612699939528
Ni 3.427302820942091 0.38291376628724055 10.873707391751525 -0.8684852235412786 0.26568443095084565 0.5399128948169605
Ni 8.623980405806265 4.982121645525123 10.334526985154444 0.7952941440695852 -0.8826458313123766 -1.327850084300842
Ni 1.82302299207665 5.361615383484111 11.137689210757717 0.4749827698024788 -0.7638415819872586 -1.2331596973047925
Ni 1.9262154143918808 8.899801068820102 8.784225370960648 0.6198592907346163 -0.7574999560399471 0.09277157270678216
Ni 8.877959104118302 2.6383854754919875 0.8532730352680507 0.7081594579336062 -1.5258733644592883 0.6497041420101907
Ni 1.7033682171867661 1.2119656063354032 12.983441526237552 0.46109881273153497 -0.9721109653537451 0.2677359141632357
Ni 5.10584348112969 8.805916669549608 12.687707055033465 1.0198931178340305 -0.8392178420357288 -0.8677928254599442
Ni 6.556850580970484 2.7695389402206523 5.1091720005918635 1.3464533012243263 -2.2480790160733153 0.9422817978074547
Ni 2.8021308858569385 3.3491413086617623 13.139046344849277 -0.8654878314758513 1.069288380437707 0.23814328810778337
Ni 3.225604339453319 7.753768062661566 2.226390376430815 0.9685034505081449 0.5707980144315911 0.14891109601282743
Ni 3.7508837173940157 0.0824753696338329 7.101600087750736 -0.2422423978778215 -0.7668081208147504 0.047761583654995166
Ni 8.55867635137621 6.2397215217432125 1.1881381765392545 -1.001584806443146 -0.29653175534900544 0.2192690769110998
Ni 6.029685565789344 3.671751656534047 9.735362054675717 0.8101664331957272 0.7981462688063996 0.42886309262628075
P 5.294120662260013 8.420396287077049 3.2662481409726936 -0.5625789689559084 -0.8848577513620309 0.5151367163135451
P 1.4517465654252817 7.875890803939677 11.297596794739178 0.1972691756012409 0.221178892339303 -0.4891225516379705
P 0.23917367297861816 0.822507569625448 8.154607399048764 -0.7088479993601986 0.0845602405405834 1.8118535695446925
P 3.180728021794734 4.148780905086934 4.6569268654350555 0.5624786959326185 -0.2653656141588462 -1.5605989408659315
P 2.9673090107918343 2.238944653391451 7.538707438061104 -0.11661649764517981 0.313538317209331 1.0239516041741203
P 8.445769199944776 3.9120317548934542 12.914472495504384 -0.24794073381417941 2.261559309947937 -2.268195327207216
P 8.534754639718042 8.883837855514978 1.623627021551576 0.3784103352923676 0.6243798043127892 -0.33429766124386945
P 3.3446675418756127 2.632682347171628 11.165706637421968 -0.7129759054856432 -0.8309049512946594 0.721841583406389
Ni 3.5926380823136905 3.1921342784354536 2.0193095098189544 -0.7186827260624332 0.548391621711933 -0.520115143364743
Ni 4.073198279032505 7.084413058903285 10.96333339358735 -2.129282994278314 0.42595620339213097 -0.22724823846183445
Ni 0.684330106176133 6.721927029387512 9.154351928628138 -1.3649994396576297 0.4220416988290731 0.007350269717484116
Ni 3.9167550913143683 7.789253167397161 4.907718467077952 0.5558141394282493 1.1005951609707885 0.029349399696394617
Ni 8.922049739593369 8.859823710658747 12.908790626819577 0.5350378261128463 1.024900341240635 0.7062817812949191
Ni 1.1123873220643548 7.675088924472096 1.0904954434356025 -0.2186944353545524 1.3612062911637848 1.2955228329230464
Ni 2.982902491304715 4.387840885231937 6.718593888265435 0.36523317448046133 -0.11385641840153941 1.1613858098955996
Ni 5.561862663763325 4.6261336698330355 6.192306988465874 -0.8749428062411642 -0.7451933707584522 0.501901962790826
Ni 7.462899275003407 0.4886961668121389 9.484921699185449 0.5566757160975961 0.46160789115746953 0.10653005994345523
Ni 7.249646643757018 5.957670861180067 7.07877740681751 0.9762861797773573 0.6920029027784018 -0.5122555381110081
Ni 5.037609294321106 6.266416229343211 12.947076457456419 -0.6636539193220635 -0.7254082177117249 0.8993839700026639
Ni 5.888207312837272 6.531791940976163 4.464943113062488 -1.2530811188190678 -1.734469277927258 -0.42599579838081475
Ni 9.45009287015609 4.325799722693437 2.749700927252814 -1.0377016067703613 0.8001650990086413 0.8993299768362769
Ni 5.458855107844217 1.8972653367591952 11.033952356905907 -0.37011389961153035 -1.6243674414721445 0.721821528801731
Ni 2.23681868983605 6.265547357281438 4.988565163761952 0.8816418155278946 -1.2436228016196453 0.47138682492110434
Ni 6.68475964044721 1.5695157030747224 13.540438431760878 0.24210792918248625 0.6728484413371381 -0.19946952568666937
Ni 1.3798150506942597 5.145913272489106 0.7345684736542333 0.2357529334987359 -1.265080714383105 0.5208373662427481
Ni 6.7560626094314165 4.552640034054783 0.7942978819092305 0.22169054186839884 -0.2486812115246298 -0.028313502232712527
Ni 9.13040341134253 4.032814214799681 7.071350399353314 -2.090488390008619 -0.37111225896905764 2.7844101070762886
Ni 6.33409581696343 7.637607262658386 10.577594868767369 -1.0686656592520434 0.09240596183724731 0.41520744951605915
Ni 8.285416087948661 2.8501591755694022 9.196967330262153 0.7276882719951532 -0.1578845031560313 -0.16446858413145224
Ni 7.931406182695076 4.623148077535666 5.0400957473489445 -1.1920698692430178 0.1374905128807116 -1.3042208749176765
Ni 2.590606755414289 5.752312025048082 8.72648512512792 1.725845026593357 0.5385293842058725 -0.4870006201989613
Ni 0.09835354439674078 1.3033912825374765 3.0596534729826335 0.16215896216166914 0.036529462384601606 -0.474411470680041
P 8.64152422679823 2.2013150984608436 5.038391279176701 -0.1640232690639175 1.190054381474886 -1.2567374846247323
P 6.967632956473096 5.2439201923931185 2.8940640203163666 0.6235084574514295 -1.0640191616189674 0.20698151779299837
P 4.036603975920181 8.343473379650737 9.261606789998147 1.3097595453477184 0.44286249222916635 -1.729312416316667
P 7.078081384836111 0.25756972805670597 11.70311417528024 -0.20095022399725393 -0.8913395024316326 0.15810793202074705
P 1.4735885301270812 2.8327724910141394 1.9799006158256736 -0.20759009791127475 -0.23970883282269043 -0.6387882664286353
P 4.854341992525684 5.184809162233148 10.917742567307755 0.04242191660963662 -1.2645310125272222 -0.3241384613226805
P 5.4747536179106975 2.272618067445051 1.843410982572951 -1.5284483242753162 -1.476196308949135 -1.6075840513662185
P 1.004369886810343 5.824927545444754 7.063747768812802 0.695020606558803 0.7529077086835743 0.11643163532788335
