# total energy = -340872.19542215887 ev
CRYSTAL
PRIMVEC
9.27183860448918 0.00000000000000 0.00000000000000

0.00000000000000 9.27183860448918 0.00000000000000

0.00000000000000 0.00000000000000 13.57027300947848

PRIMCOORD
 96 1
Ni 4.503165189420838 9.058215588505611 4.5394190061304425 0.892182052937586 1.0064223370411054 0.012991270053345367
Ni 4.043884656771983 7.739825020645741 2.6246127745397985 0.010004419510879546 -0.39519886760461614 -0.900961856012745
Ni 3.2057382489823687 5.693910353162876 3.75824619311262 -0.5417579184454993 0.17926014061832998 -0.7184376999311627
Ni 0.2840882122197972 7.754020205777171 7.626425796772483 0.8374900607113447 -0.4612996158884314 -1.0334088929322782
Ni 7.551384169821973 5.037334363680772 4.311058253553982 1.2537871437471568 0.47682599365880457 0.3161554431172039
Ni 4.465206281564486 0.40814726910782 6.9818104792822435 -1.436878485186119 0.5364843287513857 0.5367434959500433
Ni 8.242071254077775 2.5540392466845443 3.299571111534361 0.7699700634824997 1.3168311074825192 0.7490189151521294
Ni 7.472091404803037 2.0201853149422253 7.233634547008017 -0.39659369106961373 0.3355127645978931 1.3448340204533482
Ni 9.16431323936058 8.466848440976053 1.0509128547667592 0.1702311976468423 0.0015647733839585954 0.2388318295343758
Ni 8.116326576904386 6.371728125228981 1.8832689992548854 -0.9382999303415712 0.5286586620593798 -0.3245698924331442
Ni 7.5385148576322765 0.779429707332187 1.661137067952948 -0.29686625587028875 1.194825320500968 -0.27642032931111105
Ni 6.22259987071956 4.435184067681029 10.285113505914842 -0.2683709766440733 -0.12049192144018604 0.05360133026522382
Ni 4.148257745618822 2.497972437742834 3.333415177351962 -1.0998001758733187 -0.7998627372768741 -0.19023772267575623
Ni 3.6043253251515748 0.128153500881517 0.6259436886086754 0.856919630190866 -0.16552067954505043 0.5367638076650175
Ni 7.4630420901797345 7.3100474789101515 12.729499351582497 0.7705840429174148 -0.8075063698650609 1.2759904193170735
Ni 0.7662238273957427 1.3573971934953544 7.745830390606307 -0.02046238161940992 -0.1331018968947127 0.4572555277260448
Ni 8.80528909915206 3.292494844197779 11.072243475331714 0.7715119540483228 0.5916946553749423 -0.5239689698931944
Ni 2.7946341904960943 0.6588077210700434 3.1277583763309114 -0.48522373080419656 -1.4025632568440167 -1.3643944590837793
Ni 3.065510959676195 9.10808880916006 11.48610961458262 -1.4018806289546952 -0.08360224750268827 -0.09414711289807012
Ni 6.382965593798082 7.838625734401797 3.2482894985732718 0.7384395969743862 -0.683919611549635 0.06245158156700212
Ni 4.609809878762256 7.2268790852923015 6.071082263363392 -0.403308384085628 0.875506392054118 -0.15662980481332378
Ni 9.132297580145146 1.7261382207174187 12.955919508307874 1.5625578643645153 -1.312305451698024 0.9661002403832911
Ni 0.0816042344201548 2.6798859140842195 5.846915163455087 -0.18326797622614244 0.05052371978116459 -1.3460234127757593
Ni 3.3297120049538607 3.9336054066392387 5.167044606288982 0.26408263368136453 -1.5761533436607629 -0.5609527462063952
P 8.355957249485586 2.9971960517412652 1.1932133272181888 -0.5706892567678687 0.04589521987021773 -0.7025871060521512
P 6.267762997287292 9.22671271417085 5.914345537972944 -0.13429180343775585 -0.4404042604966608 -0.19953020372127572
P 5.328293935600702 5.762716668551736 4.460549036958661 0.2480762309507792 0.4897157051372792 -0.13479779653989687
P 2.200355685597975 1.2265251894913454 13.183099955811027 -1.5312994205708659 1.4064263393438488 -0.011128505812993737
P 4.428758683424935 0.66630678425378 10.010953578632167 0.21711012158656803 0.5001849800997192 -0.10957810274115967
P 7.48437659115127 0.2401675120450192 12.560604464034736 0.1337546999873632 0.3552722066130075 1.193843416203673
P 5.948440870620762 6.420303288457958 1.3844394384034728 -0.39043872721181144 0.5715379779214091 0.15718696286837444
P 5.015044863317637 0.875719607153826 2.2389868017639474 0.819235485376531 -1.4273124387642386 0.668049734396914
Ni 8.743269769730677 7.852004997722928 9.7261273280476 -2.0879121446410105 -0.2698917841639739 0.6152652436060307
Ni 1.7661647486157757 5.540044189050476 8.235825743493496 -0.08997112714350956 1.5755825587589574 2.3726579630986815
Ni 5.153835017617037 8.125774580594085 12.244321646111564 -0.6475505860022978 -0.006852761255775295 -1.5767323560926845
Ni 9.080097127963596 4.029828549221853 8.521398377097709 -0.3274320444722877 -1.3854741625722138 0.3853158041629493
Ni 8.393313487822969 0.1376849511199953 6.331970480654473 0.09851284606593357 0.6113288846661019 0.03760983993297393
Ni 5.82811094727935 6.533141566086636 8.492236589850569 -0.40075862108058075 -0.08007752217888144 0.9743653086055605
Ni 6.710567472471384 6.229525934268338 6.24365528934462 0.8829672192075374 -0.0702728773836338 -0.3530448599443855
Ni 8.38515426971999 5.62092243849624 10.142069431995392 -0.20089725927213142 0.026061215863426083 0.8475471878370306
Ni 2.7722519717454266 1.6707297123271985 5.266840188343275 0.16721169409422815 -1.3458624617178627 1.8437388482890633
Ni 2.5460932808728947 7.731350560025148 4.520013974803486 -0.8106783398351394 1.7923162708427134 1.6326080842143817
Ni 6.825380651754533 4.626647537938401 0.24172332658783696 1.22037411550435 1.1859187620399578 0.545836459390247
Ni 4.520633333632213 4.704039576012893 2.069846210489223 -0.20709310367019818 0.9675750251566047 -1.8259445004201198
Ni 6.4662730649972335 8.900575786020584 8.063279605844654 0.5521184357442168 -0.04355320200060241 0.3692093855193899
Ni 9.297892620280576 5.454075700129104 6.505724738892881 -0.5155051553965573 -0.21468120043010122 -1.0579493012758037
Ni 2.634954583485323 4.6983373951795615 11.758166688836027 0.1195490979109425 0.24498499361996515 -0.10144956009675433
Ni 4.008373514346524 6.925442335581048 10.13801207535691 -0.12593468972231214 0.6252745482129166 0.10827301077649096
Ni 5.059002650847429 5.6965064680138235 11.918703013747612 -0.34546010561859214 0.1205250886709666 0.8069970343288102
Ni 4.6832706572053135 1.4062134245319187 12.550385970544632 0.5822754189435714 0.08012405914610071 -0.005754643095590089
Ni 0.21513818333026027 4.683335560076587 2.6673188638378833 1.0891956608845952 -0.4473758067184876 -0.19590237716070133
Ni 0.7164748493805879 0.7715514259434368 4.305861387932711 -0.8869336600544533 -1.3049081307926882 0.8563066791972156
Ni 5.38517666635271 2.264924770676538 8.668052905027729 -0.16273797459359068 -1.3617896744710805 0.394518810818456
Ni 2.5251574689677545 8.923736839226535 8.822536573601104 -0.10410833787584006 -0.8885421421921536 0.24776718435079265
Ni 1.379510528922174 6.52164448603244 0.40555208144074795 -1.0891419248285241 -0.12489647826578491 -0.6120747616931911
Ni 6.403159658602951 4.212233433017168 7.77641818665372 0.9630398562904126 0.07648903349667473 -0.20973491216841947
P 6.559594122050039 7.095339508898048 10.822048469674911 -0.8675850803245123 -0.9398467060034007 -1.8650566359302332
P 2.403566575555882 4.8912472722824605 1.3259851309827662 0.039397013740383756 0.1488992689382855 0.6553924506442196
P 5.286273962370367 3.6952913351610213 12.667117493265856 -1.9015038230136736 -0.8505188688708448 -0.7230538585469354
P 0.7442579142051017 0.04206169650472455 10.399538195154223 1.4646520557549614 1.5989963096972075 -1.104699412947149
P 1.1802216267569476 4.5483468596660765 4.764292620151756 -0.623091681628985 0.4417893137696456 -0.27849803777574617
P 7.276687403075478 3.0637678539905595 5.438382185855126 0.6385800070725712 1.6401416735872658 -1.6257761488942128
P 3.618307257991677 6.91401943023688 8.004303293902131 -0.6927906887870198 -0.27716234968345815 -0.09147522249286183
P 7.335674841224505 2.7989734110326783 9.471086859458278 0.6198502918735518 0.6721964095754358 -0.2039067355224166
Ni 0.5003825938426044 8.446107337684735 12.284408440961819 0.14127723361665345 -0.3116292731120762 0.4252175254538935
Ni 5.753379926927078 3.7796650678168113 3.6843292402028953 2.195716700421515 0.662985175389813 0.7833387714799218
Ni 6.781580485483548 0.9688978778898294 4.001683882685958 -0.2075008806315781 -1.2687969868924278 -0.31307243331650597
Ni 1.6552086542540347 3.584539221251854 7.153759510515368 2.321533890729357 -1.132609766204172 -0.2651974640120981
Ni 4.40142530277996 4.946590877801406 6.86801071197484 0.7707668483521823 0.4012934105381282 0.842657463844897
Ni 7.045373569856065 2.5953267446533617 12.449368360142643 -0.3199755881942425 -1.0912255468304304 -0.11886132781529853
Ni 0.7275296627262471 4.04209519189258 13.633781785199995 -0.12641959977853065 0.04905921942049615 -0.4379303450348716
Ni 0.9474521148532532 7.079076703724614 2.9327530636697485 -0.3750709865064895 -0.024981095425369883 0.17963192213545193
Ni 5.393048457454333 2.1706208987158737 5.361275720414238 -1.5743268319749855 -0.361611518567474 1.8940095715191576
Ni 2.8720355004093405 2.821096018298251 1.474410580114681 -0.49954631807445576 -0.6978881579145852 -1.441979296747794
Ni 8.197714777481588 0.8903681852002966 9.320918304640728 1.8331081080480944 0.6252894606112521 -0.9610184549850096
Ni 5.851819038971752 8.683410778738834 0.6808598623610909 0.9890455363255548 -0.22719347396449904 1.4037364512165114
Ni 3.7626419718655995 6.848958937704388 0.29973907603550864 2.2712384849089142 -0.700561076761058 3.281598466441529
Ni 2.897329076528571 2.024070215379893 8.916619775799438 -0.137725254599337 0.9591574905168706 -0.5298269713358682
Ni 0.744319108340874 1.4856823544871693 1.86921011015313 -0.014027681737659711 -0.3471670610073698 -1.0062570151078347
Ni 8.790778671503015 7.529001951071305 5.262877404460079 0.3358472651191764 -0.874860530940003 -1.816161195781111
Ni 3.8594399684509235 4.631237098121326 9.262444526358639 -0.3855459178958844 0.07140004900954154 -0.01413206852600792
Ni 4.242570889418239 2.8951038352277587 10.780089690580347 0.6313454369973449 0.3165969015299967 0.6304514644281659
Ni 5.673864637778061 2.590310679887781 1.1155561145553494 0.14174054640631717 0.20654340181431527 0.018839758414322394
Ni 1.9759122848948187 2.2027663636738546 11.280547386316854 -0.7751212686661361 -0.5720722531583244 0.008223673461372934
Ni 1.4403616066606306 6.670290604926686 10.462354902708396 0.26095925756103444 0.14227276476070336 0.28460312223221956
Ni 1.6070507237689604 2.815653448950015 3.5858085359771925 0.1835042606066646 0.876228100711491 0.1874215933831998
Ni 6.615382775829149 9.30670086709629 10.549205143495216 -1.893569141547629 -0.4335193604513695 0.5878066331744458
Ni 2.3719217898905844 5.816280081030032 6.098467566305386 -0.3545818654142022 1.782096392886918 -0.8353534739843161
P 2.065061014508602 8.342948859714587 1.5429396675248142 -0.8627894587080818 -0.8160619727445558 0.7283953253645068
P 7.880766241535924 5.907412984137039 8.052518709787476 0.6285187661818272 0.7918164699336298 -0.0359008276616672
P 8.529405537045132 8.795210610427132 3.290967772355096 -0.19735685021904076 -0.9026652118570971 -0.3879835808030996
P 2.878386709955408 6.939730239100013 12.13656062738424 -1.295540059314227 -0.0019113580900999337 -2.940986690054174
P 3.9986195399779643 2.7540698959500416 7.0644531596427775 -1.0568766370369151 0.2282887639112068 -0.3511864665794081
P 8.647491675408226 5.348256204436737 12.289212180619945 0.48612618801380797 -0.35394808848494524 1.1371721887638737
P 1.6687455388339745 -0.08906528306500255 6.464498435059837 0.21919245803689347 -0.4707031685905184 -0.7249654737473514
P 1.687660089890877 3.8911867443425088 9.935882281797648 0.09890853884245547 0.6259816015822703 -0.9966899402446898
