# total energy = -340867.07084237406 ev
CRYSTAL
PRIMVEC
9.27185798988394 0.00000000000000 0.00000000000000
0.00000000000000 9.27185798988394 0.00000000000000
0.00000000000000 0.00000000000000 13.57030138196608
PRIMCOORD
 96 1
Ni -0.3529518110158487 5.123406097772182 1.1785031948904265 3.5403576310274505 0.816108252601459 -0.7530164663472967
Ni 6.776819412486035 4.626916656096277 7.552361176924455 -0.050286921180010165 -1.0268338108179218 -0.0015748006862876104
Ni 2.595693679594686 7.560003969312097 13.448860341489084 -0.2220186146317789 1.0367430995118339 -0.22748400862172435
Ni 2.2306050067137115 4.500244534781266 1.7688210559830724 0.5076969722060483 -1.8047424124212077 1.1752250297715372
Ni 6.585967491453376 1.6882384126247871 10.951830355155803 -0.4927416364477965 0.07018031766982752 -2.768522489311754
Ni 4.560910300391288 4.66684127579928 5.140321675149368 -2.4452376342386213 0.5958994374849091 1.2334355766739984
Ni 3.7944614469010176 8.381203143133588 6.356397219417982 0.7000620256374525 -0.1478911393887453 0.16118888493891595
Ni 6.814722767187819 6.831588276532863 8.150255073028555 -0.9437031036350135 -0.7197515336465797 -0.982547844416353
Ni 4.300361824247742 2.849640592981953 11.369849282681118 0.8812317245736694 0.8520576741128745 0.08928669948197526
Ni 5.676880377510014 9.245154853288232 8.325298476505798 -3.1098212644638057 1.0334148064695492 -1.097328831514691
Ni 0.204753217437841 4.203962318662017 10.03621492613281 0.6679679733163851 -0.28413646700844614 -0.30949808570168635
Ni 4.112421266565464 4.159290507763487 13.62770335229431 1.5139429315702893 -1.3014517968129715 0.9599769010943726
Ni 4.203276201184538 6.3125496766782065 12.239448481424034 -0.2766316739909687 -0.7160496593149603 -0.3896244588406322
Ni 8.382547562515136 5.4240460870591996 6.094164046711493 0.7828816293378452 -0.6386265440397905 -0.6339854457233532
Ni 1.9990589017803364 6.255045614579268 3.183782586071308 1.8816847314052174 2.164336386338021 -1.2033040473959404
Ni 1.7823014100439636 0.2946373885448613 5.80267445389101 -0.18345181010217437 0.3562255716652123 0.13939235788911478
Ni 4.004700822601345 1.7095636855734422 4.903438688864146 -0.8756038368639307 1.7088294658719665 0.09620168143425367
Ni 0.6156263241537977 4.57835993677797 3.606646986484871 -1.652329216792393 -0.5569487672533247 0.5337445612227195
Ni 7.305574919319035 7.459209603127389 5.54098461205182 0.2946975303537441 1.0590106526607825 -0.1298759337582473
Ni 7.58723541568175 3.904091893572712 12.040765549290315 0.14701799275517263 -0.15313284740365887 1.7049584129523347
Ni 3.624563924504863 1.2195460006445642 7.4223029731395105 -0.29876398711363383 0.4295488058393957 0.8622616112290697
Ni 2.2121818252576344 5.1876971597834745 13.237136541354374 -1.9442576690414322 0.7839581502314756 -2.2643985791689456
Ni 8.71895837920907 0.4058153082840039 4.966458579170543 -2.035563455835965 -1.9204726508066925 0.6576550214261512
Ni 8.925553914792518 1.7631179362479776 12.750736735340524 0.5850455254895409 2.0097765766798483 -1.1951518506024512
P 5.8477885324067795 2.346391966967105 3.932564841702288 0.5412020459420293 -0.5215791295047791 -0.41504521290658203
P 5.650390679764663 5.045253608344264 11.114483775049875 1.2238021673492923 0.030314077602509083 0.5066086242378759
P 8.714137013151113 3.4050897784319876 7.594808669135864 0.2969976392418304 0.817235938447999 1.21367176378351
P 0.586412554585701 2.046827513185324 4.991550080759087 0.6638675779947664 1.441345519818537 0.6295428365709674
P 2.900988141499193 2.368894765856838 0.022691944788929736 -0.10212010380121767 -1.0243989761241843 -0.3708664615068387
P 1.9488054324839408 7.215304111741599 7.030596650875493 -0.2710945462228234 -0.672170698543823 -1.2183799678924567
P 5.19039527040437 2.2371972976121874 9.33380215856423 -0.6957477145328147 0.012005509101308355 -1.0570329601091215
P 3.31331692989034 -0.08613370462539817 4.1674933203624756 -0.9849741944696585 -0.8731831432375801 0.05548132089675606
Ni 6.5264792517844326 4.364940313850951 4.360544526066188 2.9803248255321644 -0.7107943244532919 1.1007085466202011
Ni 5.047386135639129 3.0054078040851726 6.937273547709057 -0.466597631062577 0.7400246820733191 0.8523132417671062
Ni 6.970137647694495 4.765289861959636 1.9561997390824417 1.201251535742286 0.7057894150395329 1.3440655177184402
Ni 1.7923057446142239 2.9396332448252775 11.59362371640338 -1.0806452002114226 1.6078180217538955 0.43239990213494567
Ni 7.011258337054184 2.003388859374694 8.066702653615726 0.8386444860307621 -0.11079500586739628 0.5792232623808089
Ni 7.800441785879282 8.925479739930088 2.738513668460731 0.36728851434759324 -0.16455317342545853 0.5808895943396383
Ni 6.33554388403154 1.9062939644536872 13.006333112231081 -0.534845507596382 -0.3860053740308062 2.624515001248132
Ni 9.01009471424723 7.6833753092489685 7.491348643832573 1.3818625339615558 -1.1303096573160856 -0.09869693705228164
Ni 6.133120684459784 5.31250563767993 13.487182784163599 -0.43506819299572813 -0.6154470205995336 -1.565496378167549
Ni 1.4585466792521646 2.497588152173069 2.99364923401844 -0.7850606392670351 -1.9336354134408955 -0.23673998000235358
Ni 0.49018735992668705 8.927241392912803 12.334087261212824 0.9218695526996897 -1.0234862345019275 -1.45432033481165
Ni 7.421825472462616 6.866830608044967 0.8313982174056307 1.2694898991943941 1.5712235104593133 1.4600950325118982
Ni 6.114716046719313 6.548898603953931 3.5198104750379473 0.41976781519323186 0.9059245993346592 -0.9077120302523851
Ni 3.0788316460331724 3.4870900888484675 9.241958843903275 0.6688385488467965 -0.7967257343097892 0.7703847824224151
Ni 3.6375352535723273 2.1051382269131897 2.1627934202943297 0.6071228170045544 0.002411180544653912 -0.16054945158270414
Ni 7.363579661739377 8.57688570208201 9.3904448650732 2.406365639763772 0.7818315908067761 2.419286461590498
Ni 1.6225843875163408 2.939809410123549 7.543608543157704 -0.26733713606292026 -0.7474343442738288 -1.87884674773579
Ni 5.553295784843656 9.099595957626955 4.010580107634711 -0.2503238893343753 -0.8931526443809715 -1.0089885551063849
Ni 0.36974314549846365 7.242730267125129 4.725626708646699 -0.27012832565481215 -0.6806615096236536 0.9566702053186427
Ni 2.194787820017775 8.706135399866465 8.487504065667952 0.5641861655420284 0.4681464636069356 -0.30246766121746615
Ni 4.8764130777377375 5.185360651616927 9.019677179287418 1.0984752864143084 -0.7514635200378801 -0.28006795336602736
Ni 8.79038877172926 1.6512993311345951 10.157913622921884 1.2973971671276237 0.269270091419575 -0.4227042721137365
Ni 2.2496679463582483 5.6426764940719325 5.3022834144512805 -0.2390431742142335 -0.07560765933298591 2.7545297745770885
Ni 3.3438398857803286 8.292313842368912 2.146645552743296 0.5222134206546684 -0.7962865898898415 0.43935910706159814
P 2.7971896933860654 4.909226182505255 10.952237389713385 -0.25863806562702557 -0.7989690218180111 2.5128648464692915
P 2.693233623690274 3.894755132764322 4.0468942659089295 1.537829765490216 0.14840253180752505 -0.5214060942620247
P 8.739059766927628 6.2758980227799315 9.353574395330755 -0.10783875145254976 0.4803836291030759 0.5165032576437686
P 5.361423959452583 6.666447217190039 5.7752761140808895 0.6845441325075114 -0.3725158241848036 1.3418926784368375
P 3.605769868736635 6.1666199067047796 1.3632319810294802 -0.16251557417013948 -0.40842719336943206 -0.17385876709710055
P 7.77942248423815 0.04135804891946555 11.465954870374464 0.8090153503104196 -0.8824907937917512 0.7587957920332352
P 4.513280766853357 8.699951070711355 11.774176457787618 -1.3340042768276963 0.05481643361924753 0.044912030021342
P 7.458254601773602 -0.14871689042923814 7.1016506059688504 -0.06595393829330577 0.5615947506657682 -0.5726965170058846
Ni 0.19730884280719962 0.840919488184315 7.753066301245173 -0.8310188511647043 0.36876432756217137 -0.357250670495617
Ni 7.238613562260258 3.803575683122116 9.916375236833392 -1.8052733452240135 0.17675151526386335 -2.590102585206533
Ni 0.3736864666224041 8.583357458829035 9.858389965314439 -0.0689101927081523 -0.8553373733054107 1.2763241485074084
Ni 2.717331182122254 7.924564146298257 10.842141495779945 -0.2259511169169657 -0.38581048441118077 -0.1511708385812816
Ni 2.7690217893782334 0.9811387209364042 11.52665401467258 0.5315719790514329 -1.794860891641438 0.2989113113247755
Ni 7.759923767276837 6.39374333546576 11.463240070409523 -1.209529459480362 -0.03399204067472855 -0.595689378356632
Ni 8.20350798832447 2.9397259634033146 1.1238409572083412 -0.40019426393667856 -0.8471098431892958 -0.7752829910549809
Ni 7.72358735654389 2.7771346649565256 5.857321856600609 0.6707828170573609 0.25103505646878704 -0.7009745101493927
Ni 0.6700382216751812 5.974868615465156 11.479795899703923 1.6706293006531616 0.7323409402758162 0.25829662312720675
Ni 8.185168253588627 2.6973596004129483 3.4950852118326527 0.08675776241253445 -0.7189285235246521 -0.1866173523143496
Ni 1.5928773551130841 0.4152123361681178 0.7749743267408306 1.4259006460183765 0.09346577056032936 -0.49930900525266914
Ni 4.149313988766638 7.407073946696829 8.55707915944161 1.390203192616767 1.0671857322724074 -0.8077259420750347
Ni 0.9948981579171886 5.114931619739542 7.873162821005756 -0.7053713536655078 1.6473538750649888 -0.8241951433746516
Ni 1.2390076301746626 -0.4296161672662637 3.33007024975596 0.7270215849454317 2.379223017910709 0.1690232933816702
Ni 6.157793098075597 7.667029023940935 12.697296528516976 -0.1128140931799541 1.499783609350772 0.05087596091426077
Ni 6.069385933916717 1.0411369127845551 1.8968023636199747 -0.1014798991140575 1.4938279059879693 0.17415007308527428
Ni 6.102894428019517 1.1214590169385545 5.754689808199195 0.5733140959852255 -0.6229155610624368 1.779575169126961
Ni 5.656649183782203 7.217872416353241 10.414649511136522 -0.49673327410569296 0.15442174141841147 -0.48093307384864276
Ni 3.992406339153555 7.134768754858111 4.333879590208345 -1.5366352309614828 -0.6220385577741222 -1.199404198120902
Ni 4.045200297488182 0.35366388969517776 0.3978795251897631 0.9065989996938645 0.3419829457032691 -1.931932057596544
Ni 0.1863402350253479 7.218465815252681 2.2777885638912814 -1.3109178273218778 -0.9080678709299069 0.08395166042230702
Ni 2.675199860261954 6.033587290936388 9.310285018430765 -1.8843802759595094 0.31714814604777636 -0.9042721513329007
Ni 5.030965675468664 4.321483116324714 2.7132320937872105 -4.634387480075896 -0.349218801330076 -0.26688102236210814
Ni 7.959046185470452 0.051670209168810835 0.3376680806121257 -0.9921138908382333 -0.9785446367942309 0.12392665815334784
P 0.24818538094800832 4.050707781023617 12.949866571020383 0.20373498583124267 -0.3853029486471429 -0.43333886900944724
P 9.285951027624789 1.1344952490106452 1.8279606737985947 -1.9524463754998116 0.33667773144027174 1.2988863500786405
P 5.914657170887518 3.1527190808713605 1.0893097771897864 -0.7214296926799512 -0.05171182655199481 -0.7253979332990798
P 3.3971067088629474 4.701657101852411 7.356649875216844 -0.3127978394988806 -0.783149281176935 -0.6538611016013578
P 8.136602262412515 5.747624652552727 3.765921741395254 0.1986827681193159 1.3260873359734646 0.30749751033188977
P 0.4632006906030543 7.393676112170392 13.798417725362976 -0.6334455140594832 -0.8014601636709809 -0.7901115714273812
P 1.8341959981716254 1.4851939985801796 9.112226082327242 0.06894361704924899 -0.09287004595785942 1.3866506993788184
P 5.690713989353229 8.243951832064484 1.2654185171286818 0.5190928727478157 0.17077215775197685 0.760531029556787
