# total energy = -340858.6983862343 ev
CRYSTAL
PRIMVEC
9.40130819286643 0.00000000000000 0.00000000000000

0.00000000000000 9.40130819286643 0.00000000000000

0.00000000000000 0.00000000000000 13.75976483905147

PRIMCOORD
 96 1
Ni 4.918068809686907 3.9737073901951403 8.372666039326617 -0.6349218414946937 1.5407780494852625 0.7850642388114609
Ni 0.25095570356881397 4.931916936823905 1.9477498933232142 0.3548641725413114 0.24394112573648308 1.5969309425277465
Ni 7.2557323242801 4.962320767890469 4.129883804061553 0.615755552978888 -0.1334741926324669 0.21084434318251427
Ni 3.116919157588051 1.46819291707924 3.7050226994199793 0.4043242269446521 1.7572001438658704 -0.608769351469042
Ni 8.57742465400304 2.3013462606011896 7.190344344739541 -0.2712524119569264 -1.6063188115005496 0.9347140127625256
Ni 4.5774218044717285 3.4965627896628795 1.0684962943844423 -0.28826745845768426 -0.18098766483239798 -0.49640314445978373
Ni 6.465185710007893 7.724641378734962 3.5822444333160806 1.0812164993338607 -1.175580356228427 1.3654506682624354
Ni 7.345101161051516 0.4611125494754237 2.2533958277094444 0.47590605294769656 0.4582759985707591 0.867890527380073
Ni 4.54386853512214 1.0440340901682394 13.677619368746814 1.7177221403759062 2.3075604592684 -0.832405961320218
Ni 6.3641780535517505 8.821868071307227 7.304055048980823 -1.667439075850638 -1.5246860290194064 3.5282289660847175
Ni 4.740355878749596 8.349612151094883 5.59803629551507 0.5338366067158936 -0.3157016434092369 -0.4581770110990496
Ni 3.6643009324858964 7.733469207235735 3.3254458166341347 0.19376476199240825 0.777262483378855 0.002507082692569876
Ni 1.7869442752461722 1.8748747118465356 13.63827959413394 -0.3490105419740119 1.2312838204383183 -0.7562969368707814
Ni 2.139784777336222 7.165357547519777 0.4729055506163941 -0.6020664855275695 -0.013000526024725997 0.46992489566359713
Ni 9.20815842835548 4.384036892585759 6.646833088471906 -0.8820560202471777 1.7836971617151345 -0.4784185349569051
Ni 0.49208421956376297 9.246656785874832 13.354677847467215 -1.8210414066915477 0.18100411989263018 0.7655572791267847
Ni 9.161668958774726 6.4506794912893675 5.2609081999994025 -1.198322277910633 0.5208360806911675 -0.45265659550145265
Ni 4.388361494407224 7.556320354796877 13.306697330388886 -0.02712128169682426 2.6816040329516397 0.8175660680939082
Ni 6.8275591387217816 6.854127235998872 0.08143319242902669 -1.1920228180551664 1.5569698287537765 -0.9528197212243011
Ni 6.572370026022085 4.774567239680712 13.111886240032664 2.262444540766368 -1.3236517299487784 1.785682053355647
Ni 7.034369118870909 4.381451532801187 11.012820409238032 -0.19085478743446488 -4.961037394966521 -2.1895447672828485
Ni 0.715555198295502 5.116568033292174 11.66927146246573 0.4433759415304751 -1.118571542943551 0.27005659187661235
Ni 2.0494100005758997 8.852187290599023 9.890684010174125 -0.4336173194818145 0.5920114152844127 -0.38934060905162626
Ni 2.1370113913855 4.595895375296032 0.16498073909641775 0.5396357298961738 -1.3001726729902319 1.2849687115562838
P 8.129038655583525 8.55474869836527 12.176030184166724 0.9162257241503511 -0.4401054983093195 -0.36385377763443144
P 5.1434087685101835 -0.13149139864332096 3.5743463942069216 -0.7811391927254419 1.2985446504685056 1.1697195265722757
P 2.6671041603057906 5.941861883069025 12.427269807246423 -0.7057559906984362 1.239433446128646 -1.9024458752119688
P 0.2706815286596813 7.971529136199106 2.194462786452838 -0.1238919482606705 0.3341400526200826 -0.19573654100679838
P 7.020483386500682 2.518610495588295 9.749825147933176 -0.5412930629939388 -0.855311919384114 -0.36084918648015274
P 0.6539155203771568 7.5328452879529655 8.6355736261468 2.4081057623833297 1.2953027464924403 1.9736782882953945
P 6.8168510485595 6.963473852923798 5.534452427038728 0.8783454041648098 -0.055655641691091245 0.6181281669761226
P 3.1832171837727787 3.6892332021174767 4.603218994467602 0.9597917816667599 -1.5321517412688324 -0.7727784794655723
Ni 9.356999941480355 2.653124414852488 9.890037200162567 -2.670377053887569 0.444875408894137 0.21180233622040942
Ni 1.5455374805253201 1.3957746391863075 8.361919403800275 1.1460034139022586 -0.3257412870334261 0.6535762233710873
Ni 1.7764900204081946 4.905865911503728 5.586712419658646 0.3924315892721242 0.2472300809004 -1.0212771426657508
Ni 1.2159934204213396 0.7505355862461737 1.837423660072644 1.3041290865348185 -2.2489336507641267 0.9882911746580334
Ni 7.394232398266687 2.0839974138393167 4.715870171262624 0.2363370881369801 1.824726825962935 -0.3641710517645341
Ni 8.982686851215899 6.440751709716613 13.067855212574328 -0.8391252823219225 0.5449435152623324 1.486607219869814
Ni 1.4150849264499819 7.029771879108525 6.802882584676167 -1.03541975271472 0.19208686006935308 -1.9491679618588555
Ni 4.258416610980492 8.389586514018516 10.083954226098742 -0.4727986176669663 0.7410808912519753 -1.4745693148686734
Ni 4.546200059582409 5.446271915637384 13.199082434454208 -1.481852478793648 -2.1172021518543795 1.846163398570156
Ni 3.9744782974763586 4.287466653650772 11.10381379208499 1.171287642390344 1.8507271066814384 -1.0196905149049211
Ni 8.539734808998139 7.621537230526238 10.121091274175162 -1.6550656418869496 0.7051816062522048 0.8133605146529927
Ni 7.410054800148266 4.3145142176515465 8.532788182289702 1.4460652938917096 -2.070959318836756 0.19710411077828635
Ni 8.474094874394938 6.776406620220491 7.679737909865687 -2.3239484137081203 0.01876185398853543 -2.0379476397974257
Ni 7.898189530092034 6.52916161304066 2.0923927821579444 0.22064281733017485 0.3486881256375866 0.18737865596040632
Ni 6.290669223895144 5.77724497460411 7.244832447428345 -1.5425032597064854 0.019215139475870134 -3.206212436201046
Ni 3.3478340922376955 2.2787643180464934 11.80144727635384 -0.0704176304916142 -0.8839835762871937 1.4873518113453223
Ni 7.106242120882006 0.45477418741448444 13.46937850947328 -0.2953315643933172 -0.09880466627473951 0.7083664317380898
Ni 2.4109655154670335 5.033253639070811 7.7638645771248225 0.8120831906024658 -0.62416923096388 1.4789232209619951
Ni 1.7097031261914748 9.182389442284531 3.939062628951048 -2.224516912482659 -1.4585040338756945 -0.3377023160500442
Ni 4.9725963978706025 5.920981577317994 4.481458890053409 -0.26330873162981744 0.5695353456690837 0.4961830580291777
Ni 5.051407565412658 6.619179140085295 11.209021012962108 1.1334314907745189 -0.349578755772656 2.0962345484637765
Ni 8.67203942081006 8.573015440406808 4.155063328101621 1.4370175818671445 -0.11043967941050659 -1.1366242866802039
Ni 6.33417847874241 9.263503930361933 9.951653374810142 1.6521407549306706 1.1551148892852234 0.17423543371022898
Ni 1.9043948199321916 3.8054991819567463 10.184730610370519 1.0858352290527944 -0.33549193866228677 -1.0370984259687235
P 9.57175402714935 4.663960847442577 4.154637448835289 -1.191915860163657 -0.6108352328591352 -0.986706603779733
P 4.817719244812292 9.24197493433768 11.998666041767622 0.9580907398152532 -0.5900959434292546 -1.3934440681515678
P 9.61227366595482 1.5129807498563308 4.8495464339566166 -0.33565520371302837 -1.6889892912175881 0.7964801939578863
P 1.6204377038114417 1.613358518655869 10.890482124362926 0.22689676865968667 -0.3661952812834145 -0.10792308363623992
P 5.879192761891006 5.267778676110548 1.588248564297277 0.26961436213287115 0.22741767416016317 0.5677823675337189
P 0.030923723415970807 4.31175963431744 13.807511604847026 -0.3245408389674217 0.3672327214089934 -1.9846856951494916
P 4.345961593940247 6.193074242354636 9.320121429382393 -1.314529455932536 -1.649779710897662 -1.5835007851647696
P 6.922700378794024 3.4538150407885233 6.559830561001497 -1.131618091714864 0.47648995047562454 -0.921698060118832
Ni 3.3609395160183975 7.377328845929741 7.8324706244990505 1.673919541368659 1.4833714865413357 0.5461696743599498
Ni 5.541159320385322 1.84264702696831 7.858504727464273 1.940925519344406 -0.5917956997291809 -0.7856008280412212
Ni 4.54349248278984 1.8347311253733665 5.592931385104079 0.7669855269328791 -2.362262993017603 0.002819214616349983
Ni 4.851432336403108 4.00980841409607 5.850362709835123 0.9773786415105878 1.1446165608570609 2.077671440749609
Ni 5.803343006465824 8.335566596483426 1.5619813088860275 -1.6312225167207646 0.18903290373437764 -1.6797824279073392
Ni 0.7202276485243463 2.612209921098101 3.1066519887853934 -0.07751027567233748 1.7736562325393646 0.19446898714828445
Ni 0.22306578234368435 0.30356918538109595 6.71724230677952 0.32119660508553716 -1.8335279691943327 -1.2356698653211557
Ni 3.2641248430674143 9.222025358109093 1.2573347335728884 -0.06263747232556309 -1.0452920175231095 1.9920693892080725
Ni 2.091311631702578 6.399028703447778 9.872920238127039 1.3991850844004032 -0.538346321660789 0.6068340821195419
Ni 8.076128092428725 2.8625573600194176 13.391787631749544 -0.6375140277019021 -1.31730856133957 -0.29941524754438753
Ni 1.210841503468811 7.592552997014112 11.895606079707944 0.6628885019109487 -0.16552427908947623 -1.0642029954949996
Ni 2.737529360837526 -0.09837058947587952 12.81694557541622 0.017712329678098528 -0.5698284514294701 -1.9060400203211303
Ni 9.279984423825038 5.5343997797122055 9.465204299445917 0.5859857779156231 -1.8932680653674425 0.305786441178054
Ni 4.257175638283899 1.8179497900444186 9.757049113236686 -0.4701593802719064 -0.6375389674025665 -0.3994571286603379
Ni 2.2068161055689375 2.1449366942887504 6.030698605790236 -1.2681817219059321 0.8315839796395549 -0.036773974295239896
Ni 4.97317927898567 1.2945131474058615 2.151338985246181 0.6674272703215666 1.502962778409702 0.046640582676674515
Ni 3.7531056907588605 5.699091898643582 2.283872988980807 1.1052719976211673 -1.0780915805516336 -1.3136259702816602
Ni 7.15093594057602 0.01999658277012431 5.5062729455177255 -0.013241695501254615 0.4689231938719602 -1.7055762490419915
Ni 5.308702571173242 3.5439923900743877 3.581089012525085 -0.4411285402571951 -0.07984020935709477 -0.9934966301183729
Ni 1.6797693605402875 6.576017733645408 2.9045492437058478 -0.5782310736708687 -0.1843002741453987 1.5910258898972212
Ni 7.768235245356996 3.1966422520359377 2.1560452801849324 -0.29772320455394535 -0.21107908490113972 -0.017971496876756147
Ni 6.4547502577865306 6.209723959367278 9.36647834051601 0.9206356802925886 1.655542324413052 1.0790369751840385
Ni -0.0055345502006451264 0.31684947349631815 10.559092587438176 -1.4650901717336446 0.1672975689398151 0.27974733680181496
Ni 2.617126805342941 -0.20905125204964375 5.976843211150528 0.06438376559270846 -0.40670301158947375 1.3312840496830556
P 2.8300946424335036 6.7834011936012955 5.121811142935287 0.981312172237039 1.1076376696398667 -0.33956893694513773
P 8.907410575597476 1.428857843120519 1.1448217560099858 -3.0077410127615876 1.491709831203702 -1.720398915877121
P 2.6132722689368526 2.53597471203231 1.7374868126327296 0.9246206330822656 0.3548487459223437 0.03258821834866646
P 8.095823833333009 0.21840743407730137 8.289033880884459 -0.27114648250668144 -0.08090490317618325 0.7633936958165626
P 0.9805752590923865 3.4373815538669543 8.154697646347278 0.4185236583734857 0.7951285650259984 -0.5188987544591386
P 5.269264082823138 3.1744269605052353 12.598110381810928 -0.25115821231021257 -0.5781315719785269 0.20137754134265962
P 3.8707630642276456 0.4258679847613104 7.690704536006425 0.026342237438954634 -0.23548476743901378 0.1914793083923412
P 7.34287305098263 6.236235648794523 11.368730438490491 0.6236670945164808 3.3758738773873467 1.9102512301890004
