# total energy = -340876.59755657305 ev
CRYSTAL
PRIMVEC
9.14152398050636 0.00000000000000 0.00000000000000
0.00000000000000 9.14152398050636 0.00000000000000
0.00000000000000 0.00000000000000 13.37954438487564
PRIMCOORD
 96 1
Ni 2.899618313352248 6.220852859869643 6.4771583419139995 -0.16193090531126306 0.438168943408239 0.4798874061929478
Ni 8.05328964941063 4.92397225991648 7.63864931328866 0.47100784431513076 -1.0540134565565074 0.10556306804449561
Ni 1.478175305968452 4.0090153954722325 7.359043914609986 1.3652447228992166 -1.3337240265831158 1.29172711332604
Ni 6.520767982648466 1.586191554772237 2.5747194051992928 -0.8240110523883035 0.30298496717351686 -1.1291099805810296
Ni 0.9341814896333439 4.482674325357077 3.201645128198918 -0.39137409454188726 0.5600490034452031 -0.6389021662986804
Ni 8.427534504672831 3.4161966989017647 1.2324529663784063 0.9286559794939039 0.3122741057849267 1.5621315754603742
Ni 3.012013352201481 3.15890850301631 0.9229950065882193 0.38935757833249074 0.36203009416213133 0.2991149426951494
Ni 7.834752374198775 8.653229593257516 3.556670843186484 -0.4180081521896479 -0.18858321779146878 -1.4625761470625391
Ni 3.6078761762983254 6.245937202008911 11.39289591691829 0.9412939799728886 0.8163630489247423 0.10914692874101202
Ni 3.0942413615100497 8.824422915138735 8.233356648738857 -0.39395316812297315 0.7805300983865331 0.18418997381977956
Ni 1.1792748923650873 1.1053839530386658 7.053722494476512 -0.07432313619360748 1.4355044876567278 -0.6656496095958536
Ni 4.6605043937372415 1.9133392778545872 8.519491838084468 0.8898132955950933 -0.46066969561391635 -2.1861822785685185
Ni 0.11941481520810451 5.052950023488975 13.025187263590713 1.3490909959574893 0.4014345641016828 -0.879949001206504
Ni 4.768986860270291 1.268889253149067 6.088562207962137 0.7402743361902798 -1.2885068066165293 -0.425216497012629
Ni 4.7613811122164025 4.441153522880199 10.360209934310571 -0.3664711606526205 -0.6169619145821633 -0.9690320693181054
Ni 4.768392661203582 5.222680701513677 5.390324369585612 0.7531743320813996 0.5016834190221167 -0.5602734607511834
Ni 4.897242443438632 4.289431647338863 12.723665975026952 -1.1072815718520284 0.3674687486791994 1.1459507062874523
Ni 6.174752153817046 6.590600085273053 7.160371171274453 -1.2218936374726697 -1.6325301797885947 1.0139276442792151
Ni 0.5192084020340161 7.95111483450881 1.6836283177313518 -0.4873569750971155 -0.19103373621449035 -0.3277063811795969
Ni 5.325001780801149 8.513355132953969 8.605268587049911 0.6214220072360459 0.32763207629823576 1.111979234438014
Ni 4.596824536834131 0.9355161521524157 1.1364687915992946 1.127363430203568 0.8262278575339641 1.1014099435626
Ni 6.311363090015739 7.920664417720946 5.381011898981649 -0.7303753319090132 1.1286294414001852 -1.2644438521300547
Ni 5.5879394385824 7.986236570113427 1.9837984890326554 0.27281795667183334 -0.8072364040331259 0.3014523325790744
Ni 7.470919714890155 8.54436318271213 7.6839391661533005 1.1818451061912163 0.10865610514752255 0.854861719220573
P 2.470963106627614 5.244538085644504 4.545713361420551 1.8572538520563626 -0.6588778380896588 1.049768051016592
P 8.895498265041361 3.2180358809160126 6.266055868255303 -0.3240890961419838 -0.9156881064793263 -0.3641653953375793
P 2.539423980636715 4.852924334586164 12.928319103430818 0.03854186482894008 0.6256507006054127 1.261497367907221
P 1.2751511971597806 2.4118722948243243 2.483845342393888 -0.571077493345223 0.12530682633032614 -1.6574935346021518
P 4.423382400023516 8.04992556854064 6.650610534401126 -0.4442742849750284 -0.915271587767198 -1.094246078824309
P 6.617558439853483 0.9803096202582506 4.637564653152592 0.5332989890448686 1.848878997729106 1.0323817372193447
P 3.4654329477217702 8.183830613604778 2.4057355896938253 -0.4085215528554513 0.44160188034918785 -0.17282904028100557
P 1.7476674365317204 8.615484240235272 12.84976781511657 -0.8968547758229071 0.3564777968853345 -0.5630165707139594
Ni 4.206188928854836 6.296206443052581 8.592597520490422 -0.5157121292010408 1.068101044997825 1.0843362759097646
Ni 7.056141341754226 8.184561935533036 10.510675764440125 -0.38217545876175474 1.371955302150173 -1.5046000569028088
Ni 3.5877556817471126 1.3959655797080899 12.500535083953222 -2.153737270665936 0.7454646221419677 0.37259115750742927
Ni 2.367298223296967 2.1338054146522247 9.085593516310832 -0.601209536843913 0.642392695950442 0.2687954657760016
Ni 8.711817621235127 2.2175052093414136 8.887162109211623 0.8000090330467513 -0.8878656849504193 -0.54245520162284
Ni 2.4570679899907018 8.514452115846357 10.625887306865563 0.6094722910733374 -0.5217159121929595 0.8604708378772342
Ni 2.575359311886519 0.07010086343322146 5.24701543867648 1.7667577056473187 0.27288891911908486 1.1553468027903715
Ni 7.053051506607335 5.07001724898971 0.07757223108279268 -1.292359604703716 0.20113740030739552 -0.24068482358271454
Ni 0.38358200798124065 4.254584157457344 9.577492529238853 0.24901056983959047 0.703840261732962 1.1984840002994779
Ni 8.08457194489189 3.037966139130556 3.7732591454595306 1.1736165476338367 -0.9517894801875737 0.2900734013181714
Ni 0.2049218892125022 7.887316137792357 10.615464141083057 1.0190706219327352 0.602631099781788 -0.7209594379117519
Ni 8.791668834276855 6.576174760238152 3.9949584738586936 -0.3247290437188278 -0.6420512534506232 -1.6168855312728025
Ni 5.735629901994211 0.33218653116805175 12.158366922616851 0.7736428843483967 0.35703906870544316 1.2529769891410356
Ni 6.77717859222001 4.5650120329548844 2.3330312201960033 -0.17364639397597836 1.0779630253935693 1.4785444974663373
Ni 5.761509556730459 3.2037842448390745 4.127442011924778 -0.4644150215889615 -0.22371040051190505 0.40200174945906253
Ni 6.986812022955318 4.041604928900253 11.261227802802212 0.30520177231917756 0.5412871494566678 -0.3519338862683939
Ni 0.6125214234701634 5.292915031198806 5.78603718005184 0.5171840857608769 0.20921837754331712 -1.2588938688461029
Ni 1.2217921209692175 0.4359318599108069 3.4502369922049683 -1.1725814215011032 -0.46067612337181957 0.4020513717500754
Ni 3.913833846509385 8.202717002402053 13.13258463121271 -0.5485500016666681 -1.0844427195806419 -0.06950745997251899
Ni 8.580517910540411 1.0246917197794403 1.7418296592393967 2.5433668717128906 0.6427451941938543 0.18880587532523613
Ni 3.671391485767579 3.2406794361197173 5.144823254878864 -1.9056224731677374 0.4351206435002184 0.29135921000913045
Ni 8.253662716229364 6.990605755458159 6.293028849274298 1.765078518172683 -0.1774112603350493 -0.29406683874828066
Ni 6.766693264073603 2.5375134020991403 13.258433251084668 -0.9475461315301875 -0.7766459328407785 1.137144677960048
Ni 0.9436703916524983 1.3326788083414172 11.19740808058032 0.5021014803961418 -0.25926258658490187 -1.2764761007042402
P 6.446593656074845 6.48298606352981 3.6285460764481425 -0.5752876747718286 -0.02790623949196484 0.34687832612235747
P 8.988568121936362 3.3012420333036268 11.613270638474894 0.26247672264682537 -0.5750063960859839 -0.5646088549017438
P 8.077688377242156 6.867460284263525 11.922030185823594 -0.19911394211946354 -0.908319581929397 1.7500601903869795
P 6.940217674601146 0.9491370230662308 8.942004854764141 -0.9161578470268931 1.0074335519144393 1.573892058430412
P 5.2552976595140075 2.5307760988350583 11.570750667413533 0.5182670344124106 -0.6043331700745592 -0.7549131691493773
P 3.121739066012571 2.229727427067434 6.972120679569014 -1.351719434719272 0.2916847116693493 0.03898538012426189
P 8.913360803139076 5.685708038866463 1.694907130169919 0.14721802458112065 0.2438819903637735 0.7128347519220884
P 2.684728506257582 4.526050857226911 9.602298054892971 -0.5032700467829461 0.5961496058225023 -0.6681919164017331
Ni 1.9363667770706279 6.8877544677727 3.30133527684948 -0.3236113851746169 0.37377437918225304 0.3548402612819115
Ni 7.407925472294786 4.849286007993078 5.181629773375705 -0.3995807987223957 0.3933947245163418 -0.587437422760485
Ni 4.366677526011171 5.519835084013325 2.6422725258649433 0.23282778943214097 -0.2633902356000303 -0.5063934229032763
Ni 1.6688217911413477 6.5019090184234996 9.065738125958612 0.9523700352813921 -0.8953478522600773 -0.30360845969012873
Ni 2.2854175919043214 3.390051939966522 11.487570111293408 0.26576233537663263 -0.2227030422933132 -1.3685866427882558
Ni 4.058123662954793 4.148524194811651 7.8433298662648365 0.14610473691228384 -0.5760474357559886 -0.5988865451376912
Ni 0.9356898411103771 2.4775084378855277 13.333264853241312 0.4724602604909412 -0.8560189727534676 0.24239974939129222
Ni 6.674985494269984 5.95324388327164 9.470790831601112 0.005061473683307412 -0.44091051070911813 0.07644352497071996
Ni 4.180364123263207 0.970299651365212 10.361400160748813 -0.21304520748857503 0.040329809967298284 0.6815675663776907
Ni 3.3268383007926756 2.062821479990631 3.172356599124574 0.49838983587250935 -0.20029870645618408 -0.318503117413774
Ni 4.843435432567009 0.2558950276121218 3.8655108359472923 -1.1480083601474294 0.9115661138911526 -0.7116728704035034
Ni 1.4885600773497232 5.92623067954659 11.270540273406175 -1.9967359414458064 -0.7457441010555995 0.4259677733563567
Ni 2.3138294488171653 6.451804324813686 0.9828921008174136 0.3308775798187269 -0.07182608080336662 -0.6875852333266803
Ni 4.0813888417975175 7.299049920225298 4.299061328829207 0.25686323311478987 -0.7001437867179814 1.2520763317036374
Ni 6.999701571940875 2.0294914831102484 7.017918801173794 0.12809030261273424 0.5919646212068772 -1.4548445827462364
Ni 6.417176231510645 3.222176991334776 8.993168136865107 0.7867832783850967 1.32828922872079 0.16676715035764184
Ni 7.543064623112859 7.229821158191525 0.7965028234193929 0.30439238904400484 0.10143799013252852 -0.695180529175435
Ni 2.2154026587976703 0.4832922679848293 1.4052131454909191 0.0258868950690909 0.9813502245638261 -1.7276820798020955
Ni 1.2563927896999494 7.841846196902883 7.294366717427212 -1.8044976434002533 0.15716819381529706 -1.314662896186607
Ni 7.515914296526262 1.603405044658622 11.202839974202462 -0.16073894188569093 0.6034199142316704 -2.5324350552917356
Ni 8.635933829654201 0.30852461017924704 12.658240087020124 0.28231766863215246 -2.017827986229415 1.4144872619751125
Ni 8.400996660201148 0.44157675104455246 5.685744604962876 0.23595296532468396 1.0471851207807643 0.47631203013686363
Ni 5.866838197447894 6.560314215919046 11.746396825685435 1.003166034887337 -1.0070417157926592 0.9990612686903437
Ni 1.2277798192568343 2.580286593378161 4.6529105296646875 0.4042226683697813 -0.08188526481158155 1.736418688344145
P 0.7146258486363883 8.167202181261 5.119428100920087 0.061674337081345385 -1.0838549653979719 -0.09771349009308977
P 6.997407049390964 0.16962280804028362 0.7552206147216092 -2.028070747003346 0.7377921931983745 -0.38347900806452667
P 4.752431560119339 8.1100676556158 10.780354382095098 -0.6131291710996344 -0.7287809908386997 -0.9160017810650031
P 5.078783970604708 3.3771349664086556 1.7424311715253895 -0.36758624809367013 -1.1893079902271646 0.24138416364258428
P 5.011813165024433 6.379695982687395 0.42685798308593914 0.34975179101541054 -0.45285945554087814 0.7132430431041006
P 8.644152059823007 6.709805559579193 8.745164987011306 -0.30094505392535265 0.6161964971710485 -0.5259610606225587
P 6.099444278254624 4.318328005029178 6.787416185063219 -0.7408039834415048 -1.007477260668181 1.3962802520487825
P 1.0546850603621434 0.3279348083076387 9.057456819273495 -0.20950376999421982 -0.2566570306412547 1.0677326059148127
