# total energy = -340863.15628548164 ev
CRYSTAL
PRIMVEC
9.32948143180925 0.00000000000000 0.00000000000000

0.00000000000000 9.32948143180925 0.00000000000000

0.00000000000000 0.00000000000000 13.65463911389035

PRIMCOORD
 96 1
Ni 2.6279843251082533 7.214814573878685 0.38028272711269845 -0.029883674933309828 -0.9216692637634256 0.1948824205366192
Ni 2.9120110598185187 5.231516079211527 10.18868196192201 -0.35768338715766135 -0.9463289712936347 0.014896971716490473
Ni 4.36770871683836 4.986178704271446 6.464502219819054 0.062272118566344375 2.750970082250288 -2.1173867570613596
Ni 7.5691669401171975 6.690730950755931 8.710239961959383 0.20819944936049947 -0.5497139400677823 0.9798949801745384
Ni 6.605711385869101 6.302400612903479 6.661360810053613 3.072380088898212 -3.484136089530561 0.5293024662909658
Ni 0.9370251331656442 1.6201950747839786 13.086005619018994 -1.6167657178654864 -0.5447979908234036 -0.4657684502930624
Ni 0.1875934821593786 0.36749853861665727 6.022910805045454 -0.10260604229870071 1.6984103274211717 -1.3984659468461915
Ni 9.014219658748377 4.90763379954389 6.481078842543834 -1.492827746858229 -0.6821635480904769 0.24973896336518278
Ni 2.9217883564279115 0.1488938599595478 13.586119938278339 0.0329528007769368 0.8913598141466068 -0.03168858935253252
Ni 1.8945004897738353 4.7124890350604245 6.820929462742614 1.1267376236941111 -0.7509187032780035 0.4358531507908687
Ni 1.3724973410250265 7.192097286432243 10.078858104577744 -0.00641978748341475 0.46444278950310336 -1.6403759010852588
Ni 0.2947164546101145 2.501261977927544 9.252178346772077 -3.0590208939824866 -0.8614306306873422 -3.930984048770036
Ni 6.727675697486079 6.740923561212546 12.238133943991729 -0.8923067514409084 -0.9856979600095604 0.3040445187862828
Ni 1.2590974934227643 3.261549413604315 2.686345829564092 1.051115823293738 1.2801957156476726 -0.7238840677577145
Ni 8.860759017595797 6.159277037250142 12.951562192950945 -1.2381527796440095 -1.061190948141553 0.2713920228585842
Ni 2.8836960834735685 2.6948580484824216 12.793100016767546 1.473984646009797 1.7558251178952147 2.2651503697333055
Ni 1.3495468165411462 2.7088149528027 10.982180485833625 1.8780556192930624 0.539314084890697 2.4040909847969822
Ni 5.195140430852727 7.631077379334689 6.290214444171427 -1.990166258648089 5.330603649604696 0.6555783414027806
Ni 7.0565492497548865 3.2542817475177523 2.591158995741273 -1.3700503718179757 0.848967465223325 2.72735295705198
Ni 3.929101803195813 2.6441896344694324 2.2753000701614963 -0.44439692659582175 -0.42942693554955075 -0.3305063125222372
Ni 3.8883879459406696 3.0581107400695613 7.112687538769867 -0.9311566344285706 -2.8802063255420074 -0.01084208492082649
Ni 7.457632988814438 2.594388862235712 10.111410531418864 0.7965185033949895 0.1921439385595336 0.15426516123588918
Ni 5.977818622123527 5.721556424349859 2.5060218793875744 0.4661847118948746 0.10539388945648301 -1.510940911519172
Ni 8.109810392898037 3.688821007227384 12.329019886844192 -0.26136934851525956 -2.133884240495751 2.5708666197950563
P 7.775059267285797 4.386041147980972 8.355205610623402 -0.03352538545095517 -0.4375305384932917 0.3736951892048854
P 3.4096549323773226 5.48356135134832 12.348477453455404 0.5929686369913594 0.3301165332829863 0.11827537340484147
P 0.5945109459993249 4.834649265788851 4.174236728387399 -2.6972455961436386 1.357561752432662 -1.1743472551522742
P 2.2086148023135777 0.1887951193762582 10.771967675783527 -0.9045480307021068 -1.38727419189543 -0.14401674403500359
P 8.198962918088265 1.4504264999737468 11.86880402815711 0.13188062289310187 0.5081024351745831 0.5098438433457219
P 0.7395918468708395 3.8611738484124265 13.112099245819385 1.0160806860664757 -0.26827147495173154 -0.09765641160290923
P 7.457530364517965 2.713302433403004 4.851629855062473 0.3307415684614949 -0.38540373589106525 -0.9528693435153137
P 2.120152658754166 1.309989814991694 1.912510120856633 -0.6753274990052498 -0.24625743257448554 -0.2724505460300856
Ni 0.9400198967263457 7.8846900043630646 12.186943079014878 -0.013168161950841839 1.2821718655374368 1.2047978583326475
Ni 3.4913811902955305 7.734364068993648 11.542594042855843 -0.9329404658018707 0.877533964007108 1.298869895018408
Ni 4.964552966160213 6.346939557572601 10.644419669490288 1.1307032932100787 -0.237010717165237 -1.1225631806014473
Ni 6.141355103293421 2.653696376115397 8.124128348152269 -0.1712069312965503 -1.6062671323270077 -0.6008228429284556
Ni 1.7368042640213848 7.741790336265668 5.6022388866337245 -0.10620095873881065 -0.7559732349827756 1.011827824327393
Ni 0.05087739439853365 0.3626817273194917 1.200612839811159 1.905131392463932 -0.7381261794990256 -0.6288483816071041
Ni 1.4751589554236522 2.2689765476024824 7.118996134158485 -0.10087131899578113 -0.6994228493915567 -0.9797101178572417
Ni 0.5735196126299222 4.8380078791279555 8.967206535586113 0.007160779414497345 0.8987496788527748 -1.5159224238941635
Ni 7.260958189365381 0.5714885845079137 3.869615163271375 0.7588400150076093 0.6494760851597847 -0.8892769634756491
Ni 6.622616406342593 0.5735951814300521 9.274832193744336 -0.022738579248096323 -1.3977316397833282 0.08626385349525144
Ni 3.364770796892791 8.566329911015806 7.11166409464959 -0.6795232822541523 1.269035071045163 0.22319952231375756
Ni 5.29398628731887 0.5736847444524282 1.9212210577308606 1.0078739818859674 1.022335665837252 -1.7442638954201768
Ni 7.399706238196384 4.884142165133154 10.740506798277616 0.7637112270569815 2.5734032701739813 -3.902250942501402
Ni 4.124703712272656 4.557563665312736 0.7599105246242714 -0.03216938564369298 0.6952252663704414 -1.0112894353254196
Ni 1.1504090339767459 8.975567616904183 8.020106495351305 0.3312971838546488 -1.0558199136376267 0.789601464560182
Ni -0.029203142983513043 0.4445124754304717 10.280304933812777 0.20012875653722306 -1.0666226606800855 0.03683619499174301
Ni 8.685374094924063 2.7763230809186994 1.188474251434746 2.188752610398857 1.5912475189897242 -1.9514513585763942
Ni 0.7320946755394385 5.127902857700156 11.191246702607678 -0.05539467472022073 -0.5192995894419831 1.2658610441925553
Ni 3.090166838495014 1.2635476560970778 8.554030855557636 0.20641561798719937 -1.0656888360119066 0.9567103145279587
Ni 4.7653032298178415 1.1253593761559253 4.11884013315147 -1.021821702315311 0.4786836156928336 0.9148044183227921
Ni 7.292930322457355 5.058818047211077 4.701797449264276 0.33573542213166047 0.4763446831470119 -2.7179694589545513
Ni 5.575988524544175 4.422622044932718 11.896358651760012 -1.885107126823205 -0.6959145791279822 1.5067327869750955
Ni 0.22159291158076272 1.318274394561485 3.3386407851145585 -0.22750149212322107 0.7472003738861518 -0.13163045455550879
Ni 5.045570183484609 6.3645069712324185 4.640119314136072 -0.5614132307825815 -1.6699397307853048 -2.1715799552743116
P 2.2257064124170203 3.215695012044042 8.860044379313088 1.219824670758783 2.149678270105214 0.5597875222537004
P 4.969982724391765 6.788410622034885 8.431289398131915 0.4083814277331612 -0.08073341059532546 -1.0934894031639426
P 8.579932295039178 6.813021794225323 10.681901794354694 0.45409049973450183 0.47290711822037257 1.066525472980589
P 0.2811336624978863 7.298154832095962 0.9104090554013913 -0.07134219918841261 1.8537656363974464 0.7347325804364443
P 3.544596552757341 8.157735939350756 4.643123407178271 1.3222018848761294 0.4999155284884164 -0.07754318579280194
P 8.482849710576065 0.49624911507492625 8.086482024413506 0.2925588867441865 2.1385844741848974 1.326104305254329
P 3.245288127354151 2.759912522964575 4.878953107524238 0.5403546103400694 -1.1616570612791155 0.24329526462236806
P 7.436986846260443 1.2707220273686646 1.745350069073106 -0.8196437765585433 -1.6705961334223811 0.20626649400384478
Ni 7.947608027582287 8.335667810471312 6.80878994141805 -1.1186435338320668 -2.7831338114670263 -0.39806796162229513
Ni 1.1904325096010735 5.368416890706023 0.9031665789148725 0.7504790446374237 -1.3419232745644567 1.0678138527747094
Ni 2.6911169264019197 6.461533578806546 8.103564305035452 0.6097322296029434 0.4882229226418367 0.12328902456934895
Ni 4.801613571806159 4.656530805038346 8.601958267906657 0.05218516664398754 0.4993470575794562 1.8113771441289064
Ni 8.285885697200586 2.469523081873007 6.915473495290254 1.4036333499797438 -1.1432194233992183 0.49661937423564795
Ni 4.896447751228372 4.169485223460716 3.930228804560713 -0.16873867226171585 -1.209175675685369 0.517839717067005
Ni 9.090880008213436 6.793056703820646 4.936930237342378 -1.1097444315702245 -2.570952237530327 1.873152268454174
Ni 5.560492255776807 8.268710121763666 3.4059856473043513 -0.023318363010966292 -1.0520311360191559 0.39147616733739027
Ni 7.702177357827231 8.324052606006909 1.7548670731487184 -1.550354123209472 -0.7401779198217316 0.3609492023931267
Ni 2.1983243842218214 0.661880064841011 4.933803928092562 1.0251559088948665 0.9804120290202727 -0.7618314935357654
Ni 3.6862647292970654 1.660013301815361 11.018952637156069 0.49376005040998194 -0.20668301271597306 -1.2669290804457536
Ni 6.047808392317865 2.8682651210766834 0.4225779314816705 1.6541130481656932 1.5790995707732804 0.3422572824105783
Ni 1.7563308687956782 6.634651437474385 3.287709279723339 0.7290278167421832 0.015325060392844574 -0.8693439719971479
Ni 7.660633176718808 8.782867176573067 12.464023081802095 0.672694689368093 0.9058258689732658 -0.0021278449762802067
Ni 2.5682756435241747 4.762252489368156 4.6365144024854335 2.114145881526559 0.19408049346061415 -0.6249536745383882
Ni 4.444014546006513 8.636375658099128 9.374633389115823 -0.08406247496855845 0.2721872650663699 0.5081903669026989
Ni 4.986486577160864 7.627280280365202 1.0522209059561776 0.11711863409257894 -0.6942976123498494 -0.0819909371515104
Ni 8.526576990354906 6.085611451345784 2.6751075361521885 0.5895799230247846 -0.38278660998319236 -0.42819769112814
Ni 0.6906027395274023 2.918998841460155 5.0118534373526 -0.3107278443437294 -0.6745037175523739 0.727355828356399
Ni 6.613212288993101 3.924119860076142 6.437124856364604 -1.6873581833720683 1.1279496417243413 -0.33387857142857985
Ni 0.3538868251117869 8.471262494556155 3.836229613732528 -0.3344483278891208 1.7101512700071837 -1.9789765605798564
Ni 5.903658573699802 1.7727227677868072 11.745911433131127 0.43249554717254546 -0.7051965186505403 0.9948922249143188
Ni 3.199135182385957 8.748758592218161 2.5021576081513053 -0.30918029735095137 0.26562503846782 0.14963434733209713
Ni 6.426706624376332 0.8533751361626494 5.95556687580381 0.5301002796019129 0.5907939979375437 0.8700841925972821
P 4.9141271186661575 0.7759133842369543 7.376577520615902 -0.45373594460856054 0.019434711685843948 1.4522282281693117
P 5.752996776996475 8.495808360376111 11.327697833093993 -0.8730116506567223 0.7279206997209334 -0.7388625434444178
P 3.699512593023533 5.865538312300966 2.3918010374135314 0.10870212789410957 0.4781082028053379 0.33237499029985984
P 4.685302925976674 1.4428789494422594 13.714446956276621 -2.073269197916855 -0.5815359696743856 -1.6147425167878708
P 6.709623150788393 5.236609976109169 0.23863787427671773 -0.3257541425492325 -0.5397439733392639 0.46720878228401475
P 7.267554132784122 7.825121265001449 4.66270412294525 -0.7448588702371688 -0.2267263045200934 0.17807974715698363
P 0.614998487367862 6.670747201388259 7.289610892940541 0.3771564082806085 0.890558401291234 0.49839832051294164
P 5.270336051722675 3.023871542973691 9.925461836847498 -1.0016130885779202 -0.2455138695402417 3.0861360050317233
