# total energy = -340870.7413183234 ev
CRYSTAL
PRIMVEC
9.24049681556151 0.00000000000000 0.00000000000000

0.00000000000000 9.24049681556151 0.00000000000000

0.00000000000000 0.00000000000000 13.52440113330772

PRIMCOORD
 96 1
Ni 5.5000175274861896 7.708339137362455 2.7524316219635945 0.442517964405554 -1.1336286943869895 0.16166736723723127
Ni 2.088269077455497 6.909923265188498 8.689156869024291 -1.8345235003383824 -2.277854190453219 2.855927398389985
Ni 8.12424465088819 6.33423108366554 2.1909531723810316 -0.3067706594681942 0.6821110975859864 2.0293822667259183
Ni 0.21041165292028507 8.245211992476882 5.293612553911475 -1.663550025208877 0.5819434895254494 -1.0628541947765888
Ni 5.507613215728944 5.640020292164997 1.3971113460466897 -0.42233120504503396 -0.4574524742281993 -0.11313290997195356
Ni 7.382038719809949 9.094931102027694 6.734435145290924 1.6529943611802176 1.4244952810304177 -3.265938391306769
Ni 5.809454038660317 8.121703514310626 0.47609164032808987 -0.13885242622524474 0.47591505180876104 -1.3390351543833843
Ni 4.901214863852368 6.393952413486616 8.4457723519232 0.19660557387531302 -1.9182026238255936 -0.04511360450918682
Ni 7.3158675233301835 2.202897438345247 2.195686154762953 -1.7679746087735553 1.391900377813532 -0.4289001165118033
Ni 8.945114929911167 1.496285900346192 5.728138592227935 -0.892218048381844 0.048693351440645176 0.36867048229678445
Ni 2.4470128787310115 5.268857263397679 12.679341928081712 1.4424107278582579 -0.6933362768778446 -0.24027858928323134
Ni 6.6162880032784965 6.636238235536534 6.472358951574936 -0.06976842694338951 0.1865906128414722 1.1530446370197562
Ni 4.016705284430543 0.24208437922304255 12.042856519126778 0.765937802394655 -0.986640783538804 -1.4165045495154571
Ni 1.9100753401400652 1.036358660800403 12.371053086590978 -1.4758592373246906 0.3406385158602327 -0.17014352302904245
Ni 1.8558243843332354 4.715582526737157 6.43274586650454 0.3430959762617897 1.2515718812633927 -1.0027914251567376
Ni 2.821567169767297 8.053037383736525 3.5928381589948835 1.1237430598421614 -0.39605478784700826 -0.33184765704148006
Ni 0.6301954028882154 7.835229637301032 2.8629664428393045 -2.468027121329311 2.7179056955961514 0.6030494182661291
Ni 1.0660391360263501 3.9389280241637934 8.507592198532512 -0.24175877337318363 -0.4407228201783442 0.4810870829280037
Ni 7.36523949690809 6.170775938499978 -0.0012908973814025027 0.08784482482912613 0.6791155052927723 -1.1852019384785912
Ni 5.995918020473639 5.427655198253814 4.032651609492005 0.045202564678567314 0.04329506324320931 -1.2430592158066913
Ni 5.039129276289249 7.417291214513246 4.92783211444027 -1.202521660703961 0.3656098410935897 1.5402525159990956
Ni 7.371994299956087 1.2756598024337644 9.983536993612553 0.0832975717780759 1.8698160049920893 -1.2817949418139925
Ni 1.7020625201490005 9.024352188647935 1.2165252441496892 -0.2396525256634582 -0.5578553382279942 -0.4354895968038629
Ni 6.384065082075731 0.1724119585642256 4.516121786391676 1.1229367618907822 0.7810013815959969 -0.6931280175217804
P 9.033306229897606 7.679333218391643 0.7454853833377963 0.4566544038069361 -0.6507472385627244 0.03213390442006724
P 8.724645920441716 0.9849168159738622 3.1591372970288836 1.2023861635673616 -0.2672453476800623 1.5650628901745562
P 7.450418394988034 7.553902716923085 4.07521333704204 -0.5326914373678568 -0.39088738471345585 -0.04546944518670879
P 4.776606766585275 4.196331298726057 13.178865619803936 -0.4637992423818335 0.14962997645672294 -0.23538629418793655
P 3.9606154697912217 4.920056236512924 6.914715386748952 1.1223050418440543 0.8852102496054433 -0.7955926491466105
P 8.245461485886315 6.839002453432848 11.473736178818232 -0.4318090626284821 1.277647238194206 0.6660406743866852
P 7.76789413824391 5.130656395564781 7.853579415540038 -0.24454687764128208 0.1060585196236754 -0.1841346951018119
P 1.017951591482194 6.983976605307035 6.679457886447743 0.4540259650451535 -1.189758447501022 0.5082633862324795
Ni 3.5777539722704637 7.040362115839018 0.996041449885605 0.7434239375628552 -0.8029699154472881 -0.4050721608542701
Ni 2.657215696427104 4.266873250119232 2.193522954498197 -0.3710091577322901 -0.0948816770712495 -0.11709986503950155
Ni 4.280022476846045 4.714473667139675 10.439079617499964 -0.15741373416719986 0.2318584835403362 0.9141678131800579
Ni 4.815536978953556 3.154955048247045 1.597704971280932 0.2742976265411534 0.47729650553731995 0.5679787998152411
Ni 2.532321143763996 1.9243334264643603 0.9630824464497678 1.6862155851271927 1.069169081251023 0.6963349544948524
Ni 1.487960212868428 7.437777395576735 12.715479662363665 -0.22363763829244065 0.45987805295055634 -0.42807916327240464
Ni 6.269593809628957 3.2913078167508063 11.826453328181428 -0.5350509387389688 -0.5531913570934215 -0.9127807030245442
Ni 0.07674232464243223 3.912139824387946 2.3050317237203632 0.7287503947110804 1.1053429600684188 -0.3868229848360951
Ni 6.429740856995363 4.230761389227887 6.007673780306283 -0.6569320272171977 0.3688301478031003 1.541218479456791
Ni 1.7692594117564377 0.5903854952392659 5.658216678159684 1.4322173322650238 -0.26918190258114283 -0.3974835498737348
Ni 8.68757304789922 2.11963132307096 11.886893568641538 -0.34844412794758056 -0.6379850538010496 -0.5407790994719976
Ni 3.956937752126238 8.458196199663327 8.87237189221699 0.2639124266520874 1.5335465647338298 0.5624573557763797
Ni 3.6467065582405813 2.835621965165387 11.864361541620696 0.9212139213935617 -0.18079663186751443 0.4544689661198431
Ni 1.3229341832731 6.290172395658903 4.279512401431203 1.602368311493234 -0.02216342347091667 0.8196926275186077
Ni 0.19151853347851303 1.887214351438635 1.232797758742744 0.5481864476796623 -1.344293060348214 -1.2625494633208192
Ni 8.899014092145835 3.8844645369341135 6.3663002272743965 0.9130673810270276 -0.03955333681258995 1.9374684140337408
Ni 4.499595158140865 2.852402707073955 6.313663586231569 1.2174741682487356 -0.3016325669106805 -0.01048110203698195
Ni 0.4616080858856398 1.6888855719322504 9.598538169217647 1.4197325695344516 0.4755795228462132 -0.20598984330369038
Ni 6.539379349696441 9.005603220953837 11.17515817525245 -0.47488403944108537 -1.7456111534766903 2.9507710231344473
Ni 9.084082758965657 5.516354725555765 9.993531514784529 0.46017141582125903 0.5257414884125848 -1.4829657664624847
Ni 3.3352463783010484 1.2004329192412249 7.323882730120652 0.7113818215256459 -0.7808378594349391 1.0379605168587027
Ni 3.4232251468646364 3.97632431408889 4.61955620964484 -0.5270905462413116 0.6517057458212518 -1.069258555641036
Ni 8.387238425921096 5.945326301338502 5.147548947482761 0.5156961883614409 -0.012242307702462787 -0.08693671119255995
Ni 2.9991233128141763 1.4490022790102106 9.936674738923614 0.046826730545551615 -0.5094885168888322 -0.2830247220015061
P 5.449407327357761 7.401369838792727 10.433520534717918 -1.361242800828675 -0.8255472865271718 -0.6877032469617834
P 8.664813704660892 0.15312519396534724 8.456050556342198 -1.151519201514165 1.4543051653029984 0.12425138848261828
P 3.7571304931565437 9.04227875214057 0.610645284134935 0.4080788088910778 1.931736653756286 0.2567863571302675
P 6.883929748124181 2.097398688141436 5.703429504197366 -0.8809478747846635 -0.11538571056187226 0.13011761745540815
P 1.0798814000015895 4.271530460428659 4.256088666484051 -0.42671493593502646 -0.5329876284520368 0.7035175882862207
P 8.101180371260556 3.6840196836958663 10.428164742862078 -0.5725368514995688 -1.7502519946828115 0.11353117385163673
P 2.1971683304249208 8.741860965692632 10.851762969845348 -0.6430712100747054 -0.23188342324100064 -0.8793188238216727
P 1.3479944101762038 3.7163706624524173 0.1745326525444108 -0.525367650012934 -0.5689429635007234 0.7373059975905754
Ni -0.03322974998755576 5.10415465118495 12.390271471514678 1.4642388794769428 0.2641073162717129 -0.27417164248625037
Ni 5.912005070434153 1.2852606784486333 8.022269302055381 -1.2217877080224249 1.4754059518373557 0.5435006121682189
Ni 5.5936422395002925 2.8523565045907264 3.9233744202097727 0.8709144018080615 -0.4521336331184471 0.9024042448862266
Ni 8.626299314641669 7.315192967075048 8.180883351028266 1.6001119113588893 -1.9407748526991542 -0.19136617985324464
Ni 5.078623158952917 6.218835761554198 12.393328227805073 0.26710907921251414 0.06768866159622537 0.6583404775289501
Ni 7.511248584406593 9.043396852234698 1.9417526866911454 0.4493578701455229 -1.1957614591619923 -0.6922867525674077
Ni 5.090340108699647 0.6508506850403201 2.2908577259155436 -0.5124697110043432 0.9422296044132806 0.07360939795603452
Ni 6.639343042409485 5.606726782750585 10.409136712169278 0.5848262103898831 0.6787635212699923 0.6499697369667516
Ni 6.571859695406032 8.196126474294992 8.447894894002713 -2.6684047606525465 -0.8439795250904304 3.908794914267507
Ni 1.5568573558586716 6.361786244662978 1.460243343179689 -1.328803706463363 -1.528744001138864 -0.3513371332246594
Ni 8.988961086494953 9.203959721950158 12.756444632093325 -0.9552494137117161 -0.180933671666011 1.4183143490306864
Ni 8.0000616164668 3.6978342261811687 4.42435903445168 -0.34991916983121024 -1.0075680206097744 -3.214739242725135
Ni 6.1803121310383275 3.855015074124308 9.052570817304535 -1.128137075144799 -0.06875129853278483 -0.5920337838819159
Ni 7.955587106111109 3.576792960619312 13.47790380010267 -0.40538506410899866 -0.29145151261262064 1.4199475137587352
Ni 1.3456473240281994 3.2449297640861015 11.363160699757278 0.7792455752471548 1.1359488578797339 -0.6050260823765258
Ni 3.694720178811572 3.6137641876987066 8.519317464726225 -0.6963866336683942 -0.9809830710323945 0.26068852039815105
Ni 4.090333561703378 0.4498874399402501 4.953866289689828 -0.47838793882928576 0.6041012565694112 0.1253937296171776
Ni 1.0298625916584847 2.1933704863035435 3.943796841846406 1.8744190509817398 -0.573122805910026 -0.7594051434824598
Ni 7.9576477368630965 2.732433339122998 8.263111758529243 1.0647020466186052 0.03781115731050262 -1.1202579295070385
Ni 1.4984574170579286 9.00478081675237 8.065249624103465 -0.08158110330760145 0.866906566200249 -0.13759952765475011
Ni 3.2657301220355435 6.842162703285673 10.950504144852168 -0.19777414026211745 0.6758304067835974 -0.7272997783074829
Ni 9.137760803980456 8.763594613803289 10.54070197936091 0.4541002699265147 -1.3227163626187026 -0.4966211740078609
Ni 5.249895764280729 1.4981524806686208 0.04371032128309418 0.34893392309980553 0.3107234734683552 -0.5639858766057642
Ni 3.172290219954355 7.212032062522596 6.888653490009455 1.6879875894259508 0.32410657964348055 -3.0467364201881786
P 2.0095030840476595 5.072903291529236 10.07880281783093 1.717423378188565 0.004744970884153119 1.0528379481911674
P 5.178882547558623 1.3275359506026523 10.36006967498068 -0.19769289340222082 1.162799916634307 -0.07410793485900785
P 3.717451800559963 1.9842857687015791 3.366115181395631 -1.2889590636625996 0.63067566462383 -0.29013047980835194
P 7.2906040055008745 4.466394053692911 1.7499088877307043 -1.150850971802547 -0.960275663281714 0.8499326573500718
P 1.4775092111621557 2.22425222609343 7.224369973643917 -0.9379008951309394 -0.11949896139929743 0.07095704793485198
P 5.135119555444648 8.880181959981924 6.8484046587698355 -1.2408323833587016 -1.2449929424942943 -0.6933542745999736
P 7.3704141750296746 1.3384951796244375 0.007831320907219906 0.3368394538291166 -0.13100259116352278 0.16945652426434687
P 3.9048490725344993 5.92654037165782 2.986390832486084 0.1578572494625217 0.7969211381500468 0.8858424838728034
