# total energy = -340875.18950501154 ev
CRYSTAL
PRIMVEC
9.20010776231647 0.00000000000000 0.00000000000000
0.00000000000000 9.20010776231647 0.00000000000000
0.00000000000000 0.00000000000000 13.46528767129130
PRIMCOORD
 96 1
Ni 3.376577536484183 3.363862987609011 10.305832791416767 0.016104875981662586 1.6068106635353037 0.8565216234214991
Ni 2.8062812588617927 3.2064583445516215 5.520808003366232 -0.23204283163700037 1.6265991590161406 0.4465926486955599
Ni 0.8124201126602564 1.8232681487211664 6.2339166331842835 -0.422603227759498 0.9142732284096706 -0.6365022986079361
Ni 2.2080902546189103 5.113870678520487 8.342243679671718 -0.21190440901591248 -0.8773984668705084 -0.500812329271073
Ni 2.8327131683541 1.077378615070175 4.745907770027774 0.5060393819979672 -0.9990550980427568 0.16711013551935736
Ni 0.37443150423376476 6.897495563057055 8.961996976388363 0.3023956703289502 -0.27043197293816007 -0.6609632598637778
Ni 7.4811319968798795 7.341474361622929 12.821754970452245 -0.5261639206619841 -0.24233264359878262 0.7892592507294149
Ni 0.6114676797000175 5.0412818285746805 2.880238164826223 0.48625294339965924 -0.39251515012486593 -0.6884185278612531
Ni 6.718185463507782 8.036836903651313 6.832893326626833 -0.04100266766460681 0.1422776498567098 0.4272486969513093
Ni 3.485773615065524 2.7986911699891324 8.01436380051283 -0.41751938547868744 -0.3925771137110529 -0.8662403933711598
Ni 8.741914759436701 3.728546057697963 4.678298938393205 0.12372431233455464 -0.1818800947396803 0.7679427486398258
Ni 2.9642471084903734 4.722866100231923 12.540208673815165 0.9141328461770644 0.7381837722098384 0.17977796079501296
Ni 7.0846717547107225 1.242456147969745 1.8557049685252134 -1.1890117991429847 -0.35197939479434864 -0.5289401978555407
Ni 4.069244446949307 8.031611242463832 6.61289667067701 -0.2271178835315572 1.2015549259153178 0.18166129386065485
Ni 5.35217186879885 4.696590592570931 4.719610182108244 0.6401434949049492 0.08757100234244919 -1.1525399294691958
Ni 5.440226099829435 7.1510229316193605 5.047611502689093 0.4603056274062782 -0.9970851188005795 -1.7083165307912902
Ni 8.573157183447357 4.347096900335024 9.80092535943504 -0.0001537519690448965 2.3284200763262284 -0.3579343268262029
Ni 3.623480827484894 5.941880373719802 10.526071410199743 0.9921144050588656 0.028170548896945036 0.22095649191585173
Ni 8.001802893436658 4.9303745299565955 0.23396241947551835 -0.6538022233389644 0.7237174602728632 0.09895327603746185
Ni 1.0296024556571746 5.988405318482279 0.4991500045677753 1.4543231630251274 -2.6273851237070756 1.0761815080131143
Ni 8.932228187824403 2.852999405886483 1.9237995658476326 0.32358721680490077 0.271057779447617 0.20054836057314493
Ni 0.4889139647135669 7.415608829666439 12.358104501549981 -0.19322611588011884 -0.06813294822249556 -1.1661081550719337
Ni 6.415612320666503 8.167506033661489 2.712918565674208 0.6756020928228751 -0.7268794029406126 0.8314214859197617
Ni 6.223431270410742 5.8033267513897835 7.000805412716301 -0.22410377929558178 -1.816953609775419 -1.837132141605823
P 8.132407622692762 2.3935092256972097 9.617823895492526 -1.1316934250374897 -2.765602487451482 0.2611328070244212
P 2.7296903620558566 4.592270571083541 1.3963371497686754 -3.878233496540882 -0.8957813402530701 -0.5681052980907764
P 2.810099303567434 7.341823965716457 4.8239927643281595 0.2939593666361389 0.3028402140655365 0.5689151955865814
P 0.7884059914779314 4.033612429732564 6.8008189910671275 1.4415980021489754 -0.17977847501564523 0.23752648045939095
P 2.6026184741659346 1.5469889137563284 9.611683743597236 -0.9272336452250807 -1.017780185256086 -0.2188042214595393
P 8.373386044318936 5.916718079093467 4.365702278186153 0.26512264491010473 0.888922665460024 -0.3269949569348691
P 4.693122151958818 6.2848787899022565 12.487317254507378 2.54580427750979 -1.7774061865001 0.3041478771333665
P 5.03663577417384 6.197505366843279 2.999190957649329 1.2116287652115518 0.4980167688038068 0.7349626941693793
Ni 1.5596022614465315 0.06841936112509182 11.900432262647056 0.2001297849784876 1.632356630325208 -0.4717650341961294
Ni 5.434172428946756 6.962853128331455 8.73676361912179 -0.7855296084836536 1.1105998375919839 1.4229515906923815
Ni 7.452952066919929 1.01358506810893 6.496731510494407 0.7682507667985479 0.11411147183513895 -0.2520390722532692
Ni 3.134835505916881 7.308721978123933 8.698104766463706 -0.344602128493671 1.2178796312172702 0.5673797327786616
Ni 4.717309235166362 4.47932084855063 1.6514506169026741 2.1605766621852727 -0.47350078594031353 -0.02009805630145571
Ni 5.7424128381462864 2.8763308790756548 3.191757492418744 0.2692438661673298 -0.7886123611740354 0.21994604837346635
Ni 8.573009981723766 7.001300378511876 1.7710759376004364 -1.5620858098241033 -0.36646473289471726 0.0796625461286499
Ni 7.5195976472757495 0.08594464632937153 8.88851755601483 0.395368560413261 2.0010253128497792 -1.3448221933788065
Ni 3.2659462410978306 6.647547036399557 1.7492220017118092 0.6724136677925645 0.6611190687153518 -0.6034271133205221
Ni 5.542384096001582 0.21838755710881927 4.536159114072201 -0.2525851745647263 1.715168520716117 0.7959819141652291
Ni 7.903702144770987 8.285230612103382 4.7432286986584185 -0.11602514391808405 -1.498673664116045 0.759247277748357
Ni 1.4241490754196477 5.007315030856059 10.65773507185493 -0.589614632917462 0.9011708866997576 0.5052803923447556
Ni 3.7981264724178785 5.568494001723534 6.203202073546251 -0.5417772017192088 0.46102296518827696 0.9518175052120318
Ni 7.977809012491326 1.484915786939553 4.062989293707463 0.37664193053803524 0.6795541354920878 0.653711463397371
Ni 0.6990094647303512 0.2007748708811574 9.629363590611286 -0.3175885760193047 0.18725112924360654 -0.6180762306922645
Ni 3.27436433966569 8.800436644671844 3.0735057478042402 -0.233851602710965 -1.2818329941407796 -0.6959091798113434
Ni 2.3571411998625114 0.38232703668287643 7.740129749495135 0.23806924033673843 0.1733445464648434 -0.6533353110048749
Ni 8.699207859379866 5.808800815485823 6.6229155879889205 -0.4156867031453228 0.7454314549111872 0.12762339027864472
Ni 3.06721471414227 7.516368409464472 12.517304085624406 -0.9962050301884714 -0.20312666282328243 0.43494863669872835
Ni 6.080130392494914 1.5001695655466696 10.648511043850412 -0.016219804292972068 0.995360679910305 0.9600170103036886
Ni 1.0913535787035944 7.396141401721533 3.2745152214323707 0.807248488217984 0.7168610994726622 0.7239154352162823
Ni 0.7851095928802657 2.506247345752459 11.01483449314663 0.02190605604447195 -1.0968680898281884 -1.0860779411912198
Ni 1.457701868290669 1.1473730346376905 1.6388464693201956 -0.019347551288676355 -1.247046996809846 0.4143978091305702
Ni 5.806114384030288 7.967026486238287 11.306088743454533 -2.696548312966298 0.05699904309286312 0.32246570160594784
P 8.642755998382722 9.019003603881291 2.916958554786768 0.3076209232836315 -0.5037282173662873 -1.5171912633042581
P 4.408608820580609 4.755802485885406 8.772837241509306 0.18533128651307437 0.2773104452255482 -0.7663617773059511
P 1.7024707342993108 7.944513822636589 0.9364716051842453 -0.15786059189663135 2.1339197217193764 -0.05289993332282503
P 0.7296743437866715 1.6436176451860884 13.019008040096486 -0.04709618215685438 0.4936266101559112 1.5217976517280178
P 3.9819446247521264 2.1430178926839685 11.904768273417584 0.8651723571179616 0.4242412775835532 -0.14671280280992796
P 8.553643754963828 5.660550279614248 11.726635787657036 0.0412086130278258 -1.077118932225719 -0.6589608847217683
P 5.41253377557888 9.109238260442567 9.410014622245264 -0.8035337583705581 -1.3579332768394676 -0.7281549272189266
P 1.231968025163887 2.3122262739518105 3.9248487562142715 -0.6502875253174865 0.4451147785984528 -0.4803476336588179
Ni 3.129361441820841 2.6527406610486666 2.6992646858003715 0.12440514045166318 -0.20614153839020624 0.42718621914449006
Ni 5.8529889328862925 4.177299712172818 12.321263590178244 -0.7947819803198571 0.014471968363929916 0.9739048240293745
Ni 5.4039132746410825 1.9480492097877034 13.509184259589846 0.3975527125487734 0.388136561441196 0.6283974101126145
Ni 2.747060165439593 2.699891213136405 0.23877591583694371 -0.5708664057756814 0.8102533364825788 0.08526857946151765
Ni 1.0733121674559738 8.738188715808304 5.450384858778758 -0.4450690129621819 0.4057319059254561 -0.9764479021662021
Ni 3.6914328231375846 0.054806881736015084 10.79556556571781 0.3037377861791414 0.0030835240213301736 -0.5535420555646209
Ni 1.5406224392110182 5.61199211104467 5.303021213291819 -1.6082381400104497 -1.294898569075486 -0.4207803156181463
Ni 2.9382016035224923 5.032780929037302 3.5898185533319524 1.402397420690114 -0.13502148251492876 -0.25243090837504917
Ni 5.668131168379184 1.534844771560072 7.984551771442566 -0.021059134663144376 -0.5829565041709961 0.10788117465471098
Ni 6.333887763750331 3.5859811884000896 9.038614553506699 -0.4931676682416216 0.5770969600664254 0.8269757914435821
Ni 0.9215103900027662 2.6159218299354703 8.665989950430015 -0.0830772282371537 0.6474821946582073 -1.403697113338144
Ni 7.3905661364405235 4.78849046863033 2.5586870397709762 -0.45610881571611134 0.6457469571346556 1.5613890408673947
Ni 7.958893591009884 2.517959082885667 13.022050515720958 -1.0060847511960287 -0.7124603993018053 -0.34101286848051593
Ni 7.74903913381548 7.688300022618747 10.334392685825735 1.8669543671735782 -2.658318837171454 -0.0918806854613966
Ni 6.546704655632003 5.582846169773655 10.567948460539833 -0.16952877226317897 0.3554550120477749 0.12121054477376543
Ni 1.6942090375627668 7.1746028077170925 6.945650766908303 0.020954233654163913 0.34992714025101024 0.5008930619103374
Ni 3.462129338213721 0.6122947693844444 13.275763726459296 -1.3788440588502062 -1.3768113446908932 0.1613179543176125
Ni 7.975490585344767 3.426248918088418 7.237834228096375 -0.7163882736013018 -0.554045991784233 -0.1685854345133032
Ni 8.04064574824923 0.3330135392691226 11.565011975197221 0.9438697111198647 1.294998070767828 0.6194096047917074
Ni 6.16343736793969 6.37539864980299 1.0270687459898646 -1.0792452345401025 -0.02956305836909747 -0.4329367484750221
Ni 5.335574874463966 3.64478827697469 6.8251633961167615 -0.3166876614715901 -0.40902985995043745 -0.260602388442248
Ni 8.674625171540171 9.124400037972439 0.6680695024530702 0.6084646757444295 0.38337076462143654 -0.7246440858521908
Ni 4.961774497620098 8.64343680635433 1.0350875598824838 -0.29428435407572545 -0.6950488886935772 -0.31279963927109355
Ni 0.6347678725229261 3.9139190282376406 12.732601326548588 0.9024345839035297 0.643648422734414 0.8262926493336286
P 1.7789696300280031 7.604183437694222 10.421715508292227 0.9474720837591425 -0.78085174339201 0.6724756313787515
P 4.80808669808338 0.9961324637556732 2.539795538569618 0.25510536988341875 0.39736450779736726 0.2648015141252601
P 0.1316655016767328 9.272052566841925 7.407146570581503 -0.054231764760371115 -0.5575357501050462 0.20958064597874226
P 6.327272886296461 9.26726851082522 12.975810774297939 1.5688138725765564 0.26884328829480153 -0.09211157052528007
P 6.620314717535223 2.700820424016573 5.380096035764061 0.5610303935218661 0.8771511267463926 -0.8421067335477497
P 4.406051190633216 1.2943355554278444 6.236960028819526 -0.9162300950257254 0.13555550064152783 0.8955707669041608
P 6.6835930584639 3.3643873937493045 1.1123298243153104 0.1789366958406402 0.23352507260948166 0.08868866088666016
P 7.495925770100773 6.289690446242136 8.586235136577645 1.1820004008221578 -0.46518069611039237 0.4043226842827553
