# total energy = -340892.1796023362 ev
CRYSTAL
PRIMVEC
9.07130258860171 0.00000000000000 0.00000000000000

0.00000000000000 9.07130258860171 0.00000000000000

0.00000000000000 0.00000000000000 13.27676827973936

PRIMCOORD
 96 1
Ni 6.5112809977737784 1.8542739719275942 11.351317875618086 -0.20908339462734957 0.08455972631995115 1.2725592821483374
Ni 4.618571918053271 0.23474353207974868 5.721105255140107 -0.3067619177174459 0.24567096394339627 0.9712036230481274
Ni 3.049245693586379 1.925610693117934 4.6935897737119525 -1.4113057789233372 -0.4924511017905713 0.20364011212459124
Ni 3.3315446207790775 4.3425866172528 4.949711643893084 0.16566466132208243 0.1497562176219421 -0.1517472799100419
Ni 5.051908028335894 4.325269501185613 2.7235033926077374 -0.08837807162477683 -0.29469495925058276 -1.0812476096821122
Ni 6.747769848413678 6.033686003629549 2.45650775237436 -0.2825151293549393 0.8359713100739732 -1.3288121911037953
Ni 4.86892171858875 4.5996128962720135 11.422933085788658 0.9179928433531028 0.16908937073291522 -1.0213406489138348
Ni 5.530691363079809 7.881274425771122 12.626511659057998 -0.23050274084339012 0.30269391829565934 -0.18464763018248845
Ni 1.995695574592574 6.563595198066847 0.5360286949605682 -0.6399604323598655 0.17011395534268767 -0.4992925501924369
Ni 2.58688141598317 1.4722270047795318 0.1727203169481729 0.3664199956997109 -0.5440647122018049 1.500521515958061
Ni 0.40453835404014377 -0.09577299529290084 4.846550980017095 0.3095618490600862 -0.1542026834290699 0.5028640695937792
Ni 8.838369387539993 2.5311473347276454 1.471663676907467 0.4652372603799407 0.07331834907817696 -0.24433810406458562
Ni 7.014402636555547 0.878649968105902 5.0173436452291345 -0.10733430101230548 -0.9037674437823404 -0.3787183534510897
Ni 0.5526672776166365 7.575290328305282 2.394226005127585 0.13313712100802233 -0.2948296850562342 0.7032005712664341
Ni 7.6888086051333495 4.240579823027804 3.586227782417383 0.7431123198597073 -0.6515198550626908 1.1581865862320118
Ni 7.914865458142412 3.6158210918704916 12.433494303241133 -0.07479287674117441 1.1750499376462538 0.5452499907591577
Ni 7.9953551233410245 8.854189738729712 7.2434593692311475 -0.6367187854941163 -0.5548178369532509 -1.4250305847085973
Ni 6.8261368288769715 0.7138488980548765 0.48166528748071197 0.21981106545749884 0.5231171634158605 -0.5279940318921874
Ni 2.1108376145301357 6.2507350534669435 9.235413031630053 -1.3179575077774786 0.7540819314973336 1.014737284664704
Ni -0.020256218008396408 5.357130136409568 1.5134987087978038 -0.499752777658307 -1.060105428386858 -0.8877013914584132
Ni 6.446539113346583 1.93729453046447 7.0959944649821125 0.30953356692531203 0.37594336180911386 0.36729828453960617
Ni 3.5238925144871103 4.386609647254926 0.2975604861614968 -0.15431246953405683 -1.4482808134857896 0.9036352890798502
Ni 5.63107439419531 5.236817454168026 4.7193468294276 0.6597617833565089 1.0110225548172782 0.5511956668196314
Ni 5.491657549335908 2.4294036082689914 9.431935538650876 -1.4331622126767962 1.8508662033624639 -0.4875613777984377
P 0.19598639305562254 5.685402423596244 12.5030376279692 0.30190973183146713 0.01188646702494082 -0.005637657901751581
P 3.9601314415017916 6.23540455260076 12.73519493176673 -0.10149738261555423 0.5015412370172976 -1.2321405120116586
P 2.3567787621538003 8.542699360775249 1.5574709395071187 -0.13843333640995512 -0.32752974639241655 -0.9885631973724975
P 6.32435774283378 7.832216822999332 5.8738941067017825 0.9104577113183223 0.36087104085702365 -0.10288886364644216
P 4.811699943758044 1.082723427150994 12.588592708365255 -0.3723828981513651 -0.5815704224567467 0.7226939041043554
P 4.131969120737373 5.929202743880016 8.424985606639128 -0.2328714981858828 1.4505824650357726 0.00011158587719980782
P 4.7462142125432605 1.1399270593771238 3.705400201961362 1.1989285440360642 -0.23162091360823336 -0.9105507852527609
P 0.4324634510025475 5.682472392957322 3.608399859468938 0.1517642491909064 0.36306239208138763 0.12617585919884075
Ni 1.5326055928063507 1.0074860459769501 2.914555904349089 -0.7404296308212216 1.17570634028333 -1.0847854476320413
Ni 1.9324958115542856 6.524797238182426 5.013506484361445 0.31749627341581443 0.3524617337474059 -0.9656420697999499
Ni 6.190274823719536 5.721896272699594 9.430846982376355 -1.5598607771483266 -0.051497396548343566 -1.4128764658445667
Ni 8.719734896221672 2.374821582404002 10.180611887578856 -0.5147808756360231 -0.13608180545864304 -0.11964011496285204
Ni 2.4051832311608776 5.373122842342752 7.107200244698088 -0.1147169666296218 -0.9394075615834532 -0.8471000729972831
Ni 0.5198872196698647 9.200477632259727 9.155260818876542 -0.4082688134146969 -0.2616704246954461 0.42470356193195247
Ni 1.5371684578570552 1.2660181611759191 11.28740329395953 -0.47166219006967797 -0.6905787687373656 0.40689275900277666
Ni 4.300268992080758 6.5295052440697345 1.521637481210313 0.739664470520423 1.2531474532806288 1.4038421235564404
Ni 5.6254229728700835 7.751600159568691 8.038233354994446 0.3440771092281365 -0.12549400264046776 0.047506016000763346
Ni 5.296198198943201 2.709851989795003 5.163321763033217 0.19336649811272505 0.8786397954767772 -0.8379330617860343
Ni 0.9156844668255971 7.59174567065514 7.177274240609982 -0.4975367438435947 -0.6828240644926111 0.6150567271396504
Ni 5.245344478318449 4.701057269755173 7.103415697383666 -1.297022043176392 -1.2189672078544942 0.5104884189082562
Ni 7.969901049121786 7.419536068025764 9.313214869960825 0.6702577977918263 -1.0217144873134856 -0.37435107762132946
Ni 4.3699003084410135 0.23541571557926602 10.536682273495908 0.3580492551375124 0.9361080648965749 -0.6846626603632467
Ni 7.682095841440463 6.720193089459121 4.506559477404959 0.4687031074413541 0.8843093350577286 0.30426151989309536
Ni 7.1835824242208375 6.082045116125189 7.010956448816456 0.8219834804353134 0.49450489899580635 0.007604808930451418
Ni 2.3973365546820316 5.0108785280887025 2.5259050291355933 0.2017794047667686 0.9761087736592284 -0.04969479612196603
Ni 2.3161846844164184 5.202727500170913 11.533249192909174 -0.04742528336149896 1.1251263133429332 -0.7379492876015291
Ni 1.1265650311073665 3.4592866995942315 3.721822887622984 -0.36481794131991363 -0.5250421483527151 0.6528424305288563
Ni 4.041428452604008 2.386931770958059 2.029194986810759 -0.6501332591278093 0.2538635270565176 0.4971960726747244
Ni 1.0682274860952765 3.5001619877025316 8.259264706536133 -0.36373062179300586 0.39613912003069846 -0.6857651493988062
Ni 3.77192913293923 2.5275006712079966 7.131761702772219 -0.12146919775179081 0.42085462049950745 -0.382553925147096
Ni 4.2463038147713315 6.897328409230709 6.0140575197394615 -0.339113594575274 -0.15145545970123594 0.036739007292246405
Ni 0.5984873326019527 7.551677728450443 11.27125909727814 0.645677794459617 -1.3816424475309494 0.164964035710632
P 0.1346090546469298 5.651294326994556 7.974584562492916 0.44985357883501886 0.28703435738153144 0.9926468805235679
P 8.459043811078235 1.7272213120863043 8.009541732988732 -0.11695228371804374 0.5750269649112743 0.47733738607758436
P 1.7940405247373783 3.341894976689324 10.328462322175115 0.2199077389363632 -0.22148639627739275 0.7924052525575643
P 3.90121333314329 6.144256107214119 3.6884060242556167 -0.2388752811778015 0.45274452722956865 0.9065095253038518
P 6.837104033342781 3.893339442757581 10.42270045312094 0.49463011171976107 0.44781417980748683 0.8366007161278559
P 6.113041756042202 7.88754269565191 10.434902261828103 0.911926582554365 -1.0920089619636741 0.4196698561627869
P 2.4198787408669244 8.50459989116698 6.021810761804744 0.4181467346500412 0.49222870136712 -1.183570059302123
P 6.979777475723461 3.953110253531125 1.4768415762532763 0.8975471739042413 0.9429155747367115 0.453839045845328
Ni 5.669999352311759 2.9872070572409144 0.21928149733039282 -1.2248167246567359 -0.4848041267682747 -0.7510107487711776
Ni 1.3856414244435964 1.225977432878086 7.208634639748732 0.17566368151632328 -0.1641903907694011 -1.9910273210968032
Ni 6.781533235528435 0.4898113169350514 9.190191682595723 0.19951040622693383 0.4705972391402734 0.40697940517931197
Ni 2.6398668926455278 1.675560245557949 9.151463571738919 0.862206075400786 -0.7856090555713372 0.5170092507459096
Ni 6.774720687510384 2.080494108377836 2.7258664668536787 -2.0245298237296225 0.852446424910861 0.14197425968367805
Ni 4.032329936409462 6.872064832359512 10.665798654607645 0.7102309957506542 0.11719062498109493 -1.2807806416168652
Ni 7.798526006302876 7.409339924254407 0.16033980358594296 0.83312175644032 -0.44040940270298345 0.4984816242553673
Ni 7.611956532152098 3.902528671975004 8.343944406261425 0.11741791050055263 -0.10924283088892799 -0.6435286093270982
Ni 3.0413355179915196 8.359522553680064 12.398044561031098 -0.3270389227989271 0.14529098276173688 0.32628558957267034
Ni 0.06993611211712178 4.813296492960677 10.293053400825373 0.11338924895713375 0.5220666106641589 -0.21111919411045577
Ni 8.610870197467186 2.7406762749685503 5.799371544148008 0.7352087487419144 -1.2239083539098534 0.9484956399276503
Ni 3.636821156666478 2.6856225413846015 11.704732184225307 0.08249513048143857 -0.19585866840695945 -1.083320947271373
Ni 1.3762707691804197 3.401393648394238 12.555016190077625 -1.6421057392921719 -0.46007937032808505 1.2702689434522638
Ni 3.3368876178265228 8.201781678199541 8.129869836444163 -1.1482521007271191 0.5583286783199868 0.34008855689403367
Ni 5.566604648836746 8.015829052604325 3.6486818844076234 -0.5724088105621368 -0.101856822837502 1.185861683549777
Ni 3.0453994614164017 8.42491757187197 3.6632594671839303 0.7161926126507279 -0.37010515786078196 0.7628416799678346
Ni 3.5603591496835967 4.018251275258978 9.26634707956128 0.24857708184659774 0.20413890613788072 -0.07385185298414378
Ni 7.280817713442513 6.009139059639079 11.405473550275556 0.8710180172654611 0.7853516881448926 0.42925595718932524
Ni 0.6794233058731189 8.967689872953203 0.1885052900589703 -0.5399604602254443 -0.10314468841099012 0.014626748774239324
Ni 4.426387307786417 0.18491124009259025 1.420043431239406 0.6073436747661088 -0.97298462620795 0.0618118911004742
Ni 6.054323216334029 5.4794838616658375 -0.01482704358921806 0.023782704241894527 -0.36332721570700005 1.8218531039595656
Ni 7.99376764544068 9.102235428484118 11.30032173554742 -0.3306382101144112 -0.9227714956886689 -0.004886124447707713
Ni 0.030487739858674194 5.074658854473403 5.73168692925869 0.39146228338031935 -0.08453632928118343 0.44544593668562643
Ni 7.865272648535648 9.135164255788409 2.7556067314038475 0.9494891141891711 -1.1447433162429126 -0.04247642399665588
P 8.708323197943766 1.8405853767754803 3.830985125092505 -0.30613919653178245 -0.7958235342104939 -0.6480144130125937
P 2.021893495599403 3.130742273338924 1.5287929244548375 -0.5255972495252368 -0.3362792104502724 0.1982899035562714
P 4.794246758156542 0.8935459535925065 8.171452686130902 -0.8383128137229562 -0.8455612677552535 -0.4748490724380919
P 8.639453870975677 1.580656281024208 12.552918904988712 0.6178980532431875 0.6309114347837198 0.527815083112162
P 6.312501550743779 8.029862357243372 1.7011122898418947 0.4448067604397307 -0.6192741076551076 -1.869381231447516
P 1.8317589996495647 3.233465700444648 6.125767886021593 -0.02361044033008837 0.3883340221639829 -0.16579758735552091
P 6.916332787523405 4.037818074293511 5.985073801800085 0.7123570409547215 -0.02196544852749765 -0.1750846690844017
P 2.245519239595367 8.537202151588913 10.224014440504504 1.1693991671183794 -0.8427873045545422 -0.15189846077592548
