# total energy = -381163.0903226376 ev
CRYSTAL
PRIMVEC
9.31313394987505 0.00000000000000 0.00000000000000

0.00000000000000 9.31313394987505 0.00000000000000

0.00000000000000 0.00000000000000 13.63071292164603

PRIMCOORD
 96 1
Ni 2.9392996444517907 8.42534101557988 3.6317125426219947 0.10219775111668851 -0.0812039224738408 0.3664048261910593
Ni 8.523184803014326 7.349683333789376 9.264741247494646 -0.2452477603630486 -0.5871947106220596 -1.673103473225267
Ni 6.95713472914804 0.9659675877106542 2.6303867097777385 1.163435750446093 0.257585198882479 1.6627712380613233
Ni 6.696460104144219 9.113441932636231 11.236396940087849 0.47994319913154765 -0.33465298770075913 0.17990574462212888
Ni 9.481515620717724 4.618178338608226 0.8544055536656111 0.6371144782706383 0.011492059799999562 1.100834530675104
Ni 4.7736145476583784 2.4173636669923733 1.4618398279233515 -0.9160038379475322 0.6128733463350864 0.12329956609231021
Ni 0.7739531129525706 6.179068936152536 7.852013301225283 1.4014651386838315 1.0908964456257857 -0.6554436155971293
Ni 8.443864839414557 7.639005159454566 13.059954242031772 -1.6297618730148384 -0.7232875718242963 -2.454390504382483
Ni 0.10862187759224914 6.175772086661598 11.259486993598815 -0.06778199264098003 -1.3703807585742012 -0.38204793204495496
Ni 5.030116888560672 8.518463043997643 9.416546265537688 -0.13662302267409374 0.2189525741119455 1.2303466533360294
Ni 0.4172675253160469 6.230281860871935 5.412688332581552 0.0715651138324961 -1.41321893678565 1.749796909423264
Ni 3.1205984270509104 5.947404724042138 4.572422910503769 0.18411309783525712 -0.36038921612459873 -1.1839891491174126
Ni 4.3326748979466645 -0.08006315170535333 12.624016676674811 0.12475403915064968 -0.4938852631339365 0.04761297389227284
Ni 5.968461720367028 6.020931918197379 0.30772737269609574 -0.3255823928580586 0.14894092080949833 0.2374390629519072
Ni 0.9470060465706837 2.4960875900062103 8.909265435984882 -0.36538718355982236 1.5367295904475018 -1.4691828537457794
Ni 8.404786928499371 0.04243157052446961 0.7182717464655096 -0.5821509775505651 2.138639495792549 -0.08916431497149804
Ni 5.917956593843422 0.7317329505734239 0.7418423576988847 0.3753412094487407 -1.9114804746104113 -1.7562159255757301
Ni 7.397422459468889 5.462320818434816 4.926330390221799 -0.4554657828154737 0.29173921905636857 1.7009071257010966
Ni 7.163076064721796 3.1594993884171467 9.199054780984662 -0.5724484055508205 -2.3461691727795335 -0.8065923426912238
Ni 4.398928534326699 0.5941667833402541 2.7694196956403516 0.7363816860040932 0.0597228697819294 0.7080396445262903
Ni 3.0611899442749415 0.6281206078432524 0.6652166838102127 1.1657919093830955 0.792280554054242 2.7778478804777387
Ni 2.2433198159001484 5.288705371513729 2.352415732020897 0.10417158701360768 -1.5074262134976943 -1.0831294000858573
Ni 5.608928176305846 1.6864595853587616 4.607358339346725 1.281102543732658 0.7058315811313779 0.22564926940583074
Ni 3.8290392291021997 9.592435048506058 7.442587434867908 -2.225477733734032 -0.9917529079543888 0.07962372247091448
P 5.2296507878356575 4.281033569056126 2.064834531129312 0.9937136312251854 2.7057531193940174 0.9648306296422481
Ni 2.4527349505137925 8.962662290663674 10.489611170779387 1.5079610029552417 0.25785053672872366 0.4016286823903599
P 6.162510183624605 8.20543929190749 13.112323858013248 0.16337355129506057 -1.2980831374510549 1.4702766010305903
Ni 3.6405972726060476 3.352905245418016 3.419863886053599 1.5609357553800602 1.2982304616621962 1.7183392051346151
P 0.8216428790210616 8.258971187031532 7.232728995068476 -1.0521915728564202 -2.0327547827425767 1.116487920941645
P -0.16504270693123244 0.87685300091987 12.31525368346066 0.5248130630610446 -1.2068393142427085 0.5396591269349414
P 1.8040658434705243 2.711984665991868 6.907868249467074 -0.5920479249493029 0.047438653097937655 -0.3065855400405817
Ni 7.574791099454518 5.142675427960321 10.013094417281426 -0.9198198692595128 1.6295183895454648 0.6264145753546309
Ni 0.8210393879278052 0.06430532871476871 8.995629854259638 0.6605410847246946 -0.46528971088443094 -0.8829327664251762
Ni 8.834485625285769 3.41644875975889 10.990812386355685 -0.3688571443862938 -0.0645945960519339 -0.5509745519477608
Ni 2.926354387976074 2.8332137332900005 12.902996266860661 0.4034086571089181 -0.2187250314821717 0.19624690498431363
Ni 8.302593907414451 0.624481966328819 7.43266429042555 -0.22404747213634962 -1.562481245490309 0.2358382941236906
Ni 3.912354527254546 7.262558963767557 11.423628189143823 -1.600724605242224 0.37678077010874467 -0.6712407305303859
Ni 4.635538020673504 3.450544143901048 10.200053722820071 0.3226107118242444 0.5380596436583056 0.6293338058839548
Ni 6.309313117312894 7.896001096467085 1.9810060792850146 -0.2051058980368403 0.4677924227016266 -0.8165347986159164
Ni 5.914389663461984 1.7446759869628659 7.348780891089738 1.283973180412234 -0.14346678506880453 -1.0032732498891626
Ni 7.525505993505243 3.1365238864562883 0.9956662412181456 -1.1932872865898867 0.3365594606948526 0.4057581311777012
Ni 1.5240850913629915 0.513926682085952 6.200720110436525 1.7390345287004374 4.328859177655235 0.06741123956512261
Ni 1.3533101503592386 6.759770790131214 13.263147271716333 -0.9169934555543111 -1.1507954359742631 0.12177515902798382
Ni -0.0023972007315463833 8.933139655391717 2.767675345613084 1.3335713030553356 1.8478603266566045 0.07912904222268308
Ni 5.132058455023402 7.553650284922233 4.441922618154143 0.9237459437867962 1.0962957622644862 1.0714303664813742
Ni 8.056010054387437 5.294479514689948 12.80594595845624 -1.4968936893974865 -1.3309963432393077 0.04933638434128278
Ni 5.489775937924322 4.649125883405929 8.322900265126432 -0.6536906374617645 -0.1699658598005976 -1.001526956622017
Ni 7.685710527242853 7.610404524463973 6.92387100788594 2.0914774933947657 -1.2606561029528482 -0.3884031848390214
Ni 4.288148803550692 6.623566203111533 2.6348989232759292 0.23877732214735656 -1.0788323153724002 -1.9067663569641933
Ni 7.25033081862179 5.579470732972974 2.4909038995354305 -4.052617025793201 0.22973320966721725 -2.5030355190836957
Ni 5.550562764555258 8.400437694848897 7.135855636213002 1.3144034718776332 -0.17373766813820402 -1.1539558359801159
Ni -0.29734695336671896 5.175979195699288 3.3997996698296538 3.477194110995089 -1.338093102185089 0.4233516758897483
Ni 1.7826549480477383 1.1985444869682604 3.8679197015732942 0.31888621178480564 0.5836494164729626 0.09165597104510022
Ni 7.173907239744285 -0.29415999885881233 5.253481235511963 -1.1567966478630205 2.053931416820192 -0.1670790251711058
Ni 0.17177703423885166 8.391431894120826 5.222008429947906 -1.1375714810848214 1.183622252696297 -1.5638783829481517
Ni 6.657764031729398 3.5986602295052186 3.709189436972451 -0.06249091944536979 -0.504667441351105 -0.6572868394534551
P 3.134614693954474 1.9246523045119486 9.676048366951369 -1.710179809252274 -0.540683711544714 0.44823764049815057
Ni 2.0176998278564704 6.63897012700422 9.981825569355369 -0.0882986245370931 0.31491334317998665 -0.176806793981831
P 2.2188542124744592 4.775467861355261 13.57845274167451 0.26655963446694736 -0.11932438349464612 -0.08150551287465962
Ni 2.398644267340438 2.491803548294822 1.9089131077896744 0.5093810447766904 0.18237477498791171 -1.823255640734047
P 1.7991578217707382 8.03556772491679 1.564682905772304 0.15206018316477038 0.169616703991295 -0.28479081276299345
P 6.348335149423148 0.878236001341916 9.295710212500905 -0.8644305938559306 0.7044624686979932 -0.6477812139558651
P 3.9794649719768587 0.7980368778778968 5.329513662754949 -2.35035338606421 -1.8237647191599815 -0.13240332816579134
Ni 4.640585739385617 1.2171428158761786 10.905238653170704 0.859610546759468 -0.4966671967544478 -1.0896255493331621
Ni 5.7294215060057185 6.197760396402006 6.379296663922084 -0.6243391808828409 -0.40653794676651916 -0.05877721803920845
Ni 0.327034431113224 2.0808335642945157 1.3952807207430262 -1.8605111826513956 -0.7227368415271489 0.8081473458831694
Ni 8.186459124499208 4.9940843725142345 7.495978701666207 -1.6826312102100442 -0.3380843819798113 -0.5496162381476535
Ni 1.8797909372863892 4.521247238320989 11.210103168427494 0.3785802852113287 -0.44717191823779756 0.162464666327546
Ni 5.092477634863837 2.350355666745768 12.852045041211024 0.6683734362849199 1.1749339808936796 -0.9105782960565866
Ni 1.2367935289436334 6.959649275369942 3.4713198835744494 -0.6533401961008811 0.8747677141158805 -0.5059987585680189
Ni 3.6749068588337743 7.053004132141584 8.277196059259827 0.6554616133192582 -0.07851249168460672 0.30954873643396363
Ni 7.3516390919619665 1.8860959291094543 12.580971370609516 0.3627263488982076 0.5202436985228072 -0.11408807479637124
Ni 0.7235671945461518 2.9638490660848764 12.848678343213923 -1.3817954281690459 -0.2215650720341281 0.996777871972806
Ni 2.781022929484305 4.514122690692267 8.746105844779828 -0.9653610482244213 -0.9882554363240916 0.1217327358258226
Ni 6.059888758368546 6.747030422606911 11.382490212953511 1.7173447024318296 -0.7551440542132607 -0.11863481362678922
Ni 4.424316138033753 4.296186038326623 5.563620709954253 1.0242046007251908 -0.9150178198851789 0.815012448434119
Ni 8.579072921079632 2.691058053545152 6.744844630020688 -0.2665020417561345 0.5360017326880123 0.22306942449379646
Ni 1.7740496120883409 9.017274509349718 12.935874424368736 -2.1150223705942417 -0.21683141400388464 -2.042810367206366
Ni 8.890196793802126 6.969176611610703 1.458827029024147 0.46609575172549406 -0.44690272373681106 1.1024268148628886
Ni 9.252878177207762 8.314114254364425 10.966712789102296 1.4181050612333577 2.878597843404307 2.0511721089074997
Ni 1.2219018274294817 1.636867145982365 10.913757376982458 1.2832350166946287 -0.21895385966352612 1.2029983432300637
Ni 7.78432730481218 7.601938885516902 3.6969352150510497 -0.14205859186736824 -1.9116753642300366 0.2242405619837622
Ni 3.800717988136261 2.415063322856041 7.759883121595048 -0.809961773384089 3.154815312675993 -0.24321478909341984
Ni 0.747778549409404 3.87469221273095 5.438600265741543 0.6593740609997869 0.16341623160753793 -0.9499596260676865
Ni 4.282626114996663 5.049255379249591 12.20254147734745 0.1433199750782951 -0.6918293533150149 0.5631242999364172
Ni 8.772292515397396 1.6477635129439396 4.347257403406863 -0.049201915645947523 0.21197742834569297 0.04524678765294143
Ni 2.8142801315524952 5.683209734327656 6.778349561457406 -0.12309799160446543 -2.1481332942155973 -0.8652253218430841
Ni 2.698638944747478 7.75327731553877 5.9708794099937155 0.13259898911636517 1.0379936840894832 0.014956621309832305
P 4.127087461470804 5.599000375296411 9.98868189872042 0.34755529758472403 0.815966327706956 0.16729371228507317
Ni 8.290039802573252 1.0222934230812546 9.913086257469311 0.7398141087244098 0.9839400967781893 1.0134630459379708
P 0.2810471059683022 4.748115186341463 9.294756547563415 0.5310495308890596 -0.966980328995399 1.2719900399084287
Ni 3.514022466302835 7.249809283109099 0.10771850357919553 1.0454773940610382 -0.4048772712346446 1.2949433062704923
P 6.476875027033105 3.850990286305987 11.823675729406922 0.30061800960323715 0.5290124458543728 -0.13883725671659317
P 0.8744539375614926 3.3754057775369595 3.216262009779626 0.15177221961070636 -0.8373080266075258 -0.08965488145467139
P 6.628818810775061 3.5121970920084173 6.057229858567239 -0.26326270888323045 0.6312575052692289 -0.2327992501870507
Ni 6.463110214751732 6.726876800295076 8.598935042292409 -1.3937022069089609 0.0860684496549937 0.9468678745162403
