# total energy = -340859.81406984385 ev
CRYSTAL
PRIMVEC
9.34961970317022 0.00000000000000 0.00000000000000

0.00000000000000 9.34961970317022 0.00000000000000

0.00000000000000 0.00000000000000 13.68411350963435

PRIMCOORD
 96 1
Ni 3.5105391693237076 1.2483612444219878 0.4945687119415726 0.18286148481634315 1.214244091347212 1.3898296113274322
Ni 8.803125234603641 5.801364329492872 9.020636661075198 -0.06666459120708518 -1.448329407335538 0.28120926605932217
Ni 3.456386171063581 7.707854665856951 13.617937310106138 0.9566249539030041 -0.0010999179323981057 -0.902475207333478
Ni 3.392107534489276 8.413526574814364 9.045363600733097 -0.6506819325424278 0.12411614845633465 -0.7812188969234417
Ni 0.6994301027353044 5.71417912424845 1.7649772949680504 0.5999427543163474 -1.2271271179574672 0.7371561022762724
Ni 4.742239391145636 3.9203236584022827 2.6274180200557917 -0.027784883422752146 -0.48590481603162117 0.21006787002780594
Ni 6.550923354098254 5.350712651982836 7.9802464910141575 0.4113438527955948 -1.4038506081968727 -2.4849280108497074
Ni 2.2548945710266097 6.4434962218453435 3.8876018587975185 2.3718218403506315 -1.0478142697243311 0.0939913040464962
Ni 3.498216370341172 6.1236457262516035 11.276435340342786 -2.3114646794188127 -2.6098211466813828 -0.2836441007530599
Ni 2.0266049027742756 5.815949736482823 13.170179339944431 -0.11660004258494758 -0.4780711789198154 0.3433266042153571
Ni 8.832632634898697 4.925211451910602 6.869356447320407 -0.5120956154943761 -0.5306047300421571 -0.4724332639077476
Ni 4.752056492004257 1.412119836363653 3.0696344705233045 0.24500196290082968 -0.7202477565567079 0.0609513428723918
Ni 0.4650482221787058 5.564239270467778 4.738015232890469 -1.7303470282287683 -0.6465352573639058 -0.1293732830902159
Ni 4.729738949385658 3.038598407380263 4.949106275400486 1.0086039180734565 -0.7034887919308143 0.5041910159353188
Ni 8.112094830355371 6.2552790243359135 0.43404114285724765 -1.7521520399190016 -1.7164800404386888 0.93311118705178
Ni 0.9408802959101101 8.860662795255026 9.759961591775964 0.5328770710161016 -0.524312212165226 -0.879459206054279
Ni 5.163991393651862 0.4818307898370151 12.730112367083962 0.9414641870021656 -0.6542053723146539 0.0852086727578597
Ni 4.59538491192053 5.244772109288517 0.4770680934776041 -0.4116570131606394 0.8375862199695769 0.024837370758654
Ni 1.0743741683476262 8.410731038474625 4.24515376153631 -1.0157479853174056 0.1337331027208084 0.6181042557167227
Ni 0.8941976439224005 7.245553361994686 7.7396527230190175 -0.5702830224683855 1.1682475700124397 -0.997429646624192
Ni 4.102444903759502 0.6143261228729114 10.510959522878625 0.7553808528144151 1.3425192562772428 0.8688505773004973
Ni 0.03678981920817915 3.173588218996236 2.5269498098686634 1.285886852495179 1.1527538452522146 -0.3490897319513794
Ni 4.487462249814755 2.6313476652851997 12.092760935368645 0.574176958206153 1.2466726441895626 0.3687391307511908
Ni 2.3837229831513147 1.3628660389129712 12.077557518505595 0.7986980275448116 -2.812823882332291 2.7310728291057287
P 2.436015407058236 3.395809983955956 11.904536258163324 -0.6284020380983047 2.1396445400182955 0.19206397725121763
P 1.5556271516769626 3.5565486486811118 4.807380062671526 -0.046237947921617145 0.051625180375459476 -0.3974745510126703
P 2.9224293805532477 5.289538089203829 2.0756062604885925 0.4157468669592969 0.7612542808760566 -0.9043616257229136
P 6.027494235556309 4.979579491427632 5.800463026137852 0.06477714437638521 -0.9708148722501408 0.14591318972676806
P 1.3896153013477475 1.6654384369955384 1.533975301992777 1.137636272884486 0.7273224040153022 -0.8629288124994237
P 8.19312798572839 7.6143678168232825 9.636325958524477 1.2890436529566058 3.8254901434005792 1.0864795475050126
P 6.114642042321267 6.627337797257788 13.080220102485958 -0.1953264500525733 1.2668488620271214 0.20334134993724978
P 1.5521303938473203 5.079339935390954 7.397659522698161 0.3171080368384603 -0.4525347252116077 0.45356008115232854
Ni 4.596862151859256 1.603656148925283 6.998356892450634 0.30849972634415906 -0.3910419080134491 -0.13528707747148958
Ni 0.08403251342582342 2.3796745977496165 7.729567288070261 1.282175979302495 0.7971540800964594 1.507867414800171
Ni 2.499854611498869 3.302603623518248 2.7565418801682418 -0.12443727924117923 -1.2885785403947292 1.5727425182070012
Ni 6.903104835186387 8.437592496347785 11.584696982113421 1.7552939279820932 1.7378744469540648 -1.08129157554617
Ni 6.300998665477492 9.518660992519004 9.400397650842148 -0.4390135507967213 0.20817013878446083 -0.6169858258415633
Ni 8.209377625054374 6.524239539002536 11.821883748629626 -1.2144052995154246 -1.1479458823406101 -1.062664704473602
Ni 0.2501948926348708 4.562240509497852 11.195725681817109 1.593119024980824 0.06541889172544217 0.21811568003294696
Ni 7.54591924978903 8.536670418060936 13.802754985832525 0.28025153013174314 -0.015173365306328705 -0.4982880201873225
Ni 6.149198237343614 7.199646728455801 1.5238216148190031 -0.6642601854474947 -0.030360357459412228 0.49164043296381776
Ni 3.03148334666273 8.029182401389416 5.77841849241932 -2.8849952622902184 0.2703586964980634 -0.6551227419226008
Ni 5.5595831597748315 5.073683415372415 11.748605167972931 -0.11928607405754295 -0.24905067904890657 -0.37990646022191993
Ni 7.170036482342226 2.15225444414476 0.12321116050960036 -0.2588144433038898 -0.06679160370325271 -0.6688380346261642
Ni 8.59803197323725 1.0389484586778022 9.69282758129478 -0.378231129402026 0.20544014144780748 -1.2223466658496884
Ni 7.441156759197744 2.196515544587343 2.8013705025366513 -1.7561963851917046 -3.033738465266614 -1.8011580375040595
Ni 4.929456179329473 7.614442613782205 11.402314882361958 0.1375103103750535 1.8982984287024984 0.6004271501519336
Ni 1.6965352726677039 7.803604122898036 2.225256276053439 -0.9559209858574441 1.2950492357207375 -2.017158728076532
Ni 2.9132013057461434 1.9407753924103313 8.637658467112578 1.2636907760141138 -1.1308480463180588 0.6386226873850486
Ni 6.871381574983242 3.5845227113182494 10.38676197747323 -0.4479931285875124 -1.1965682713340036 0.11656841801606377
Ni 9.260574085755788 0.4197128504135936 2.336562565588485 -0.22515227516475417 0.8234438670309238 -0.6398838134856593
Ni 5.548793698450213 8.247056593111747 3.8020219832839794 -0.11058700362164825 0.9321171985696269 -0.8748628449328482
Ni 7.127177824879446 4.351976908345919 1.715344837912822 -0.8439144761804498 -0.4459164485641417 -1.1458298644388718
Ni 8.533968377919848 2.4861854672557224 5.576440524392064 -0.12855155851986894 -0.6273923658868679 0.8945533813832399
Ni 0.19781177741525527 2.482080984134832 13.026236332345395 -0.5217591067260692 -0.9519884835722573 -1.0053069924897395
Ni 3.5733031674798252 4.89141257609735 5.408412896019878 -2.6790846089638958 -1.2382828774639707 0.2932345726549724
P 4.4404991092310855 8.295029492640877 7.192055772087119 2.3642465991065347 0.10019023376835648 1.3082474795785664
P 5.242574948620158 3.174831718438328 0.7305933207085139 0.21490128686070734 -1.4745040088483765 -1.5218614150864178
P 0.49522786014208003 7.246768812577182 0.26185667349292613 2.090847316009935 2.275416270435688 -1.2621545418752456
P 5.165010502217187 2.380637608595748 9.248134416524936 0.002269769870783188 -0.885617512346191 0.3994399022691572
P 6.530793622528148 1.7621322056430233 4.692447055590709 -1.1419377284733172 -0.17342630754537228 0.7344405031173222
P 8.542869216031665 4.429597452468083 13.050306928688748 -0.2596035148640884 -0.7035566690542722 0.8286110130541601
P 7.8136175657738285 1.5269799164095195 11.506970787286779 -1.2017030214574078 0.15939759736644804 2.336864607549156
P 8.748897439384592 3.7013649107755713 9.42988728685946 0.422257414384305 -1.3529206541162246 -1.3251895067495434
Ni 2.2830369268213238 2.936986738683603 6.756093282347543 -0.06687233634251709 2.2964543220529094 -0.3119799715832756
Ni 0.4611129671773785 0.3316562605977221 6.080139140132154 -0.9366865631078642 -1.1785690065431056 3.097944053410245
Ni 7.013149861001596 7.915967854439852 7.684437607942187 0.48624060210448516 0.11230835718812915 -0.41241291749005743
Ni 5.704324624910368 5.76629390537793 3.562221063053422 0.8060336419742763 0.14782197671370673 -0.24903756642278402
Ni 5.89762801562655 -0.14703305696453434 5.91051085683902 0.7606834959742511 0.5699595776906958 0.21761405780618007
Ni 4.451400765994087 3.9196411361521117 7.8415448803116385 -0.11676613584916663 -1.0223279525277684 -2.047026205059926
Ni 8.466660464509168 7.7302937535337986 2.437824558502182 -0.8857182995901134 -1.6587796004034272 0.5277526053053426
Ni 7.537906625564422 3.8285945379033004 4.159272828263107 -1.307875183840812 3.2640614859990307 1.996061541086601
Ni 3.9034382449254545 7.436528697364395 2.343144697973694 0.738605176017973 -0.6591578312239229 -0.16242738533170736
Ni 1.4336146124341005 1.8260181581829833 10.303741092916837 -2.508834128043344 1.6567710546138306 -1.87144042796939
Ni 1.6687762512874695 -0.21336206517531106 0.24567248150599938 -0.9967405909769673 0.7339856749680908 0.056802867921657015
Ni 7.986361142406099 9.478083642303371 4.553088166611658 -0.002855724281240243 -0.6515702486846521 -0.619480824349275
Ni 0.9541661057387774 7.3244174055589415 11.51292369025505 -0.24180942410546097 -0.15067255878862437 2.0588599644700607
Ni 2.865995075045974 3.9253444042699774 9.755486863708406 0.17849240921437 1.0518763556088464 1.0116835854400448
Ni -0.16644006291904842 9.40581108074419 12.401063715466686 0.529930843903584 0.4410213252553695 -1.1718226889582077
Ni 3.1716528476841077 6.399029429765723 7.969846908837925 1.421938833157151 -0.9020224360667755 -1.9377214105848113
Ni 1.7370845740237417 6.170945453150425 9.750655915123978 -0.3944385923998239 -0.54427888509514 -0.7752562515821035
Ni 2.6145089999076983 1.0918579574958371 5.487384460212586 1.5504505395780201 -0.2792806815780416 0.1977890526604529
Ni 0.7670802122330556 1.4917879472363293 4.252065000540779 0.5056352045810131 1.7101589833166675 -2.5846932412655033
Ni 1.6795376637524912 3.6781778535094944 0.570612910154438 0.8972029031909451 0.5371263332107589 -0.5305260542854218
Ni 6.41525102023211 6.588873461131724 9.763888432119412 -1.121490773472875 0.4932617706173247 2.2438179268041165
Ni 7.279062399592113 7.057439010303775 5.06372420029184 -1.537649788268926 -1.1818350788888872 -0.7256427023200341
Ni 6.821613548439966 2.7484423044788855 7.484882126422042 -1.5117430957054931 2.4665088849125714 0.4512229483787197
Ni 4.742127195707251 6.663305784879802 5.494595822014733 1.9422236693305388 1.727644541695941 0.754920625348545
P 4.6978567456448035 5.394169685116999 9.186993512377445 -0.5938847210477256 1.3923184391875567 2.5293399613061793
P 7.82874525071597 1.0614997417930345 7.401107662504503 0.42889523141579683 -3.7536455506544515 -0.18250101615313086
P 8.286745729440172 5.491611423353713 3.043237688757452 -0.06079270580734047 1.3381144423413276 0.23613859897292877
P 9.022906748778505 7.519375678991291 5.853516509101812 2.342651132323946 0.8161668737535364 0.9783070668621281
P 3.2706372731986044 9.118403766083224 3.901532792396895 0.8468131378844835 -0.6354329768031572 -1.4434404546743527
P 7.04366702024211 0.45262912211155687 1.6146297977612483 -0.7601749317689489 -0.15335421938584556 1.4153300695913817
P 1.9297147921096178 0.33895644378859 7.690731772035543 -0.4487410624971304 -0.4053259287362891 0.21947116561957686
P 2.746862218721641 8.297264051788696 11.108722794160064 0.8445094294519713 0.49807333307335505 1.1179249104984876
