# total energy = -340872.83174200286 ev
CRYSTAL
PRIMVEC
9.17615839243147 0.00000000000000 0.00000000000000

0.00000000000000 9.17615839243147 0.00000000000000

0.00000000000000 0.00000000000000 13.43023534762784

PRIMCOORD
 96 1
Ni 5.515953878297277 6.124406577704274 1.3874644869242958 0.9526351160173205 0.2729118019372203 0.7774959395458998
Ni 5.3867810990013805 4.494931929055597 12.511217328782083 0.9745493995919086 0.0602111222722576 -0.7225082704561105
Ni 0.7028716970515997 4.55965137299777 8.07444572577133 -1.1312036298852646 0.21721039460985817 0.26256465437494136
Ni 6.24412791403116 0.6584444094023126 9.657668866516117 -0.3680351627056307 2.7082645729619617 -2.436839639982913
Ni 7.740768496253226 4.602155337883654 11.636103636202206 -0.580065041555814 1.2802959886709628 -0.8029362339958753
Ni 5.218297657880973 3.5396112726858813 1.23881531180148 -0.26185605834369097 -0.9244663668925884 -0.6702541982474005
Ni 5.512366000432341 4.246303922021263 7.833198102795224 0.07840913333752303 -0.08305640230154729 -0.24911238552477744
Ni 5.393112648174795 7.741851282923462 12.900654401354066 -0.24740260192252228 -0.3411203405926577 0.6235819910018422
Ni 8.670597785081279 6.875144786506895 7.192804114232079 0.06075336792897279 -0.9969758469162249 -0.3927516916157042
Ni 2.500640757961303 4.198927417119316 11.965828694373947 0.22345637551957 0.35234886231862544 1.744776573390537
Ni 4.766940787240456 3.627234407551017 3.578230969796248 -0.7083826296880057 -0.17605551763810323 1.4936852097625177
Ni 6.38593626319922 6.236805339769732 6.0364072203520225 -0.11966916842857453 -0.638589520154268 0.04166446961832179
Ni 2.4772323783361103 3.154799901473782 6.249249127935048 -0.8012855857663297 -0.4347874285305157 0.8941427762083827
Ni 0.7104392747375644 7.215249914859747 4.274051706869801 -1.5469867493991356 0.5303285935626351 -1.1657839389632956
Ni 9.038396558949156 8.730169404260717 2.232373937099514 -0.8154338522422537 -0.36623564760304667 0.10960638487593381
Ni 4.491665216728444 1.9273419207040936 5.564884824402088 0.25188712005643715 0.9389421919112604 1.0044454158203926
Ni 7.011456616899772 6.952738380435012 3.3594796163180347 -0.49198573211837854 0.7941988541228774 0.0419963990364438
Ni 7.395607304719863 1.3035375085911187 5.124856838702874 1.2118761053356677 -1.5692357906053231 0.6462969161008547
Ni 3.2257407806907015 6.966071338332073 1.5498760641489788 0.09860566289005598 -0.01971110527568218 -0.6612334828060289
Ni 4.282256109936396 6.3822841522267275 8.165918259010736 -0.32784702052251924 -1.3793834762934436 -0.043335686673157625
Ni 8.605089191531984 1.7563258599143212 10.115142564227646 0.026276931418657973 -0.10694297911115774 1.0183591976880075
Ni 3.8628689745425158 0.9508518673154362 10.512194012892527 -1.3499988524837396 -0.5956798652749354 1.7323900268007262
Ni 3.6733813072511707 1.8011697451469024 8.45433317048132 1.1539231829699674 1.2633313357921663 -2.304165317543922
Ni 4.1358046247078315 8.715827068959198 8.625326290875536 0.9713674023195011 -0.9322205569167107 0.0065604268263370884
P 6.273941252095547 7.026175174688408 8.566502528591219 -0.7184230446431433 0.07483632838460015 -0.7723233942060247
P 6.741475689682051 8.216084316012276 1.410967380979178 2.901340536417461 -2.5452396632555714 -1.6064882471988784
P 8.467942330740874 4.268152354748658 0.9247833194215872 0.15677250103877516 -0.6925983702705556 -0.6314251411953448
P 0.26788601029556125 4.5267181411377875 10.287223976987034 0.7175627535253771 -0.5271106008459696 0.2445453349793853
P 5.383284982718668 5.658542200914236 4.12335074276847 -0.0027629074571178225 0.202637896112322 -0.35160529928438156
P 5.734777723425446 1.235514647688904 7.43517948705371 -0.49959542614483643 0.9705791020902511 -0.1465896469685024
P 2.207260627276611 2.0963392266849508 12.379493577500376 0.026263818792535417 -1.019373754995451 -0.2074682276214298
P 8.449984589099753 1.051229862109626 13.073662606093908 -0.16123850722992877 -0.4223929115209048 -0.41998970139605085
Ni 1.8024819357726973 2.853271342287651 9.330669127336414 -0.9555134660063802 0.5415398888974222 0.9995145541776788
Ni 8.69807120279897 3.1658204674988135 3.791932683404707 -0.6382383074624363 -2.9615529442412996 -0.25669302608551275
Ni 4.0222863713392485 4.893929640879436 5.651617871919657 1.4217177182852805 -0.5723550745060659 0.9966521450282191
Ni 2.249838001428274 8.902084728556279 2.8579007141108224 0.9508739103518399 -0.13033950365822713 0.21394097982996704
Ni 1.0609290613506408 0.3716399136997506 11.570523468618779 0.1347116645839938 0.24081337874077885 0.8610534498535817
Ni 8.944863978188835 3.165811291340591 6.178592709623021 1.7324481337321713 -0.834817398975188 -0.13901543416567028
Ni 0.6774858553294928 6.963703889510709 10.597019337115672 1.303104501925046 0.8408330090416487 0.9465796538518602
Ni 7.029588705547118 2.832606633970939 12.894180621728204 0.5208103696595546 -0.36506348167181646 -0.32251146724221874
Ni 8.04979397670701 6.14630089122278 9.500064678584119 -0.8319177088298899 -0.05134158769676964 0.10324881808902218
Ni 0.649219617541393 5.719627886200361 13.014851690431101 -0.32306631130442426 -1.2878650592674723 -0.11249347661574174
Ni 1.376864188945847 0.5596272791217429 0.5504667203683797 -1.133469543101306 -0.023915116054700748 0.4754059733828264
Ni 0.26053498994364377 3.1402648668495936 12.116153435988162 0.5543087585273163 -0.6327600579566844 0.1506810434290566
Ni 6.167607930615056 1.0662512331195986 0.6482496976172916 -0.05264873654396739 -0.008894474276152423 -0.2569012854415769
Ni 7.607649968921723 3.6983221052994937 9.090093199142183 0.261992069700923 0.7450447609957298 -0.2199884715756276
Ni 2.007339668086464 7.231766999659961 8.32369679394896 -0.838374520198827 -0.13303144866809347 0.417012621045598
Ni 2.3458114402757397 7.33425551084529 12.725027321057565 -0.4335108758109373 -1.0668900554088592 -1.0619013439450162
Ni 4.1182781625031595 5.997949941242191 11.430097048879002 -2.119358278965434 1.5479329153624892 0.06884720068070078
Ni 6.815068478625228 4.377321109119851 2.6657804070254874 1.408213770261575 1.1547425935474693 -0.336182279861092
Ni 0.7745576803161732 0.6078048626365007 4.755793590231956 0.8224917875302996 0.3472465080950536 -0.9985185088129965
Ni 4.29128544962718 7.501812159985239 3.6301120507695432 0.06523660051130702 -0.5283853537933352 -1.14257973293269
Ni 5.766793339463194 5.268986755901187 10.02705419814064 1.0033095024437366 0.18554340252388044 -0.05793389620230668
Ni 1.4367753259795126 2.9315990288735554 0.9428686096619994 -1.441369431077937 -0.08916868584687224 -0.6126488890291061
Ni 6.586628019680044 3.142320326291398 6.007209602504355 -0.9481876217689283 1.4808119533442754 0.35861952581868556
Ni 8.368280076288027 5.348654161587553 4.404660554927494 -0.267124762941798 0.08997858334267729 1.5371229692311785
P 2.7895704519081588 7.871758154877146 10.388514999524347 0.4960581024155392 -0.09489144726326239 0.15202855859588654
P 1.1060482313298923 1.8022341795006942 7.4907135966153175 -0.5185647681584875 0.04732912410326688 -0.05398211064341025
P 4.04831913221603 1.5776844116417836 1.4062260600256944 -0.08184232738878809 0.6402363117290716 -0.2108967936870045
P 1.048770651706039 1.5648836709216176 2.714398446134918 -1.6982727734020429 0.04100061078207778 -1.1392146731151993
P 6.918226849360787 6.5370767652794015 12.041495295075373 0.26696843986959184 0.7261957466100267 -0.9257796863873734
P 1.4723237629328623 7.66341348243889 6.101020220858815 0.7249932416614933 0.6505739462096538 1.8766579676145871
P 8.698731886190977 8.301725400701386 8.981080439460769 1.7688225585961475 0.3436446496764082 -1.5431756031831616
P 7.8227849984445115 8.377979275529041 4.776450040006269 0.2554275291095279 -0.027026665100488935 0.5035346132982423
Ni 2.293984498635957 5.176821422715991 9.878018706756663 0.7458927108183219 1.1747138944630737 -1.1204314789704253
Ni 6.551272282049363 8.538562044420011 6.782295829534135 0.9625963409950906 -0.4632210012808603 1.5416612234211644
Ni 8.985991519341367 -0.002309639024563271 6.753124822545313 0.6285753304513756 -0.5734138547878833 0.5972407820041521
Ni 2.613837845792103 2.401354725995571 3.936509479508448 -0.14774330095697136 -0.16080244813377467 -0.0009747052084434827
Ni 2.593173137475391 5.739365802536617 3.977552600005336 0.22906112330085712 0.07134194207809648 -1.161831896294083
Ni 8.294705639661295 6.42693533813664 1.2566647747755781 -0.351452318646285 0.24794664735145042 0.7476387469751511
Ni 3.94350905300045 7.3009001757070795 5.886055867878962 -1.1878738288837996 0.23091591712140877 1.0851731699887632
Ni 0.8708495318539548 4.565248829513398 2.5946404051751433 -0.43655351929200303 2.028211386346268 -1.0742853194316662
Ni 7.973769505834913 1.7085456040505909 7.901423756794152 -1.2667159359936828 0.197187414520712 -0.4685197877859544
Ni 1.8184668033960156 5.574974927983376 6.372431711143401 0.42634701107264644 0.4205108640068436 -0.4544831071872302
Ni 8.91697763335114 8.016622164733246 12.806400574557465 -0.7314600803327596 -0.49529217078379223 0.7109899854038658
Ni 3.380900440072268 0.02946831451522642 13.094223623822707 1.6320316428856214 1.9500632199796155 -0.1708037823208607
Ni 3.0431811128572237 3.9519602947232255 2.0957482820954323 1.064817746260863 0.9415804008650558 -0.7312356230267794
Ni 4.31307882540524 2.3415720551770187 12.672984739699558 -0.5030749000530046 0.6808967655629111 0.2850587217123994
Ni 5.6672320227507935 0.7269031378200889 11.929957256651171 1.5921067816662258 -0.40905582809236646 -1.0937812233727484
Ni 5.4989596332695 7.871675569453146 10.474347865920304 -0.6690203258402994 -1.50870096644506 0.5333172438773138
Ni 7.90794892290606 2.0698476578970517 1.662891464046977 1.851440073588063 1.035785620694571 0.6342363853918948
Ni 2.462541349022142 0.0935353336077902 7.157550231957667 -0.2700787033637994 0.6895397859498897 -2.318918821704013
Ni 4.839652664994288 8.76921395749678 1.678913953919007 -3.943721550941363 -0.9498634668094544 0.939351511534537
Ni 5.344506538071054 8.992965399590346 4.962055274753741 1.0327573753912085 0.06814888906209554 -0.4020120338717076
Ni 7.759102460381463 8.62529509193758 10.735605937131867 0.7602440944439876 -0.6655272250853764 2.4796644484579233
Ni 6.624342029973866 0.40677358830145044 2.9726889477773772 0.6974973502340697 -0.11136064856287918 1.6333814720452966
Ni 4.124242665347682 3.492675223378606 10.257610679171895 0.09892242279952641 -0.059207363598091575 -0.21712811930869702
Ni 1.5075602105066523 0.5577681894658966 9.386996056968432 0.19460217029203908 -1.4910035491652966 -1.2625805736690707
P 6.491425378123254 2.4264331664172296 3.6093620041813628 0.35694239522657883 0.5133449145204451 -0.1430970604342116
P 6.176426218666727 2.8508580126751752 10.529479142135951 0.33330392987203245 -0.3438104858303111 1.143829289069075
P 3.3784137011940136 4.102807159740292 8.09929109177414 -0.5459452170539694 0.610693050854316 0.12592646219219603
P 1.2566473400749556 6.8353569644548235 2.1429550280702663 -1.3045803151396242 0.12019958701074783 -0.2621586771857743
P 7.867124194974863 4.752873736685607 7.003317364556556 -1.1096305317001793 0.8858645953599906 0.6646671910779263
P 3.323576979657303 0.3821356034744644 4.690388687270576 -0.8963878634888176 -0.8734623650408957 0.2094657176674328
P 3.841470173568016 5.318923408947167 0.30523389187631206 -1.2048338537769057 -0.5588236156785343 -0.7591578033583442
P 1.1683726979760334 4.219087436733799 4.704221745790755 0.8783970833383518 0.08650965095747036 0.982013826289754
