# total energy = -340869.2254473677 ev
CRYSTAL
PRIMVEC
9.20770805022004 0.00000000000000 0.00000000000000

0.00000000000000 9.20770805022004 0.00000000000000

0.00000000000000 0.00000000000000 13.47641146088522

PRIMCOORD
 96 1
Ni 0.4260949638782015 1.8067916643860837 6.467074064420053 -0.8458008945698853 -0.11935755072542671 -0.46305799334043474
Ni 3.4889293810157085 2.893384050321369 12.016147951357025 -0.8384974189299366 0.8785215247313579 -1.4262037790810922
Ni 3.7937505466589023 1.3731178362444503 3.1876835682986364 0.2014598166438208 0.11158767697202071 -1.4675126651322081
Ni 1.503268785538108 1.8638149985902308 8.826604426089352 -0.49443033700412914 0.4022891987924943 -0.5684146018010792
Ni 2.188755005705419 5.0911257788078705 10.50559034435016 -0.27622595391211785 -1.997920191561895 0.6965550409254585
Ni 6.851915735187508 5.304192136547895 11.87783897298136 0.28996670053697804 0.16304213609757082 0.37179154442426937
Ni 1.6136599939627039 4.556645966027613 13.044707838316844 0.1611983980206127 0.8208532234856122 -1.4431460633623856
Ni 2.524173384260026 0.9179366442994827 10.706725354365055 -0.7177036499786156 1.5939860009668096 1.6683572167895333
Ni 6.936092599598022 5.200246323560552 9.461464827409378 -0.24189761294389306 0.9510741992881039 0.9059379690710978
Ni 1.647203673359718 7.282992989738706 7.279795152831053 -1.626283684658251 -0.31223733900972034 -1.0590085957782536
Ni 7.564113515588346 -0.1523525742626615 11.214530437742857 -1.8483352094104943 2.4007220683247494 1.013070181374926
Ni 1.3599692295524557 4.990835425804226 3.652282403748206 -0.06338952000023922 0.7868997493583029 0.44184793492172286
Ni 8.655337378530687 3.0007827537215266 13.017310303854638 1.5079363203648934 0.1777647870197261 -2.5594810036659337
Ni 8.430604855049236 6.274702950658268 1.9284613940550943 0.1714164762041951 -0.3581382153068929 -0.26645164813417344
Ni 5.7376910182419465 0.8924358976373827 1.8101515569504456 -0.6218408399410194 0.16025248916757562 -1.206836486029231
Ni 7.08634397494814 7.967208546234102 0.5598811161984695 -0.24347215651986456 0.609541453748376 0.291200315833763
Ni 0.765198267081363 7.926538101025041 3.589280504890619 -1.7592254018260154 -0.7179548467574732 -1.7417516705212843
Ni 2.5200299157646495 6.836640148001221 5.013885080658618 1.1792156389881692 0.056694110257934624 -0.6708650923585221
Ni 5.6122175844941795 5.340765151800418 4.623689127824357 1.0891498952483243 0.3640394112826763 -1.0684638276538825
Ni 3.5248578567245064 4.26852758227467 4.239045422773902 -0.07267917283228129 -0.4587385400294745 -1.0980914207123282
Ni 8.282977676412857 2.3560958866720223 10.570775390719424 1.7055790772554689 -1.6346230577618817 -0.6001893231095148
Ni 6.490789436546033 0.21936350908221955 9.182772374098027 -0.5326695829909859 0.7658326442753585 -1.723378310220419
Ni 5.81209850471114 7.690139411802162 2.7293643895465043 -0.3245048435231637 -0.6242144823795185 0.21875639894073937
Ni 8.10883229940607 9.511746277986159 5.045406747429888 1.5098345658288705 -1.2957909989827683 0.6198770313464291
P 5.3996116121425315 4.839635656554057 7.996807643623518 -1.5983424781632924 -1.3341729411950762 1.9001617071634822
P 1.0900176532247967 3.0463885302939695 11.252129191640678 1.6797464324630813 -0.9965811825809675 0.750309866049411
P 4.161368279276468 2.029148599263518 0.3976201276071978 0.3237237423827651 -0.5749912265773323 0.053751482689842915
P 4.036290776962704 8.321631633620836 3.8674066841742674 -0.03485593133692061 0.6513054250590397 0.968991702998473
P 5.049111008264754 2.8048151093057556 4.211391914035759 1.4736498883781974 -0.32118657778320814 0.6620541789351114
P 8.292581315614363 1.491390842518029 8.490246861342461 1.2045721154750868 -0.7096478695536745 -0.7413089481023813
P 9.045154894575703 4.037349663355967 5.712367980339759 -0.7540724184156368 -0.046791506432241996 -0.1944982977243231
P 3.58654029105901 5.5460878273079715 12.250165527351227 0.565724970784058 -0.943928332271942 1.27016892753929
Ni 2.6249517457753484 7.08394997092859 13.498242692112981 -0.40467466830553533 -0.5876518527641363 -0.8178375765877399
Ni 5.9997423813050865 6.834006743579715 7.587946746373752 -1.0354554910486617 1.1543065344513153 1.2531906478137385
Ni 4.854782335831599 3.4022572278002015 1.9317089525846924 -0.34564882459063057 -0.3904353847777018 0.9360188476168784
Ni 2.450751122521955 4.442332274094061 1.7502756748799257 0.9997708931628587 -0.752859114833826 -0.710336668090583
Ni 2.6818277566552156 8.369686660459434 2.1804293963420425 1.169184222894096 -0.15373525687434814 0.30115819837742325
Ni 0.14894848470101557 9.125289575276282 9.88020375355212 0.2901081112108488 0.9752754791246558 -0.8314474540616906
Ni 2.2483012518378622 8.419758175299117 9.14518651099108 0.5271450536283309 0.6019980941834794 -1.4077165189101821
Ni 8.373111927748946 5.835872806166833 7.76287109545767 1.8602941815445833 2.039937930754577 -0.13143916448030912
Ni 3.6468323615206213 6.506111062271159 8.563181114568854 -0.1925702274636748 -1.6906962466063657 -0.4881951547276947
Ni 6.324930996529998 1.9955312582043643 6.511060205196191 0.3801967377688291 -0.5141334718600113 -0.13738406920983437
Ni 6.672595626415384 2.945389183792227 8.689939944320964 -1.3673237169154322 -0.3514173516432916 0.24935869720762863
Ni 2.697591352353181 4.050176000276099 8.28789827544381 -0.09892807922648124 -0.13356520968437643 0.5073241622476617
Ni 0.4232451783241592 0.8982662181957658 12.398324911496566 -1.0310344791628308 0.06893204708502322 0.145803146511465
Ni 9.232476501397787 2.1567950520444152 3.8569218673394117 -1.7881603396928105 0.8378950094592473 0.8499439702039814
Ni 0.0903745725088207 3.6274409289622596 1.543992635452221 3.2043064774275845 -0.3528054902400698 0.8168297041485159
Ni 9.10169942797594 4.687054731138761 10.603010654842675 -1.1304515822105885 0.603355122432006 -0.1398063054980818
Ni 4.2647063835511565 1.2316045755656932 7.894899496365122 -0.08515545092242109 -0.4793140501879809 1.290405566301139
Ni 1.2153713867715854 0.8554715548047411 2.040948276767574 -1.608601179776823 1.4122565728723806 -1.7521620672213307
Ni 0.22879680569002658 6.346044270440883 5.365686733643942 -0.716524799179166 -0.8645457792775563 0.2897545845261719
Ni 7.1306790878486686 2.4242973781059187 2.7792268894198644 0.20822721727464139 -0.18777537717819273 0.8228594552823635
Ni 0.334130220237933 8.166444926907335 0.8956217645249388 0.7431287749199396 0.08566067269361377 -1.1145644786666868
Ni 5.399132811338621 3.8354246320146217 13.011744244509183 -0.9633555877586183 0.05891297228612435 -0.49775837293609765
Ni 8.27418431549489 7.293434530347056 12.191098082022693 0.3857508348178389 -2.0933662257770465 1.6416102877129921
Ni 3.775298300292826 7.985605546353573 6.806841243353251 1.5088122952119436 1.4235365166615743 -0.7171557478949456
P 1.8661997949020142 2.7319729331570377 3.0845480335948334 1.103785642883628 1.425106175141539 -0.9369637280286509
P 7.731187373029693 7.578560409075559 9.662842920909332 0.09145208256441023 -1.653271268990688 -1.333066081284143
P 1.209966462312061 5.828515847660598 8.79023213886616 -0.4412977188452077 -0.6232953129993588 -0.5393025149264712
P 2.518188374211148 2.078529536020638 6.778499918844876 0.4135444599913394 1.0897384207619425 0.860772171167737
P 4.236963560047669 5.864214130675208 6.1867104121489005 -1.2503922591329948 0.5804131689238521 -0.3483194294442582
P 6.508799712939269 3.2301007156711936 11.019594056597047 -2.3726469073550875 2.1712544536140927 -0.19894682041397996
P 8.809124513663525 5.353720396629296 13.144756949376982 -1.04167447537518 -0.06244026871309246 0.43628535323228085
P 6.279205519756577 8.97748745019232 6.399071459473933 -0.37387233821269805 0.6066775019370196 0.38790413371541577
Ni 3.836814995887515 6.172672340886565 2.792837723041788 -0.24080849364477236 0.8204660153495226 -0.1818944929173835
Ni 8.425466954114968 4.365383460281036 3.391405944196199 -2.545952115941564 0.8934881733435194 2.5510567841579803
Ni 7.188696854491706 3.731313080287463 0.9782489717181824 -2.3763228135447783 2.491067805198858 0.4829390485350779
Ni 1.9202766626205605 2.2931612040811378 0.10349095222362902 -1.1156309722579885 2.1055373139219413 1.3843225654662739
Ni 4.629073795326794 2.483723924037384 9.927128994647648 0.11436292572431271 -0.43253334238901636 0.5896280026539007
Ni 0.7461162135039893 6.953799021634931 10.81980613422854 -0.682571839272489 -2.8377705249752996 -2.8045665274195057
Ni 7.259531750347108 7.06244997329147 5.841121199594309 0.11010337911701039 -0.02097814491356387 -0.9885577980558587
Ni 6.844393037941459 4.590723692475143 6.510777528567729 1.1222199383294158 -0.7443006837408536 -0.9407062257902186
Ni 4.6664294657395535 0.33384293975558693 12.01965148416256 0.6629527794899808 0.2799486541793437 -0.12229246498403455
Ni 6.787406534568381 1.736665762028779 12.554651532431683 -1.2300754019525137 -0.8555823994366812 0.41087565490992467
Ni 4.592878296092738 8.440466310068231 0.62181952480891 1.392870455036285 -0.3600850546206185 0.415902932921187
Ni 8.81696027297367 3.622468766767808 8.131881954260459 1.3802522520516423 -0.18666671749504626 -0.5150564978949129
Ni 4.397978745777998 5.003845916879708 10.340450105539993 2.5002073056062812 -0.7511979250813192 -0.5916265211411682
Ni 7.785301071579309 -0.21746395896978366 2.4456049346506976 1.3792289529934505 0.6702459707172843 2.1477471145207723
Ni 5.320001770784698 7.403641584616301 10.060747566686548 2.4682682908058395 -0.28069247432390365 0.18401822412860566
Ni 2.791068001608873 0.33182368944217344 13.628694733450637 -1.4774944589352683 -1.0807580716402032 -1.4068510855860932
Ni 6.105004896503184 0.8730122381018347 4.312545950027996 -1.466738763080661 -0.7837709739213341 -0.8531925590482661
Ni 1.823393161490892 0.8053981984235052 4.149548344815324 1.040076277650125 -0.6363210358350654 2.4846086798370757
Ni 4.0742265329648175 1.1408810309324844 5.614219340162835 -0.16293440687511293 -0.7242383657733399 -0.94290837564786
Ni 5.3005550919797315 6.30961857851264 0.3617754420390846 -0.5644818424055762 -1.2790335770187715 -0.7251266819155641
Ni 3.2230660269368214 7.206403276528615 10.804079369361643 -0.6875818908925707 0.5467178335539358 2.2046985922051516
Ni 4.280341071340376 3.6005175914500804 6.459930724734023 0.4968906256191636 -0.29172816331277496 0.09460194104730159
Ni 8.47296031077975 8.44493204833547 7.506010117263071 -0.09306082181242682 0.7679841434007225 0.23003325740613934
Ni 1.9553948600458178 4.461797368314563 5.973877009415394 -0.40700563043155713 -0.024342690510422593 0.7895256170169241
P 7.871126115680205 1.201550617412563 0.8663523030735997 0.8909445809860591 0.5627154945337728 0.042009511662566355
P 1.4866949115566022 8.499266731871506 11.691514560910495 2.074820601564375 1.3009907980161528 2.50650727968238
P 7.670057401161238 7.13491463342172 3.8288236263160984 0.9044238464194165 0.10292125954627435 -0.6884362684730659
P 1.6298287288024396 6.558162234280854 1.9039200905423679 -0.810809723206681 -1.4399841206946362 0.31511337500593467
P 6.049823103852537 7.72507345507207 12.203456667388236 -0.7686780841439536 -0.26633029206496067 0.060395727479237916
P 4.254513451052531 0.08019545157184589 9.894744565658563 0.7363060955711512 0.5161654146883755 -1.7657187228598428
P 0.997378905375947 8.682306754581703 5.510221043241216 -0.6474644540463946 -0.8638060728980543 3.1509977387021153
P 5.780654182685116 5.334393418025305 2.2288370783881373 1.196797099515358 0.10979176141386253 0.26096362843640863
