# total energy = -340871.9803158973 ev
CRYSTAL
PRIMVEC
9.16987993208023 0.00000000000000 0.00000000000000
0.00000000000000 9.16987993208023 0.00000000000000
0.00000000000000 0.00000000000000 13.42104618626900
PRIMCOORD
 96 1
Ni 7.0925170944958795 0.2466853625161286 10.939857649787253 1.390806887639037 -1.6921216661989826 0.2499626493402147
Ni 0.2311341629156906 0.5172243340425876 12.051643252355698 0.73178481066203 -0.661965475876047 0.030001431458096715
Ni 4.647056799523768 6.841821743427789 6.653335775701484 1.8414377109597124 -1.4027483762716293 -0.939965233859136
Ni 1.8234673302349753 7.356783868058603 12.765293753271957 -1.5209664140759742 -0.6883066848737371 -0.13699094753647376
Ni 4.612174575760536 4.843383931692751 0.0163132166337515 0.39301163014531026 1.168954109161161 -0.24568150546635753
Ni 6.42707723801579 5.462864349292367 5.445536026935537 0.6137305521290591 0.5083513179605954 0.11921948248566566
Ni 5.269985092027427 9.048571720575382 5.882417539809897 0.1423396134428968 -0.5312343932063561 0.23254908184945755
Ni 7.65279676640269 1.951689763169066 -0.10193146980276466 -2.0930584647286405 1.7367156507592736 0.01839521467773606
Ni 8.567308905179551 9.311646409729793 3.9623088435810443 1.379103740269496 -3.3288787395847317 -2.2315298534653825
Ni 0.8426652114878758 8.245922948698539 1.8275570967434933 0.20412579351175814 0.32836432647856995 0.6310890980121648
Ni 6.788260473974308 3.3055858750897373 4.434958390632813 2.381296612610286 1.5426734667357624 0.3166123281489644
Ni 6.327143885078959 3.7285282532789004 8.326900325567191 -0.5186483290112294 1.2889114982541157 -1.0842203191571909
Ni 8.408706659593625 2.7498269540544493 11.376430137703458 -0.056928337755927774 -1.4434867345312559 -0.2837526013064662
Ni 2.756640174941958 5.1502814776727375 12.082860275057373 -1.8269940247305567 0.46311841426472505 -0.2781985042574564
Ni 5.618752310379367 7.34623850598507 3.992640055868543 0.43193684645559804 0.3567143383761727 -0.16549034052774725
Ni 7.752381663897093 4.564188593385931 12.593759225831851 -0.5930241728196433 0.2203168014493238 0.31878362476867034
Ni 1.7039287737214373 7.2862308108466385 10.44029908968785 -2.2229781072406296 -0.07914009796627662 0.2578947597030978
Ni 3.9517414737953582 2.533014309822622 8.87069438709505 0.6913465001413255 2.6065712722855174 -0.28706109685440884
Ni 6.515850846914804 9.154676402795245 13.201666337802768 -1.418413850723028 -3.2401952209043934 0.9107068512146508
Ni 8.260108753157455 7.54332673819936 9.330955426180433 -0.5383908017454793 0.43650826787636443 0.34524876093873447
Ni 1.2857180536452681 3.5204361649878813 2.3846786619562828 1.187693080331561 -0.5255257728573531 0.07905422312068966
Ni 2.75718119786573 -0.12579975062119736 11.466579228612064 1.2150167078471783 1.115860314659975 -0.9176624565968777
Ni 0.9019017197129299 0.7728274049208991 5.869775026165741 -0.24681561907080074 -2.278453514600115 0.8610315954767107
Ni 6.675278381706487 6.709546223505436 11.63332249371876 0.781097540854229 0.1505496600575149 -0.7216698337152153
P 6.191007845649686 3.615592010411399 0.5627537055480624 1.2687139402603183 0.014049536114530643 1.025422532292692
P -0.3541609418055522 1.086860034578638 9.888653776849244 0.526513590691919 -0.12143345941784893 -1.066845061103537
P 3.615527821250952 6.842078500069579 4.6555059270146835 -0.8288066740047338 -1.2577677256614597 0.6410891466476701
P 9.106928837302304 3.468277887184183 4.111215774975367 -1.1557288687201386 -0.5686879100671238 1.2307881117488224
P 3.313747068346645 0.7647322348004517 9.544202821043399 -0.954783272708575 -1.9977325010311209 0.04352749096898955
P 3.454064573085074 3.287191095681471 2.908354006623853 -0.5897509013850101 -0.9766029396868277 -0.30361205923455453
P 6.951190902950416 1.9151386212341963 7.2789985264402075 0.867094770951655 0.7206930716242427 0.1883729015528756
P 4.674438061394697 7.486537670963371 12.875990711427843 0.9885115181989557 -0.9703399894962513 -0.6685688401251776
Ni 1.8108312355068645 2.4185558668645073 4.852647344533343 -0.4898784559673886 0.8530598901251438 -1.5495917911221506
Ni 7.952605995093251 4.126537727574207 2.0457965743132696 2.218303584583096 -3.6137140324324153 -3.2499381592237713
Ni 4.4723889240658155 4.354014942320397 4.5661885442278765 0.3209050419870473 -0.35672565123008243 -0.09111938181533984
Ni 4.616218492868734 4.667120497103672 10.848795238824279 0.6520968106120835 0.3067786298879942 -1.081981659634659
Ni 0.6041547970487507 4.88786701988293 0.3419026461360755 0.8419928336777048 0.04369641244668603 0.34308414918724783
Ni 6.466361004209714 5.129337471606695 2.896020517937852 -3.5801084285628275 3.7171387139776693 1.5593846088428565
Ni 3.2481915957695287 8.58200822292205 0.6204010735580355 0.19706477289991867 0.5954798334489874 -0.6392623778515765
Ni 4.84477775346247 6.968155181068708 1.5827304689163255 0.1733949400868046 0.5303630463449963 -0.006519032065440386
Ni 1.0863098417748014 7.183555663770688 4.606989008584377 0.5596972765327394 0.9698260259743103 -0.3762313253631779
Ni 9.15133856645197 5.374998558519681 10.67781090418801 -0.20939552655112972 0.2590257879837474 -0.04523624612998016
Ni 8.708635096725015 7.182922942046277 0.1978530002116222 -0.28898016825399264 -0.33298254197687166 -0.7716171121676195
Ni 7.723771638097595 5.639338691122916 7.808902053647207 1.0442741177815564 0.04883939010020621 -0.7555790848681503
Ni 2.9071729260716177 3.6223502120185245 6.524051470655988 0.8883796484723604 -0.7978536772666452 0.8362109368886049
Ni 8.533453707983481 0.4171103344684961 7.668825716754459 -0.840919655218184 -0.055321398280124084 0.39029397410383104
Ni 3.6654027989187288 5.2849319965316495 8.199467419306606 0.09040898601187655 -0.7593568067430276 0.595431239599239
Ni 7.039487678086107 7.955017673550066 1.87771175575322 0.6672683761461993 0.4472675632753974 1.9187032176110954
Ni 5.670763870102042 2.8560783543553367 2.6052931384626197 -2.361564424288681 -0.15951458256028658 -1.036901479466569
Ni 2.0732732029368632 5.818114672849514 6.526265996691429 0.6641403720401787 0.5565307058792996 -2.405804882164295
Ni 1.722837066413284 1.9554494139952818 8.070907534786162 -0.7415971687667615 0.49610566782402304 0.09401830062968969
Ni 2.8667704345098923 8.243923914844599 6.453389291871264 -1.3995352686509703 1.4867242050636524 -1.8465482927134005
Ni 5.943888747806533 2.9524079444270397 11.885370402096282 0.4112245536089111 0.992990894126548 0.02055057045784203
Ni 7.912964603576832 7.440128907959765 5.892953732003365 -1.3492781722676312 1.7043729727625099 0.7267809296895353
Ni 4.931148853784732 1.636181699809039 0.5095014610527363 -0.6584474354204595 2.544137431330328 -2.0193793898769354
Ni 2.7888264539663914 3.4571548226666224 0.4273164109796628 -0.504415216130983 -0.9692896938548663 0.14211644168849719
P 5.03835392161227 4.41414184589966 6.67709126699513 -0.2907999950715508 0.5115430854250158 0.6842057753314862
P 5.850016685591966 0.605560539662553 3.967825443427511 0.8522548777253451 0.7050201409736762 -0.2980973000639124
P 2.060206123845747 6.336286255502707 1.1525796480088986 0.15990847556459556 -0.09792586321421198 1.3645623521202113
P 8.35283458036403 0.14954607203477965 0.7836148518281195 1.3791348506177474 -0.3750141651266251 1.0366999049787244
P 1.4955065697481162 0.22396148272967575 3.661261681081853 0.515254472838332 0.7859363570037691 0.16296937387810642
P 3.4388517420589957 6.38221818474299 10.097672940014728 2.477767488545526 -1.8060097091694058 0.5139514377561922
P 0.6942580385570376 7.675583918361585 6.7346680269286106 0.37146784253626347 0.6259450919173801 1.1119368112358528
P 1.0170130581315973 3.722632020397786 11.86522509258381 1.0994024262142679 0.8944973313343241 0.1395060006488436
Ni 2.977203300119937 7.984975671718963 2.940175324421742 0.3968847399474713 -0.38400299888879674 0.19696989919326724
Ni 7.559841692194517 1.6031976412190423 2.4125000780702806 -0.14201359756204573 -0.9851531432496841 0.49158541135616624
Ni 0.29674006983315837 2.001463872156139 1.0661516944302394 2.3625869520159246 -0.5566659459055833 -0.48687900701943243
Ni 7.566526534761131 1.3933724455959384 5.249709570218045 -1.2433422942647492 0.06728499839990348 2.314234014633834
Ni 3.5821677975783337 5.471777472714518 2.6660912772625633 -1.0321973891226806 0.15929141080588696 -0.7533154856449542
Ni 2.101085449170797 4.641820798007258 4.422986195221331 0.14381028445115232 1.1442614915104874 0.28215903156710115
Ni 0.26914148180471437 5.326847518303925 3.191524487938391 -0.562851763001321 3.5742910505501024 -0.7500455566444308
Ni 8.776648097159267 3.3706920235437203 9.303482465508866 0.3606267860567015 0.5206956984585613 -2.7334184465197695
Ni 1.064045372979552 6.3160208205613975 8.415130160578416 -0.8057289662496638 0.3090239742787452 1.274925982608301
Ni 6.443326265489094 1.9244735591392883 9.588719837789816 1.3289286620770016 0.8031709757145007 1.7545683626699784
Ni 5.313872138013449 0.8432300760998145 8.099266305871907 -1.2543201334324916 -3.254178165447047 -0.9685870113608865
Ni -0.30417225762498273 5.382215254130004 5.585959902282707 0.7745705383689886 -0.7711190894852784 -0.40469935089588366
Ni 2.659356917343605 1.3489993959665265 1.8208062310404198 -0.32594440418316767 0.6720316018627975 0.8041482520261054
Ni 5.001527683275481 8.179184561593175 10.679475237419616 -0.9151697720820109 0.18550586441772568 -0.2200859163854403
Ni 8.813776941538165 3.2199850446928457 6.479909502004188 0.11383430691435235 -0.7602268680528069 0.44465609379447935
Ni 6.657837269824872 6.188321070790952 0.4692979558883986 -0.45780625802319225 -1.2953127737947692 0.5524081990704938
Ni 3.659258979275888 7.819551035365462 8.496730172303408 0.6750166526330504 0.613788144839872 2.182351591968519
Ni 4.930736209181855 0.2700254582428783 2.091736756445609 0.5964262565226567 -1.6431385514320602 2.282081084050373
Ni 3.595042309188107 2.5221938513471716 11.559318810638736 -0.680248333345635 -0.5740054656252953 -0.26910142705219464
Ni 2.273763460654875 3.9647443637260267 9.877218936409509 -1.123080486557498 0.5319483885542451 0.17701505333789513
Ni 1.4098873995910965 8.79861912979247 8.678223189492954 -0.37957838745853983 0.6815292569405875 0.054574749922086656
Ni 5.852410024288655 6.064371801966658 9.160468099043632 -0.39944170204137014 1.01300153292052 0.697723864422579
Ni 3.5449014049984764 1.0906563649251095 4.244809006662908 1.1349782664363486 -0.3300589405721735 -0.1811352461538558
Ni 5.287838848511919 2.2986963645487313 5.833726393658375 -1.5544468052216067 0.020382934531726186 0.5856037119858559
P 6.448727324846755 7.80926242993372 7.871349853870654 -0.20942149469305868 0.11082894442912525 -0.49200193006829457
P 1.1779352833737025 4.259455139101036 7.872731754796289 -0.07667620980681635 -1.0089507598899141 -0.21153648415353246
P 5.258706139548778 0.9943084350932787 11.855723262861552 -1.0198365535644822 -0.4531078241062584 -1.5389070577147947
P 8.057215986862692 7.011592902931598 3.756953964489112 -0.6034024307301736 -0.5056362330222776 -0.4332859042843248
P 6.848093941391525 4.40799802625682 10.416288675728426 0.5482149869247527 0.290456495689203 0.10802027133573654
P 8.90962052796648 7.47555215464677 11.4945491967831 -0.6948732823476614 0.21942025777698337 -0.09416922438525717
P 3.181508227944548 1.336592548240014 6.544021635459239 0.4775153064163454 -0.030396867124302486 -0.5493411301093959
P 2.3308184544127175 1.2645264608174998 12.936385375504974 -0.7727090596802175 0.989737934406889 2.2483844631288763
