# total energy = -340896.65799216385 ev
CRYSTAL
PRIMVEC
9.02381385182100 0.00000000000000 0.00000000000000
0.00000000000000 9.02381385182100 0.00000000000000
0.00000000000000 0.00000000000000 13.20726371322839
PRIMCOORD
 96 1
Ni 6.39568226223118 1.90450300031418 11.493001031686115 0.30220695135691183 1.3393897095093255 -0.40155489172963105
Ni 4.708599034626081 0.13434202980851898 5.971651441132387 -1.0010279054984115 0.969731409377975 -0.04327192331475773
Ni 2.729848093336956 1.3904885115180186 4.762618291925341 0.03451731705057926 1.0616434622979394 0.635770305537918
Ni 3.468627739377154 4.309457697095239 4.754284799765599 0.13333329617922843 -0.6279693214362605 0.4167020317837146
Ni 4.857952178898847 4.568080204185896 2.4488907444005177 0.49986770596961655 -0.47834628695807296 -0.08690328685146324
Ni 7.335458339636949 6.250498119991767 2.55184163270812 0.2045320278112413 -0.7195545871444252 -0.9573335499342545
Ni 4.9055798687950265 4.585451045991531 11.36216926549442 0.88897074508914 -0.046158757944249534 0.042318301152236795
Ni 5.693674657935379 7.93829422889694 12.382417008339212 -0.8816374446525203 -0.013051433867319457 0.5854900692261272
Ni 1.8631378372819554 6.501522575757569 0.39975224973356493 0.2849443076217222 0.49624142207093896 -0.4504313057153598
Ni 2.892673791799755 1.672076625047814 0.3800288996376805 -1.4575480977203286 -0.4629842026797059 0.05129273673670521
Ni 0.4414377581601278 -0.14108552595467558 4.66273189082667 0.39084753261445593 0.1817919059012482 0.6843374158133441
Ni 8.785576213571405 2.5432717166235426 1.5282920763481693 -0.23305224673812117 -0.5515057418608824 -0.11663475247762493
Ni 6.836567762979097 0.5904822879966581 4.829922408084995 0.624117808900654 0.5600592878578483 -0.850597030406948
Ni 0.7632630579815229 7.3926873675493345 2.4244840348775556 -0.0020319428283642423 -0.09518943811965541 0.15287805108037542
Ni 7.738561131480869 3.9740064382470854 3.79529251060653 0.3813943576213561 -0.09620939474373753 -0.5416329628318607
Ni 7.59140077399188 3.919123601955202 12.7282366293872 0.25598443005426236 -0.6460835145384679 -0.4435114386670749
Ni 7.934305703142088 8.767736133441668 6.984292108838399 0.04754638232039553 0.10849309720709702 -0.2686036614801696
Ni 6.8500132457273555 0.8108555550033943 0.2704175342720315 0.17130000523098884 -0.5872895843287111 1.7286518999145328
Ni 1.8130556699981746 6.406456696057636 9.31149040579047 0.487810003474134 0.16592562829295293 -0.09599984983609273
Ni 9.162148992475808 4.922815353391786 1.3054309438423093 -0.12389683335667694 0.4439752656773709 0.5831038283821377
Ni 6.225050964723251 1.9016695227417286 6.960479166271702 0.6928997035610582 0.033617173833813074 1.2313347282809115
Ni 3.4122830452294197 4.411435818261726 0.42539522176425304 0.3602040966969861 -0.2013158348667888 -0.2637918419138231
Ni 5.879520105720867 5.5267431241367015 4.470434416084804 0.20486627122220846 0.26427083843277066 0.8749890860980671
Ni 5.276431549670975 2.710212274236144 9.215355204140426 -0.044814842321845405 0.41450091036733777 0.3566762860493857
P 0.2533309426050337 5.477446028664397 12.301311871162657 0.21061808610432112 0.3577808319674741 0.8483105483656164
P 4.0634324342438894 6.274979727170306 12.53994031373968 -0.501074324683208 0.18756506093959954 -0.293173894620366
P 2.43187273371935 8.53984873657958 1.4030866581387185 0.0721163583502758 -0.4246433981179783 -0.9941844002140168
P 6.367311391250962 7.745599706342373 5.743350753592534 -0.6856286238209417 -0.9347978307255835 0.8835971394820524
P 4.697120743313475 1.0392275306732555 12.634689457570843 0.2453053530738614 -0.034906067848565696 -0.21126626121128134
P 4.000022093792876 6.138187731881148 8.199492132481794 0.3260966134903158 0.39692382071552285 0.4546723403799008
P 4.75684034386916 1.0454449384675841 3.7441004142099734 0.483242952928742 -1.1401006752645784 0.6599805842355343
P 0.44433801195562456 5.6615228089205845 3.6353129230556775 -0.7004019254753744 -1.2614017228696213 -0.09712779279294885
Ni 1.4396141545257484 0.9201041630492581 2.653431729875832 -0.5537217756755948 1.1011824009328262 -0.4178140339009707
Ni 2.020856057063201 6.471942513711401 4.940559781093916 -0.36439859439430794 -0.19321094637146724 -0.6395894221736921
Ni 5.9848099665978305 5.68001260365292 9.349553755307538 0.25605564961182997 -1.0382664781348956 -0.6265544433666048
Ni 8.509005340583911 2.375473896688066 10.156240308277578 0.8820441931726357 -0.09700977915784584 0.35010583192071965
Ni 2.503070625587643 5.198104844801928 7.017455527394187 -1.169208134153496 -0.7097424861500099 -0.13444375563458782
Ni 0.33924847974779576 0.09256808800549116 8.998465129308741 0.5870615274783051 0.44759023672213877 0.4544897920554495
Ni 1.1946807731593247 1.1103261605883734 11.386734794142464 0.9149823386615532 0.5655177398692584 0.0531704133753923
Ni 4.056249478359585 6.958885560732546 1.5004770723057326 0.5933021090713783 -0.2319898669118779 -0.2217792449274632
Ni 5.690371942038827 7.786865607421424 8.000366337742875 -1.2082302810529644 0.7942590179368515 0.292062149613426
Ni 5.553958946934519 2.713560109202321 4.926982550662354 -1.6324926416824401 0.5140439974699986 -1.2611230152869377
Ni 0.9837942417319467 7.430091076268481 6.997354079494844 -0.979836616132777 -0.2858948444604496 -0.07196774858755348
Ni 5.031407930165302 4.375502991212354 7.300460379710208 0.6854954406771872 0.2774865657920963 -0.6833354569113909
Ni 8.173012652900256 7.218545806424578 9.221536516679052 -0.33278251015092364 -0.8491998929491054 -0.07032429944685953
Ni 4.727458805729342 0.5822245958738858 10.51937392110347 -0.5434183368670576 -1.4187270110880728 -0.8076758055633896
Ni 8.04436916158538 6.944393315568988 4.754086275859249 0.5334650823090877 0.16711553483599606 0.35470090749056976
Ni 7.11344544564004 6.124895653969616 7.13076033979934 0.689740074886154 -1.119491226544343 -0.7965349584552217
Ni 2.4504708142187868 5.156739681769704 2.6778384393987946 -1.5572338810484405 0.6687002234967194 -0.4674651212691949
Ni 2.408149126910511 5.186689720186796 11.51793563432369 -0.4900728313663818 0.5841204425721102 -0.8656765504478897
Ni 1.1518898475269488 3.1977599167902646 3.7199319333746317 -0.1389483283731607 0.43402843887730413 0.4726867746794504
Ni 3.5187640495444845 2.370474703773613 2.644899713809739 0.31934592503004355 1.4676720735282078 -0.09061673114730845
Ni 1.0907083891154117 3.2534007534518485 8.125399401106359 -0.32582536210680013 0.937218267241618 0.1323385363661269
Ni 3.571724813470342 2.5142782024825 6.925017382309216 0.434324115740852 -0.1330342768815709 0.500936513553763
Ni 4.228026800235989 6.799624268770124 5.9375766173701745 0.2798095574983181 -0.30841976503584306 0.4238661536323216
Ni 0.7248297320935321 7.3952591545179605 11.398660666625752 0.3258040219505615 0.02543129558891104 -0.304682666590914
P 0.23471210733356987 5.609265902480877 8.019476970873253 -0.3714876400306054 -0.5116778112306672 -0.3591435166429557
P 8.385388113625261 1.7286559383575983 7.9856530091381535 -0.1494307159617233 -0.14698302575217911 -0.680248590455951
P 1.7134869071496643 3.3325937444576965 10.3684813141751 -0.25208715188238523 -0.6355281076201248 -0.4229801514829425
P 3.999453593515601 6.259675338753497 3.6153035180583704 0.1345216600603748 -0.16753539598223408 1.2522108003989725
P 6.860923036762687 3.7755276509665903 10.485947007181073 -0.7613470977001792 1.797382372511711 -0.4411118280866468
P 6.318158676801458 7.727164054493587 10.308520777787615 0.5128432922936781 0.4121663486968901 -0.8215816170112044
P 2.453439649000113 8.512723151921014 5.737010621928825 -0.25235557505242345 -0.2783355440559529 1.1599313368372604
P 6.83329211852432 4.008730074230507 1.6616189270901254 0.43496740575180565 0.46706994271330526 0.0010222706169272717
Ni 5.2229383807235426 2.771204232555256 0.6316281723505056 0.04805031854000757 0.6377174019619598 -0.33381840761460574
Ni 1.4186337871501105 1.0988659169036166 7.02609221970181 -0.027209213424940235 -0.34723005303482135 -0.7451026108168587
Ni 6.870777041568792 0.7013398420653504 9.197433007303971 -0.8968216085921265 -0.3934823991341417 -0.29736916364863625
Ni 2.743293576085214 1.6228968391565344 9.327577158874579 -0.09998814505987941 -0.3143584991177812 -0.8211740971601407
Ni 6.491677594765387 1.9656032444003921 2.6066387427677165 0.11882661792262116 0.20634774086374139 0.13686933435694493
Ni 4.2296781581842655 6.9846395256745115 10.325452159855104 -0.9980659946566102 0.36103610567997824 0.1268965394149492
Ni 8.1187163645135 7.2328034324260875 0.040940141396357335 -0.12055645612953432 -0.01901639320150273 1.2432173386511105
Ni 7.588585344047278 3.7768631754274913 8.33189494467783 -0.5409331085513588 0.6215801300804649 -1.1190299706372082
Ni 3.0151901134595542 8.450873931279027 12.071069258866142 0.20206891098272942 -0.33483887845932014 1.1045119795266913
Ni -0.022399813306041086 4.841655170950286 10.151723889408112 0.4198094670644448 -0.21148351942841 -0.02938642358191713
Ni 8.537773259376829 2.2873834251521625 5.804196526126061 0.16925880643124397 0.6929796648693742 0.0591957936338658
Ni 3.5542366620836807 2.667511586743018 11.40150046086795 -0.01582951083308887 -0.10219415157226272 0.45051409523715313
Ni 1.162122852517905 3.351940801512908 12.537404622026752 -0.5275165780351366 0.026332981467574002 0.7307748813402769
Ni 2.888712337486677 8.300248429242835 8.159156586618412 1.6663810668997687 0.1319217605436825 -1.005853351911513
Ni 5.654240591083105 7.807421855542586 3.4825966033330626 -0.47874609349965286 0.7197954995106378 0.045050355371419194
Ni 2.994859460686517 8.347858071511164 3.601515130380962 1.2770512564814198 -0.8231456190642146 -0.6213800982545169
Ni 3.3871697710761297 4.270574082892391 9.331764208535779 0.31636704490737777 0.113945635681236 -0.44132085877365934
Ni 7.296989820874652 6.0661416015039045 11.398660666625752 -0.4516320108916802 -0.6059298251377178 -0.37112665714676085
Ni 0.6033493442723235 -0.024734273968440003 0.3335743055517523 0.11224485094004538 0.7261769775569493 -0.1454133672722141
Ni 4.552243410747511 0.29171012560947446 1.6080237890453404 0.7885054032825258 0.21676379399074283 -0.18497158918081047
Ni 5.981624560282303 5.565013118992651 0.22834670899087103 -0.2390753130037495 0.7071821816220014 1.048640108059736
Ni 7.9955864235068 9.032386548234228 11.23954014616056 -0.2173844582938772 -0.43899221064048266 0.4435515478763909
Ni -0.018200130305343537 4.852438628590669 5.881418716170687 0.4880941103734561 -0.1782440406489898 0.10122561701140632
Ni 8.0369425627251 8.971746518658192 2.475344957303064 -0.055977800917200365 -0.28519113352520564 -0.01291799361324872
P 8.5309422322356 1.6786098663295181 3.6809968834324103 -0.42637015100109793 -0.16181289167616003 -0.13744320458254394
P 1.886184658046419 3.385455246430378 1.5982509985645594 -0.5195960376364793 -0.9932179225356894 -0.7434385928508744
P 4.611990082744972 0.8394411927550267 8.189005558319545 0.39873387734106813 0.6532244964586233 -0.33918327147094485
P 8.495144762395103 1.8472378771460956 12.569379604288617 0.21775598270068303 -0.9590376771095548 -0.3315211269399968
P 6.487941735800435 7.932275345008962 1.3591596343331844 -0.7088973645408952 -0.8425703034477294 0.10774259219431767
P 1.740955396737381 3.1478943210406847 5.925611040105617 0.30620295989018237 0.37345607661088587 -0.17894878002549827
P 6.793957313625221 4.115373507196221 5.847185975664787 0.980136406761383 0.40602758278900397 1.811007419494313
P 2.1059325747481523 8.622949039014955 10.084895328242307 0.6426189530286353 -0.7800829835467855 1.1132424174211537
