# total energy = -381172.58443787077 ev
CRYSTAL
PRIMVEC
9.16649694964109 0.00000000000000 0.00000000000000
0.00000000000000 9.16649694964109 0.00000000000000
0.00000000000000 0.00000000000000 13.41609484950610
PRIMCOORD
 96 1
Ni 4.218238605128326 4.133347676096005 2.638771417637615 0.7301465037276587 -0.5606740386237119 -0.47792539737057044
Ni 2.279771977847039 3.467841658430033 6.74836320002018 -0.3249499014803823 -0.4770987877042171 -0.9637422816740758
Ni 4.049932553086165 8.267575335907278 11.474504572709272 2.6433784138115377 -1.2109651634856242 -0.6972546380956444
Ni 8.807106184834323 4.147940739374209 1.5026290261028008 0.18414112285971515 0.0795473607070243 -0.3497250515425332
Ni 6.961230344093959 7.686767750835912 6.419118209602125 -0.9910417408199771 0.4682246251430388 -1.7958474239244233
Ni 8.319521874599229 0.4025100512620928 11.567505101667615 -0.6267174513070304 -0.8171873445982506 1.1317355911293348
Ni 3.699543203959671 8.901603602758328 6.739615611900588 0.8519275762929134 -1.2282208652422784 -0.21025993143395402
Ni 2.1690956926579403 6.7853160995135395 8.144656277279504 0.8263121897176544 0.22327716962922836 0.6829456776721399
Ni 3.1506716945549296 6.433487610352699 3.6143231976838277 -2.421027869761637 0.29384058167008753 3.1166208038841416
Ni 8.264119566525443 9.039220222730494 3.686045537077035 -0.043718266823556964 0.15878130393868783 -0.336344259360253
Ni 6.848088271202702 7.813742067751548 8.639160376125602 0.5513756440409214 -1.715473710661362 0.5094075271392517
Ni 8.98860282610848 4.021745574706467 6.0916047704738014 -1.1135560920068306 1.1026013927675398 0.11052915380051931
Ni 6.2609008041956375 0.554461239296104 5.393873932484634 0.18791318830763767 -0.4787910878049755 -0.341796797834392
Ni 6.60942935442422 1.0853590813164835 2.864738402622752 -0.9394553841022532 -1.1491188196027888 2.28419453084895
Ni 6.9119237565478135 4.673694343259081 9.54027928360564 -0.8135317501235343 0.5187221196719584 -1.3492941131072311
Ni 1.7810228742244736 3.84989208831213 10.634160457214678 1.923356657222707 1.0998063465209058 0.4649822069463411
Ni 4.770795046340754 8.839243923435697 2.3253578842470644 -0.3174497364485952 -0.6185765673674509 -0.8053816102125744
Ni 7.035112310188388 2.6447727232458065 7.137523165001885 -0.1457614946402522 0.16765752338239515 -0.38662012479666963
Ni 3.9017469620337413 9.12584361970225 4.279050063101905 -0.7095144292996038 -0.30171972730784813 1.9671350878602378
Ni 4.271853446280474 1.2650590891719653 9.72743348684921 -0.48152365624479015 2.034858973569773 0.48185224322880243
Ni 6.5915180192196905 7.882298299069196 1.463669580408689 1.101458023191716 0.06178695139980971 -1.7900033064388206
Ni 6.8516632050459805 3.4468045477368925 13.229182017808187 1.1693891398160505 -0.6940343313861337 0.18994410269473738
Ni 7.194508527113452 7.0869580174129645 10.9736810908079 -0.4234159534687804 0.1527160715812144 -0.16790486350651082
Ni 4.3949686679447755 4.394666173542652 0.11746499289251476 -0.015274152550251116 -0.8577094730820132 0.5012249913284594
P 2.517046753573378 1.8581681132630237 11.541785744289482 1.2254875254715152 -0.461740817190908 0.07392564364487268
Ni 0.4688718231897886 0.42180369421935765 5.528196113422762 -1.8490468907655384 -1.176906017018386 1.3067482693252204
P 4.907009192266711 7.289005945037456 5.296473484949947 -0.6930071756732 1.570538568577147 0.8603659368682537
Ni 2.4305150215719626 2.341462502886184 8.776487334791494 -0.5363745426463988 -0.7952784603403013 0.39782704925608264
P 7.959461871101814 0.24280950663549739 7.115306326140462 0.32743615823734573 1.065253805357017 -0.5732122803000387
P 1.1559044424905187 5.957929744226275 4.484947002830993 0.057247154547927205 -0.12506977061885557 -0.01897551266123829
P 8.993204407619572 1.9138362497507986 2.8492561891322445 0.5129708190104778 0.13348421993479592 -0.9132846392441563
Ni 8.334719926681682 0.6223968987645458 9.188683623469466 -1.7159521929596768 1.6782369377970903 0.3602226086397474
Ni 5.10185225322244 5.330950513594409 4.611017503139072 0.6840337685299961 -0.8086965335184202 -0.8408373799170229
Ni 8.541360269320231 3.2271019468248237 9.18665782762494 -0.6689053975289899 0.40538840654310826 0.8406890272646167
Ni 7.754792325325584 4.747182149981046 3.542962934923465 -1.0760382975670306 -0.6393215132242861 1.6775417115022786
Ni 3.6314544639907607 4.491629379168815 8.76238742905372 -0.5470723886798773 0.16758784648672426 0.3920960603095764
Ni 4.665554493892846 6.31332400073336 2.2170227224004617 1.7932076723087311 1.150643483777431 -2.0661179315840545
Ni 4.985547738854437 6.062299479455949 9.852431507004306 -0.21053478236189546 1.3177389640087693 0.11480952634342807
Ni 8.563735688580342 6.594689627193471 2.4233624039362947 -0.3972428946178384 0.7576601357668952 0.3865823295801987
Ni 5.417253083169973 6.596174599712987 13.253693230877232 -0.9245602121579753 1.4122838265658904 -1.384234633738158
Ni 2.1665657394765434 3.151551678270198 2.3301748784384566 -0.6839998299682671 0.08961914312072952 -0.6637341377406956
Ni 1.9369449887736343 5.473251213550974 1.6812785533981809 0.5717058709578412 0.08759671337406204 1.1509676998860696
Ni 8.785317421384391 8.4623083988986 0.700601784860232 0.5088732519023365 0.17290077405920545 -0.023321191224443705
Ni 6.6558209959135395 5.56709781018556 6.995755955172702 2.7106801243819896 -0.10481641968645819 1.4106383205426674
Ni 3.1504975311112826 3.552301762101754 4.67147055107862 1.76708834951386 1.0707593085562785 -0.5814992028991791
Ni 8.019181599278637 2.271998788362166 4.819799139484776 -0.10495834458096118 -0.22535770630734092 -0.824114153625071
Ni 4.224609320566989 3.276646863293855 11.050689749040643 -0.4255635959394026 0.9285479931611298 -0.09250366375737616
Ni 5.835382845378084 0.66711290459604 7.734875360570005 0.03790217436241214 -0.8268099552896793 1.1371493059457383
Ni 6.8120456048648235 2.578975607535408 10.92798610309317 0.4143265895730025 -0.35066967484398964 -0.5070156298683075
Ni 5.088377502582389 1.512325346665417 12.388744404043845 0.34530352543606985 -1.174670699929964 -0.6544804803529116
Ni 3.815636888895892 8.426064069625973 8.977916523866186 -0.2393504210420071 -1.563569336348165 0.5531623036276989
Ni 2.1105951085866446 1.5910105572056874 4.573801525180837 -0.25808527844734913 -0.28072307045152295 -0.5617024798882262
Ni 8.42665072543615 6.8977981846183445 4.851944211283777 0.48194840248703447 -0.16904900441328305 -0.44173532060325865
Ni 0.3152074168601139 7.286650155299706 11.965519902784209 0.5573858547907433 1.2113459438638106 0.8168297041485159
Ni 1.5986370827380154 0.06940413229329635 12.924716818822274 -0.49003143660548504 0.5597558976848166 0.8132142188831155
Ni 6.384795178107835 3.1363536261877463 2.1134779719038526 1.1161976433947356 1.883707675372517 0.4876955893834569
P 2.0834622773658618 1.1595710413041382 6.7681921664042335 0.39985179299559526 0.8773557865580309 0.1628811850396743
Ni 2.996289551507489 5.559682114085015 5.901163461393821 -0.010277984887240363 0.5797140859742984 1.0180396095650597
P 4.026182159270946 5.580572560825611 11.759435049865925 -0.8414246198790605 0.04305929308331939 -0.5131549099968259
Ni 3.796607241053208 8.785830745218298 0.19000773377026922 0.17532583856093029 0.9780327301548187 0.884495997147238
P 6.382036062500586 8.54169942971049 12.391225774790962 -0.32630667261859286 1.0287258856343122 0.46288135855325446
P 5.390578576800893 2.9109586306175337 8.437086782309414 -0.872885152381187 -0.5970865158144748 2.9163694057261256
P 8.56597231385665 5.684520637191719 8.522467202283353 -0.5251791881512116 0.9227419280023141 0.3855281772840715
Ni 2.1045635535382408 8.871876652876908 10.792604275097904 -1.964803611513584 1.513128406088794 -2.177875044254404
Ni 0.6103026225778225 1.9979205270441234 10.519466496375555 -0.39420770733594046 -1.8492898600142795 0.8959957702567214
Ni 0.20252458547026211 2.0116886055892635 0.4566345496493342 0.2510646241551418 -0.10688821461382238 0.08285019982801216
Ni 0.5641832260504156 6.108003633667714 6.698938364662295 -0.7441788134510087 -0.05568212405365249 0.4183130850245763
Ni 1.1654009334177928 4.426794745646991 8.385166826458862 -0.09627727186719548 1.1397913715542758 0.46623381996525515
Ni 6.0677810446823095 4.811925118532529 11.601541221804741 -0.22759276628544675 0.6047561165445907 0.5194795666632731
Ni 2.5872254548660516 6.646462002441776 13.07943170571205 -0.25991616100850073 0.3838073379382229 0.07182093859704405
Ni 2.0572644288425517 0.8417685891336851 2.1608898445130604 -0.3933322467095226 -1.8537491813372138 -0.142855890957683
Ni 7.208679931528091 1.085450746286824 0.8231120177202869 0.013452268850163929 -0.07231099085958514 -2.7883138130060687
Ni 4.16401877517193 1.9643161489173024 6.8710796790635005 -0.3959213475929375 0.40542054533262434 -0.975393492759759
Ni 1.1799756637019296 8.19550833622559 3.5994578894437117 1.1604535278893175 -0.8997333829222827 -0.4897092773793759
Ni 4.880279686915427 4.190839945493555 6.839941088638839 -1.1654900618719606 0.4425416185546378 -1.0524576820336131
Ni 4.9502933912614875 1.7008160251765512 1.2215008119158715 -1.4648687997514578 0.42547412154938985 0.19583681403008854
Ni 0.05029656922582276 5.333801294171997 10.821233995284349 -1.6332544595491292 -0.24345698701121296 -0.8469339797330641
Ni 6.447035692969022 5.3693031371848665 1.4749251221167967 1.733258031227976 -1.1063760293186238 0.5789517538869771
Ni 2.211197413535324 6.531440797658538 10.684859435660295 0.8992536150723867 -1.1048094561624522 -0.8673487959439902
Ni 1.979257539082801 7.687409405628295 5.8527845233475215 -0.275880397647241 0.803461510371726 -0.5813395373928634
Ni 1.0291409550066655 9.064290592118615 8.166927198473427 2.0032210349495174 0.37402351907858167 -1.404442990365233
Ni 5.491960033997467 2.5220608274510026 4.471638165787258 -0.2025149973812125 0.6495632455569523 0.10787757511028517
Ni 2.7240079236081196 2.1138125490455955 0.3353269612001464 0.8749615752942415 -0.34144018582592167 -1.6460187011933327
Ni 7.712085615643954 5.964630453558165 12.997190810972274 0.7929755232387375 -0.6028455297854391 0.285701754613037
Ni 4.803106948385775 6.823916218523916 7.562866960375793 -1.0498408132360564 -0.17209499032845846 -0.8029951122582687
Ni 6.1200667437645215 0.18104931621889386 10.076667857349413 0.5064129632873021 -0.5727201711549685 2.6309332460696497
Ni 6.35854233060232 7.468440124478951 3.6410206202954933 0.1412080709416149 -0.21312362613499425 1.4768213441276434
Ni 0.8977722194129064 3.801722146398207 4.06818946522888 -1.198044341658898 0.4351928914990505 -0.035740647934719094
P 3.8510287339443523 1.8924874781585004 3.1782866835197034 -0.07125760989440631 0.09091292223148859 -0.6084842161284553
Ni 0.12476610778013418 2.2266062950495593 7.4149013652521845 1.8566316450913314 -2.325916336067768 -0.8607212633251435
P 0.3856629463632156 6.3948416588571515 0.6093227240448827 0.23890639152605306 0.044100846973956304 -1.3932527780763682
Ni 9.150574828700112 7.7387326225219315 9.544384040977485 0.1470349620360371 -2.912351285705668 1.2689062587767823
P 6.614333430337437 4.0715746525835534 5.5447645568118045 2.0663017654600866 -0.5146713466413524 -1.9593104496094964
P 9.006541660804112 3.556894177115812 12.138587950035559 -0.637481888912386 -0.45720127744934164 0.36661668509154927
P 2.976178257014787 7.538206333405093 1.7517799153864528 -0.8343625708259566 1.0356112999002358 -0.074334191937201
Ni 1.8751811317582172 4.185422545746433 13.092753375851633 -0.7685438725589344 0.01171137489965725 -0.37802055605311674
