# total energy = -340862.52466939745 ev
CRYSTAL
PRIMVEC
9.32176798111556 0.00000000000000 0.00000000000000

0.00000000000000 9.32176798111556 0.00000000000000

0.00000000000000 0.00000000000000 13.64334969911102

PRIMCOORD
 96 1
Ni 0.16379744081277373 2.9118405706220942 10.106652130524573 2.553394431152222 0.6135816852560206 0.2548649717378385
Ni 5.797496295827288 6.108311995626412 9.62681507130405 0.42265773514651717 1.6269323739858432 -3.249424967032778
Ni 3.714444767985997 1.9613092419229097 2.7530917991855377 -0.2064999501708895 1.2239124676749114 0.7036839386607558
Ni 5.60279253426701 3.9343918764273593 2.8740258878459457 2.7449974096066208 -1.3579170788895516 0.5018636533537228
Ni 1.167952238098902 0.6852627179678856 13.194906222339375 -1.1013950311642644 0.4731752842800948 1.570414898515089
Ni 3.3148019439513257 2.839699410536156 9.248458503769731 -0.6151125200782503 0.41558514457045204 -0.8856252256556747
Ni 2.5270659660391694 0.4777433901992941 9.287218413788768 0.17524716280419497 -0.1190266497485692 -0.24024490783181848
Ni 4.928698226158145 6.278891022427365 7.17604684155993 3.6610981781433334 -1.3759471969183852 1.8670479553286492
Ni 7.067428672360116 7.262533269930691 7.458477758769355 0.22430098290805242 -0.3518428692164844 0.761664886050914
Ni 4.979091702243503 6.982498047015371 13.573713963429471 -0.46971277965279107 -0.35452015893833133 -0.06612440243289902
Ni 8.54416446490361 3.4423050822967776 5.120075981009718 0.5196626292083566 -0.6556963550378836 -0.36553862153602207
Ni 1.8245402665021988 9.13429761150659 7.100940427174555 -0.8115211474514088 -1.4511424513043008 -0.2333175845843659
Ni 5.325404693373193 1.870133032231663 10.057399638803412 -0.503399630382275 -3.0900227416806394 1.8215237456446052
Ni 5.950969878932971 7.808509203027134 11.323393568490873 -0.16082275984874883 0.1440977337845841 0.22406341297594962
Ni 9.3184398102839 2.7836289779328593 12.544773518055411 1.3762541866358426 1.5153284990639064 -0.2133434554552842
Ni 7.402443681060015 7.180166130698316 0.5111293011500354 0.46953100265928815 1.367083061659536 -0.9899155976353339
Ni 4.093589024889389 2.527960855736579 11.894776911579594 1.3172977627062925 -1.1049359544379873 0.6599350757095797
Ni 0.7606534462675407 6.744252308615526 6.702432062266703 1.275345843754539 0.6953029136859122 0.7110141537735819
Ni 3.775604885743309 6.547292679276365 11.173589033144568 0.47961126971342555 0.6482141877282256 0.5849892183303086
Ni 3.550791814572284 9.160118907983918 3.53796599441952 -0.0069846588479492615 -0.49354253508253715 0.8846106683482313
Ni 2.8062808733985305 0.25858769983407826 11.793052189580136 1.0003223947909545 0.7164330107963082 -0.517361748989322
Ni 5.302659580230708 4.190843027108873 10.65042160121084 -0.6037847537702569 -2.362340383222757 2.053853512394405
Ni 6.247933431957613 6.113094062446942 2.026965248232935 -1.0894460863325044 -0.8416781306507634 1.3277552105941908
Ni 6.1262191113422775 3.344025685632346 8.725604283230098 -0.060464118823328125 1.8023523149224767 -1.2789415315255974
P 5.5763373575873505 1.1883389440180063 3.4457504076318033 0.48148097593231276 -0.8890774458703332 0.7259918581293368
P 8.252243988194573 1.1554610694058982 6.643519422697365 -0.8119659482983114 0.14885324619169849 -1.3004302975269928
P 8.916485187864255 6.661754664635613 10.572422642313947 -0.16091840488634868 0.42810924517939175 0.09756410899941907
P 4.569698309214143 0.9857676105346731 7.804500842924156 0.13693823992166737 0.8078303288633829 0.05415591721711318
P 0.9149669206413129 3.654524445330304 8.23684442798499 0.843660965408747 0.26088006758366683 -1.1643603191428913
P 3.923615912987723 4.974971480928348 9.284203754120622 -1.3682436576265404 0.9839007588998216 -0.8620415247984637
P 4.1764875048796 8.878881177037705 10.500316904945198 1.1584362403489727 -1.0973668838414778 0.2674664625519329
P 3.7193480177863854 4.13473530743485 3.80261936848385 -0.5048029384877047 -0.4466741526657727 0.6097579406345564
Ni 4.79009286250421 7.006417702885706 4.079948482241275 -1.3458997427137014 0.669809140290182 -0.14299318786649567
Ni 7.372595380944344 8.504276620995128 3.0319748516154426 -0.02743341362060437 1.5602132753917388 -0.13517806269745108
Ni 4.012694724950666 2.010360383462153 5.298189792627503 2.4884092845300887 0.6088966210755256 -1.210306961076335
Ni 0.23613342584325164 0.9093319120779392 8.28725654760571 -0.12630904234259538 0.7434164813636874 1.1824531720888602
Ni 3.795805156308786 3.8830382582708234 1.5640322825257635 -0.24863673143993956 2.1510448114354372 -0.7614350294282951
Ni 8.318838696510111 5.548530524593894 6.035940587878744 -2.3873096515735854 0.6912698812671191 -0.02874261935033114
Ni 2.843456082911739 4.434896226774196 11.25748214574638 -1.1620622671373342 -0.7238208186199471 -0.5821316942768555
Ni 5.371948279406155 1.916406287001865 1.0160503050242942 1.6982969417717588 -0.854496108351038 0.06299382722371731
Ni 8.5971400706367 3.330164217090184 1.1425038123288271 -1.5639861121706096 0.2600282611063328 -2.358348231344229
Ni 7.720837977984074 1.4547177772801534 4.151739143862394 -2.7083465911528064 -1.484286027935805 1.7830656987787228
Ni 8.928118753930576 9.163605249096742 1.4115412137336945 -1.7825041698482977 3.492505801651495 -0.222534635036249
Ni 0.11982013742248704 7.965096256538388 12.351787758278807 -1.7352840605190696 -0.5614754514790846 -0.07434961855616871
Ni 5.384215725674806 8.494554017303484 1.8582785402712951 -0.13018369480665323 0.9175292734531232 -0.12724235279014215
Ni 2.3762211214196265 4.834772095000901 6.7888215442535795 -0.7780440987398858 0.2594657037346435 0.4199066547639413
Ni 6.121856524067407 0.6753080022609762 5.968678440997223 -1.3699177028948537 1.0553959387263308 0.4729868224183725
Ni 9.029539586303622 6.976159244992056 3.8213244275132396 0.8431696275946254 -0.11007921074729429 0.6732811579991824
Ni 6.593528646975841 2.87739663903952 12.475287197405121 0.2831087970748802 -0.02060867738928709 -1.042769508211572
Ni 0.41562965560818044 7.286406316962618 0.8842339847726828 1.6028138836710848 -4.162503403803399 -1.751910613332157
Ni 0.3033331168813079 0.13127938643316583 4.21699524633889 1.4594257743590155 0.08164358111442067 -0.2915129619781754
Ni 1.7639487765734492 5.750980675097369 2.9414381151871365 0.4147757612952792 0.43330287356518926 0.5692579236379809
Ni 4.539122911219327 3.834909971732033 6.676126966046713 0.15926878509806763 -0.11532966051295622 0.3416080788623536
Ni 2.2055954857802664 2.3252963045764323 6.785655871948994 -0.2405704094920373 1.090150825709013 2.961150823706874
Ni 8.33227136373893 4.87118291956424 2.9530623594857754 -0.23595322243500008 -0.37878185969917344 0.34523127743723764
Ni 6.890231190505407 1.0851003669470975 8.56147498748787 0.655453128678826 -1.6800788761018355 -0.7260998444621108
P 3.2821105046928443 6.855423709983261 6.486375859655536 -5.093804534229633 1.4106048962015705 -2.006666313185641
P 6.912389032283967 7.050481698715428 4.3822851021574465 -0.02598536832016815 -1.8092269305551227 0.9854966426320316
P 1.152543356121637 8.162149103554363 2.5241836754720977 1.411585257836969 1.4510452636048041 3.378726259234478
P 8.92371887958498 2.3038375953739734 2.853192669254905 2.631707405231513 0.3645891131385592 0.09188479922645466
P 2.1118278246736057 2.1832884957188052 11.323052391793736 -2.0962126940869057 1.7703911886348478 -1.021861554414311
P 0.8153573077287524 5.225149081960316 4.955537459666277 0.15743635987501917 -0.09783047528692827 0.0016907574388616042
P 6.946553310836101 -0.020969316399188146 0.36852303480726584 -0.5116798681131962 0.37739860619840165 -0.39300597371835544
P 3.538337932950006 1.070325365172164 0.6265943087117974 -0.47061600819335075 -0.2805307519350588 -0.8327240067812691
Ni 1.7549346272255875 1.021125075350019 1.793363614491937 -1.3039969318323283 0.12237422606456344 1.3129783093953322
Ni 8.124927285202748 5.401824544824869 8.75903027778187 -0.2547772971200386 0.1899111925742729 -0.18564856064317703
Ni 5.253086419701309 8.429898236665668 8.842746276797735 1.0719484437683733 0.10891244413270276 -1.5414519356238356
Ni 9.208163298613577 7.902071785244806 8.719519033287716 0.0347991099570562 -0.2537252017064405 -0.18220431084831848
Ni 1.080430161338743 5.590767453958074 9.387961553651381 1.2321394835703943 -0.8210578832972505 -0.4280472815932047
Ni 1.8281011817564732 3.245802219574001 4.632803879886551 0.28132805102537356 0.3701164707146916 -0.6068567078273613
Ni 2.5840126448045133 5.600946824266104 13.572813480671453 -1.8427088643626524 1.40134172573209 0.8184988643208227
Ni 8.190785573871459 2.9585985573117264 7.796396498101993 1.2098613888984842 1.3465461180484486 -0.36179123867844787
Ni 7.838693086779333 8.570582354512544 5.735882207983893 1.5307080668437705 -1.1506694519193603 -0.6777754463251101
Ni 1.5136220272585796 3.5127403588970294 2.131786661456136 -0.49923495748162416 -1.1586681538541206 0.48413872527013396
Ni 1.6500740625781245 7.661169343055777 10.517303030014148 0.033455451444968184 0.2750098221168296 0.7243319539284105
Ni 0.6789742534900496 5.09894166932257 12.002149692617179 1.5831128056977317 0.7011164350438956 -0.8769647217671993
Ni 3.1045587956662444 7.114298520261924 8.824927717874841 0.39983045283935653 -0.5182870890170688 -1.1793773613770138
Ni 3.0359319419961746 8.352937722688473 1.2750034181514813 -0.9959355785771687 -0.40104452775211574 -1.1843989829613215
Ni 2.600549460671221 2.862826716153576 13.576005253925546 -2.2121527344903513 0.09286258975869169 -0.5612180840526398
Ni 0.5060480055869336 0.5013610207967528 10.994479656738415 1.24872695561543 1.217913055558367 -2.484662930113779
Ni 4.496401249935718 4.6565119316305195 13.032823054603202 2.432903281042984 -0.5330426500596884 -0.7109146520812402
Ni 5.9336407128133475 5.1483190727306605 4.92070574254816 0.4235460512887415 -0.6864282369041017 0.838322069694337
Ni 7.80383899741878 8.855530148995934 10.61496252912777 -0.19936179646421148 -0.6505132681750474 -1.5159982714374214
Ni 3.8174036920264656 8.892733323812186 6.02423431202451 2.03070175686829 -0.2808169157169099 0.09855218394430124
Ni 5.015726249231194 0.07128542181279021 12.74020064878776 0.3268383767523468 1.15120475559754 1.0044641848734701
Ni 8.084377595788892 5.274451911226955 12.918737668658277 -2.141194401003919 -0.5639424249623385 1.0769240426060938
Ni 8.110376005852167 1.031248515051961 12.364326467986986 -2.2585012398479036 -1.8078627032177443 1.3679662355954376
Ni 2.0287895181681743 7.611102128839267 4.747353489862006 0.0005733560049667545 -0.05431943937817097 -0.07939797961335358
P 2.3121339686103717 0.9359241187425154 5.251679764958195 -2.7606451434462067 -2.001216345814663 -1.9099786932539042
P 0.5003635916548487 5.1352965632798195 1.1446254466531016 -0.3299373273926447 -0.12063950276164385 -1.365423671679242
P 6.192646027839551 3.8278440718295728 0.6593435429299028 0.5032034552110688 2.386477642590593 1.2064091686838254
P 7.5458217897668 2.487355235716635 10.29003274088232 -2.81176535916079 -1.125113972047759 0.534471412086415
P 2.223894115738749 7.8930296705939 12.802058966944404 -0.3044083298836048 -2.8641011924500286 0.676267494321016
P 6.293647380666935 5.7062641555299525 11.582507948198948 0.7779409975031183 0.6082286484742234 3.189318745769501
P 3.726264769405944 6.572657209137307 2.1705614863034635 2.10428955755777 -0.7031779455586147 -0.3031973402946391
P 6.580068014443977 4.684318764623975 7.164968852847418 0.5588380138562374 0.7331176705408406 -1.0528058094016515
