# total energy = -340873.2584483392 ev
CRYSTAL
PRIMVEC
9.28496792601491 0.00000000000000 0.00000000000000

0.00000000000000 9.28496792601491 0.00000000000000

0.00000000000000 0.00000000000000 13.58948909866699

PRIMCOORD
 96 1
Ni 1.046035169346065 2.0000934492510547 0.9845668265762479 0.7144221510138664 0.7251860743985898 -0.4734599054000491
Ni 0.5131290941365148 5.804376815518433 3.2481184471198206 0.46959810845179767 -1.4585521135048105 0.6220781527628061
Ni 3.1479104338659534 2.4561803446917034 11.646246330366873 -0.31733789346107927 -0.6934321790257606 0.43229474401564905
Ni 9.101561674131425 3.8869474331656106 8.998415897116287 0.06681268674917526 1.5859356198585075 -3.206108049412698
Ni 5.456886901594321 5.801804879482173 3.978580778804009 0.7717474670978967 -2.6610856012833137 -2.7826956954883433
Ni 1.8894259199508145 3.1500181215202163 3.12816409318613 -0.8601545921883961 1.080511759957352 0.818941608285196
Ni 4.706949350285394 3.545483463239809 4.019580410411616 -0.7412657535692718 -1.6727499465405902 0.8331096722554618
Ni 3.766252138814254 1.3255684051135814 2.5786732087781497 -1.6299732176946964 0.0438715045719696 1.3028144814884532
Ni 7.479895650980705 1.6699478548783186 7.076141618648953 -0.20480610740823438 0.826877318192505 0.11685869556297294
Ni 9.054923281676093 8.846977146412382 1.0342534739077671 0.6219118023882709 2.358759864960351 0.48046204774949514
Ni 4.338893233038854 7.945973171601911 8.904254254789537 0.23545931351771707 -0.7186711560982074 -1.901998760372221
Ni 2.3846489539937377 4.86637224466287 10.767196661541 -1.1559168163612286 -0.5935687324692035 -0.6351211019896933
Ni 0.19510409652093424 1.1279935787036637 12.398166222266923 -0.9346427932049581 1.4886365915950168 -0.12706931754738762
Ni 6.901256467660715 8.690395452132723 8.21095964856796 0.30985315504825994 0.2856163939880823 0.21583793974236376
Ni 8.625855642067618 3.557665340783388 3.787295589473375 1.1973509151362993 1.094655912668218 -0.46439445276367114
Ni 2.786845897252275 6.693904570325959 12.34204137837388 -0.030644464358734316 0.7802089676016885 0.9160791712701577
Ni 6.546143595304227 7.435299951406155 2.539630848349038 -0.5686796825370077 0.567280745306952 -0.8874944176539296
Ni 0.9937886564362194 1.1089315401389022 3.1568110038455837 0.2822361646619397 -1.475922486462458 -1.0447158333046653
Ni 2.112896521108477 4.4662644191233145 8.156913708929498 0.6587377129673687 -0.31591504497162365 0.5258006237852945
Ni 5.088626515059702 0.23300626292386317 12.48842724968814 -0.410042617485668 -0.4163240796190056 -0.9264993381622172
Ni 6.793541558069969 3.8498818423470387 5.211269795621914 -0.3596816485346129 -0.4548991116787262 0.24168112605771278
Ni 1.8178202495117297 9.099983229632638 8.171563530871767 -0.5479668754696885 1.0778020743356727 -0.11919608544689794
Ni 8.723208527772211 6.646031277174516 1.3152165946918315 0.6633435871704962 -0.9647056740286095 -0.09477806161384968
Ni 5.126852726833263 0.6945490053497306 7.169555821080689 -1.2408766063330758 -0.20257027609918019 0.5702339143980051
P 2.6620373622364326 2.007632842974672 7.749364910323309 2.4122413818182586 -0.024010503981984455 0.7282665130961263
P 4.506421904165982 4.024392809139388 11.936980022598428 -0.3761145972796555 1.4676108812729693 0.0468203027876484
P 2.692250646936741 6.364826747231814 5.677593367885579 -0.5786751031868227 -2.9925851309567557 -1.6434226583313827
P 9.017133463381606 9.114709188309556 7.296712524412667 -0.8978716471231956 -0.012077242879508234 -0.4350483955013862
P 0.4265876247518501 4.496421994017784 1.3096994669201896 -0.3929393821464781 -1.1293076984141326 0.5854970112046627
P 1.3521605524343205 7.500433999400213 0.3256303146094413 0.5346796714424791 -0.014833979689038969 -0.2694025032323812
P 4.365318250942074 8.123928861388672 10.990730400478615 -0.4860819650394338 0.16703891596178974 0.6060997750566788
P 7.195320677784711 0.21970183279261776 2.0686870761877483 1.5184724440095267 0.6265354172032113 -0.6326101626423815
Ni 0.9311894046078597 0.5247445886540582 5.391684144839727 -0.3933502444316516 -0.8647262707194786 0.8676100200251768
Ni 6.455364466688701 4.527619485287925 9.101478109422667 -0.10798041923673662 -1.1581004542761086 -0.688032348166428
Ni 5.049833920260104 7.713756130927441 4.7514150603129846 -0.26058233383758994 2.585273539249006 2.5725113544873306
Ni 2.1592656495022515 7.53453768554165 10.100102377005758 -0.255473808966431 0.22635272323075853 0.0009173696079468071
Ni 8.675483794103007 8.395727719112132 3.7102832823775627 0.9598421752887212 2.24677700943244 -1.4412185073223693
Ni 0.7956019506588308 4.922991977331119 6.1011503791997574 -0.6640611820628112 -0.4453281801608395 -0.691789501216015
Ni 5.901200458067548 0.4785871575224738 3.6785927593257424 -0.2995198914430519 -0.4622740639865587 -0.5742522915287789
Ni 8.497778798442523 1.6259278232974448 9.317170693188364 -0.21739062894146433 -0.9094639799464852 0.6963547519891943
Ni 6.5374528655932584 2.6151947004930216 2.513281038683701 0.21159047731991948 -1.4987495116593028 0.9055155368216985
Ni 5.012257656221337 3.2399616030481484 7.147133552727039 0.5650014623544721 -0.581672752362566 -0.4580962784597853
Ni 7.143018455069026 8.399181727074183 13.259604164473389 0.6105804365358516 2.0446651610269173 -0.9636823749704178
Ni 3.5433386357149868 0.7387157394193156 9.684616788060962 0.017449305824698984 0.4424850542850895 0.31943000010341766
Ni 2.652204581505754 0.1548407628471729 12.032500055690898 -0.13512124131758665 -0.623767624650087 -0.08181224548180104
Ni 8.295106524798289 6.402226596885423 8.018178650950535 -0.23676003460701162 -1.0499765674829724 -0.647097300514963
Ni 4.547535740875559 5.408029401873047 0.029872526387923693 -0.45842332278190084 0.19661637250859043 0.3510717953784147
Ni 4.062340471883752 1.0015323194479149 4.95768990140151 -1.3098101960799957 0.6280652235841764 1.1050447121017097
Ni 1.6379982812293443 7.80047772868432 2.547404223257181 -1.1154371110796273 0.0364286751406792 -0.08791167351131957
Ni 8.217697749584252 3.7835128936568703 10.872718461775195 0.072820583506152 -0.9328895579592772 2.176215397163794
Ni 6.549068360110802 6.763059009308104 9.738376750696114 0.3241541450519643 1.0505311544348617 0.8134430470644699
Ni 8.85557502644695 8.14825547660527 9.43163484575657 1.4497759099740775 0.6681867741954105 1.2316404324467884
Ni 3.0588861641343734 8.858964039635522 0.832624830626259 1.0340377847655287 0.20375426910495228 -0.5416792426887639
Ni 1.6221395565003562 6.730858741532851 7.462450125282054 -0.2636722856168233 1.2394517009610913 0.9570293884302744
Ni 6.958526148063759 9.364818361626156 10.64941684702858 -0.29040275963313217 0.011906521629598849 0.5646826455624726
Ni 0.4337342643442987 8.155107782723533 12.102527281631197 -0.48130177004197106 -0.48735928908996073 -0.6366737911887939
P 7.128283211424468 1.4535802539651974 12.505903415780004 -0.18592366868143465 0.13129441137232872 0.23458770954604116
P 5.2303151212449235 4.306544405781363 2.1192669374062283 3.1174844374360178 2.2274297152540803 0.2396941775346711
P 5.42084265721614 7.65976404410129 6.965441591961973 0.12541249867025497 0.22155324495958614 -0.37818844908954874
P 4.276581815207332 5.117957727834217 8.369779948545604 0.4700094849576034 0.43311441170346704 -0.14572138543093613
P 0.8187484464883943 2.781664885309198 5.174197705325994 -0.3114076440195734 -0.13727274044295068 -1.3658407046120025
P 1.0055898503065612 3.386896215949927 11.875446685055131 -2.876482853943833 -1.1634128676279576 -1.945745052220236
P 3.274167423833624 1.8982466392087414 0.4695955948599726 -0.7728715534000109 -2.7788819781692076 -2.3461054094211335
P 5.929556749239872 1.7948399546029208 8.945688422882693 0.7474037481462096 -0.4687103065302056 -0.3350803050461649
Ni 4.067716468147268 3.184911029911046 9.345831531299277 -0.7042410967158065 0.06193813226569333 0.19616051591809444
Ni 2.7892042790328153 3.36607931850122 5.950293795966875 0.09190228272795141 -0.25166754784646334 -0.28801266213440074
Ni 2.2090330760522376 5.705928303632331 1.1724639312150742 0.02110258630657011 1.0543638979173906 1.4669830178809833
Ni 2.949416395659684 5.160325035175187 3.741104732458287 0.20102350043735057 1.6290144533258526 0.6034826491488059
Ni 6.850226285511699 6.249228900114774 5.79648737851479 0.15850259635600444 0.30070568422103694 1.0159184494569988
Ni 4.592159295353029 5.347565692601869 6.0756835699569764 -0.5685948361326854 0.20580960897208425 0.7032352811591115
Ni 8.195896645565712 1.3766728670037167 4.133392758251498 -1.25294150791741 -0.06038210063248311 0.6953782470085379
Ni 1.5927247790170806 2.4801169912674244 9.708833840659409 -0.008227015895482604 -0.48692734375886465 0.35954203763295495
Ni 0.6549671883007396 2.071448425563861 7.252791841985541 -0.795743830012494 0.4828943113400716 0.26442279062960267
Ni 2.9133442963785834 8.316954053655026 6.095510689855268 0.8104844786567784 1.8791424245993376 0.3050989281927262
Ni 5.70844452986275 2.5747122415829584 10.959229290766647 1.6694116261959768 -1.2045104089992158 0.7134824128084164
Ni 2.317407218345417 4.11922946861356 13.185432128978631 1.0860105782883942 0.34965280354370104 0.3756726246462304
Ni 4.363860511022606 5.961682737274004 10.529475492049583 0.9597652993041987 -0.13884368447449635 -0.20979584731334192
Ni 6.142154653291184 3.376766316254771 0.18589619411242278 -1.4903085799808011 -0.2730663252372136 -0.3516490080381234
Ni 5.317343122933921 1.0773440802278846 0.9967440616360067 1.4687627354892254 -0.306888158882665 -0.21080526241446274
Ni 9.044551972822298 7.280194566981245 5.774757768747079 0.765079825269734 0.5216511203932952 0.6215618752480199
Ni 8.36932127114419 3.3619939327396544 13.430111453219405 1.4492945994622848 -0.13258973314498454 -0.3921904197955955
Ni 3.5028190369343637 3.583644680239892 1.5300809593440494 -1.2990971805378662 1.0367065898469436 1.0764949254884753
Ni 7.525029878678369 4.564452951915499 1.908589164662851 0.17348878535219153 1.3975668320706898 -0.2907287755139832
Ni 3.9185163231413482 7.552894066565778 2.869189632766931 0.15666991402263986 -0.10712835564908647 -1.6761779983855325
Ni 0.31660625456020025 5.6837558009081945 12.060426452861494 -0.1459972648001421 -0.34966463061824293 -0.06686745124651064
Ni 6.4847792441719765 4.876892112998902 11.878490297447499 0.22074900389073593 1.1761295438636776 -0.6460382631228293
Ni 6.733978490659865 6.293527480724846 0.23139532103833657 0.3907009797342626 -2.02222482974553 -0.17398706514484877
Ni 7.008451419063623 8.937143467163672 5.7572686037005205 0.5646055124676341 -0.5004557172626026 -0.25230775253362353
P 5.966826609346522 1.8204478953538277 5.402746255285931 1.0345226948217474 0.4500996334075538 -0.06910302544524873
P 7.747943381777636 4.554443756799662 6.978433118683753 0.43429274828228437 -0.3740859968854009 1.335069741977733
P 5.157567399786129 7.675827038118356 0.45654464434529707 -1.3056007859843386 0.38971933254728364 0.7717844909834193
P 7.908564036980661 6.984301218232185 11.42442473946206 -1.0012143104776048 0.04375889025350528 0.7404013486864475
P 7.949947137751797 6.567239041782131 3.914927683148518 -1.3450145118952708 -2.8087165450321367 0.6929794077590581
P 2.5874790720878518 9.10088387149371 3.965847374182619 0.08603193999010345 -0.03831329375790176 -0.4046823816150192
P 1.0944562755882625 0.41148469638875157 10.422838567201834 -0.13641887708308764 -0.32947118638950357 -0.3264321424528636
P 0.7211309392060657 6.0120072618823865 9.362749670835981 0.5182135554666559 -1.0008345585406828 0.3154249927090826
