# total energy = -381162.9540065298 ev
CRYSTAL
PRIMVEC
9.34503699428132 0.00000000000000 0.00000000000000

0.00000000000000 9.34503699428132 0.00000000000000

0.00000000000000 0.00000000000000 13.67740625194615

PRIMCOORD
 96 1
Ni 5.779260694899771 0.7030215408362337 9.411478536147719 -0.48449405172702364 2.2303821130141848 1.447701801053868
Ni 4.4233799038597 7.581946404102982 1.1211549503944964 0.431075012675935 -0.2980942147401189 0.40821276336578083
Ni 8.753215985440201 7.836841638517307 0.5755421505026221 -0.24195777675786714 -1.585522957801121 0.2594893578837273
Ni 2.4559972592070802 8.791502602810619 11.262715451571642 0.6430951213341054 1.1663470105556173 -1.0860550583730844
Ni 6.950455515939464 6.496688545069233 6.051062036095846 -0.7549033989573644 0.9505705201788082 -0.32061116489571234
Ni 4.168465979370992 2.978786674768036 13.301168038563477 2.111010164111055 0.13488007184105802 0.08000553129036544
Ni 2.343632532025753 7.533445661083098 13.189547176342533 1.3394377891384415 0.5313863454031881 0.5519780535116107
Ni 7.5233717109914915 1.1628497028283722 3.416493264722281 -0.06961313231244785 -1.9446885859312637 -1.774496726162789
Ni 0.5890083490944628 9.250259823540699 9.710233768113012 -0.5891392359429402 1.075171064470729 -0.19105893302547095
Ni 7.116329926074906 2.7606828517736104 13.770139384943024 0.747238683323255 2.0890879101166666 -2.1472619473542376
Ni 0.5471014643163573 6.414573703274296 12.349973148564208 -0.9441846712571224 -0.4551137987926936 -1.301756215427268
Ni 5.838601681060902 8.155068189973205 8.447262271326888 1.3303463683601346 -1.9919925132235499 -1.3865331999643475
Ni 0.14087737015395985 3.1765370067610545 1.0656108528439598 -0.9359579124719558 -0.5247675545350898 1.2770623122250138
Ni 2.428233153713424 5.432270118970811 7.3139933492220495 -0.7982306009900898 -0.8112439825306224 0.23575550460189718
Ni 4.584600485474157 0.4222910166044179 13.5415896793768 1.5944994502681185 -0.6319247065395827 -1.3387502761531138
Ni 2.5421024318824577 1.5950016026764475 9.25158962233294 1.2230529478880936 -0.3736535373336726 -1.3779238610287818
Ni 2.7534778280995584 3.360017466963829 1.5927335621502576 -0.10843216206217454 0.06750611327177405 0.2786484473106814
Ni 3.7941598597335293 5.2766098344848364 0.1348601007068494 0.062428441638550554 -1.1720484318157687 1.932728071135278
Ni 4.754063389890838 7.803713481676173 6.3523208035245355 -0.2004527155355451 0.6279035011953314 -1.3640967253377023
Ni 8.059571254921144 1.9220965944263464 10.179683580396725 1.1996204278967664 -0.238746211799105 -0.20951379729654884
Ni 8.559166288174712 4.992959920634637 5.072594589559153 2.000291520007549 0.8719053049664209 -0.08861744132909255
Ni 9.005503954478314 2.441045199701913 4.387821102845256 1.794831323955083 1.2549320559848773 1.9324655615025108
Ni 0.9317497366127994 0.8137265894124865 5.461538775452174 -1.0269204569944572 -0.10867975929660638 0.42652236030824603
Ni 5.391871523195288 8.543578766140575 11.130810251624503 -0.5768488486113613 -0.1802728981535605 0.1553779346840937
P 3.854781115989789 2.0772429018668306 7.23408954322644 0.10776058991644666 -1.962343837119182 0.5561512110526937
Ni 1.4635169294028894 5.647523705622064 0.8091400451592767 -2.1303191488523114 0.010651823286891333 0.30606514876073737
P 6.440272555548802 8.116463841338303 13.639917226193933 -0.1777475606285455 0.028865775191756735 -1.707106055422957
Ni 8.925108599526471 8.405870298097993 2.9555100561333685 0.028654944732531294 0.08299212472251512 -1.5133369225551743
P 0.08916567235534145 6.24439123099393 6.830359639490249 0.31695222798688644 1.1576122017857806 -1.3171923474766798
P 1.5318571863786912 8.77153225833403 0.9467569318373913 -1.830659903617918 1.2648158907574927 0.9994749591889948
P 5.060870305899664 0.48059750714853383 3.241094392682049 0.5617734423354777 -0.11066156561332555 0.08614224031572261
Ni 6.21260875950826 2.3316335042728573 4.6419201400909325 -1.0791483039509222 -0.33406934728314724 1.0473874665995575
Ni 5.770476359940486 1.9754100315994558 1.5295031715103466 -1.7320511554040685 -1.7054294390514824 2.0393386066076813
Ni 9.201104927917463 1.4948975642893576 7.818360892968923 -0.3449127177555544 -0.3326300437334594 0.8981472693820854
Ni 1.703497484460812 4.540015313037189 5.181617531441075 1.0610348821796631 0.1836184175870257 1.7640179381186523
Ni 8.473033080387761 3.452766961081815 6.900552082837252 -1.0336006972281102 0.04804080545831081 -1.0164198145734495
Ni 6.460850327442786 2.5275615540136833 8.408759783597365 1.4827590497683174 0.7472109154091131 -1.2066691072134315
Ni 6.000308204609277 4.4984018624268725 7.28704880349002 0.4643733697177487 1.3388184103868879 -0.39957925606049893
Ni 4.3701879521700695 6.3824454654125695 8.050029037445691 0.4930162302654219 -1.1950906583472127 0.46868536682954115
Ni 4.050036323052883 5.399048511757768 5.76538238016782 1.0062950674346218 2.1820240334257712 -1.1147110315468802
Ni 5.933752849736905 2.8011188276978953 10.67767780877952 -0.7134988678686487 0.2643801103171253 1.0920441860769838
Ni 5.454044055625209 4.265486155485141 1.7188943677362574 -0.7095715077897845 -0.46940887525912706 -0.4257448587122732
Ni 6.86900417178507 0.8574557564427842 11.943480851834437 0.07645869447937156 -0.33318411646471646 0.7563725273037232
Ni 3.7748810480090556 7.724261975480595 3.590469822102084 0.23637462624313485 1.7059832546724234 0.6984774547591519
Ni 1.3615065034288907 1.8813709223491493 11.09061257414858 -1.1684380887566908 -3.752887075221872 1.5999185644011606
Ni 0.3347915643801835 0.06040445139343458 12.801765513076038 0.4853707979050221 0.8079545131460731 -0.7680898157406515
Ni 1.9466833872751546 7.369767334687478 8.468201696160154 0.8526636831279896 1.0284808595030417 -0.5623483410023412
Ni 7.689862893581521 6.678720524507445 8.175259077327494 0.6562180318693086 -1.2245783833936845 1.3145142864238846
Ni 3.6913457605611284 6.78479604165941 10.22998885009814 -0.5839103834438332 -0.42781099721268256 0.8951437066690713
Ni 2.9014471469775622 3.416601667153693 11.363900710761701 0.9250366375737618 0.2017099849814139 -1.8594873693725718
Ni 6.707559309278035 6.096814403677936 1.0695310959454707 0.8542356556007998 1.6898894344343542 1.4140537739821197
Ni 3.247372388666781 0.35690285687716755 1.8172490151612426 0.5810831984076831 -0.01593981115870803 2.0449238140049424
Ni 7.758305945966421 4.441144819559276 11.451258118420634 -0.7280734232487138 -1.054020912755675 -2.562960477574102
Ni 2.344763281525832 2.0198083032926095 3.8883634416383925 -0.8638914335230091 0.8456432859460985 -0.44785428901680285
Ni 0.44582462376183096 4.769884537854742 8.364322262748011 -0.20778318775868732 0.9527965812958494 0.653407559003707
Ni 7.621354425936286 7.39901730109446 11.50213810790928 -0.09692467564320727 0.2493281010800093 0.36885380195218415
P 4.2029772017163545 1.52030672041095 11.419457891364303 0.21928116109595783 -0.35402290758693866 0.7746278739694852
Ni 2.1834025243535127 7.4270617577038385 5.6199091207234595 0.2099118040659159 -0.31623797552868116 1.3740684918384336
P 3.2834535772601856 3.9962930141689994 3.6383949108310194 -0.08547272505252378 1.0024692659306285 -0.20809737656499647
Ni 4.607290235773248 6.866387561371666 12.470689535482888 0.4638146690008012 1.3351995826873777 -0.505370895176033
P 2.1945511537220526 3.8573136210684766 9.048534112726745 0.7890782450668604 -0.7780672386683374 0.5616700839883939
P 8.746524938811639 5.5517277293799 2.030629856359474 0.051728795832859296 -0.0293033769498076 0.005880112929860841
P 7.914891389134277 4.193258363037995 9.00930738461494 -2.1658638787261406 -0.382781981997502 1.1373740203620346
Ni 8.31200874455431 4.799984902646081 13.42799888331605 1.59846152023966 1.3349252459800687 2.532721219073587
Ni 6.393164223070336 5.6783997085002325 10.09394006066063 0.774899382463317 1.011713924457348 -1.4445791962644865
Ni 6.034211999537241 5.180253156011229 12.896864349543774 0.023044540524289343 -1.679804025173894 -0.9911548693590737
Ni 7.724374115926883 0.7332966578230387 0.6571392772371921 1.9450706518610306 0.4773710675289973 -1.1564940290209371
Ni 3.00831699229074 5.865543423281773 2.3769279650326025 -0.19663719844419683 -0.4932196045254796 0.8789179888388283
Ni 0.25923506968570076 6.984723767317869 9.895043092604308 -1.0277558084115592 -0.785728354758021 0.9012984134165575
Ni 0.5520646135683536 3.8405392793111175 10.77238041567037 -0.5631083590968172 2.3111656601211554 -1.4415535220642852
Ni 6.018194605792332 0.8286954699845964 6.666600011271069 -0.3585611617769244 -0.1673839580060343 0.061342407663223394
Ni 2.5405418106716056 1.4266881378342262 13.658298914348098 -2.478254969704906 0.153447036209968 -1.2145780776478632
Ni 4.148878781419224 3.2528298903861663 5.55206975774108 0.1494129753499104 -0.9516930638190255 -0.6610851301536228
Ni 7.7239535892533 3.661161290435073 3.1184211549756293 -0.9715106127655849 1.4574653081985351 -2.0378406819059163
Ni 4.40724102463131 3.6616752674805633 8.711003517945958 -1.2118092566534744 0.24846035376307532 0.45205135781728595
Ni 8.627693445894328 8.10553014782515 5.0954217119049465 1.3647716399175398 -0.3311704284687974 1.854753454232012
Ni 1.7800800642388366 8.918856769645874 3.8685043031043747 0.07575035555843727 -0.10840285148613589 -1.4420327756935487
Ni 8.910904142996563 8.6319547828533 7.490650063268154 0.32049263703997705 -1.1258606204057966 0.03387042749519973
Ni 5.060066632701262 5.918735374971403 3.373505159141208 0.578221817699488 -1.1578862813827737 0.5861806675352486
Ni 6.417704290733191 4.572246346308013 4.95710207843009 -1.9305639736044236 -0.17115088124763425 -0.47574458766916766
Ni 6.502360982644006 8.482677158768594 4.610380639572221 -2.036697312330092 1.1801877730934514 -0.21103229082360428
Ni 0.35270132815621574 1.2101542810878427 2.430324573036709 1.251341767530458 -0.10887824846065765 -0.4112471793167305
Ni 3.859238698729767 0.6909542943118453 5.048057325407456 0.4791451287102845 -0.7366524231669765 0.8330351102637846
Ni 1.4264918920532208 3.7993743904859563 13.018223675021177 1.3472598562860216 0.9968316080288767 0.3519410853572455
Ni 6.724268235775058 8.760234108370438 1.9826085137474743 -2.202108462880472 -1.8944883109277888 2.1112017112965704
Ni 1.6324565117368897 2.6246097652394047 6.990563481058355 1.1273942834415036 1.2476918294826964 -0.15591195281069278
Ni 0.8855768423571262 6.6373220097525145 3.8757663315052904 -0.11096829822046694 -0.6575460066521126 -0.729767266011369
Ni 2.212549695351397 0.1647408571242056 7.127173907231028 1.1913713005140967 -0.1738489969050877 1.348809717271645
P 7.650454871748217 8.913483373261204 9.721887029489851 0.9205891433253693 -0.5171187797405804 0.2555226599264954
Ni 7.201715530886598 6.58931655370374 3.4627091461490314 1.7909163051713932 -0.546672067917665 -0.14920702998669141
P 2.6327306025581483 5.605069201664581 12.155616934078862 -0.5765963662809231 -0.3795061394597077 -2.061622357706546
Ni 4.649987710697689 4.745437920563796 10.976733950942357 -0.7638009585573104 0.39072849053808834 0.946137938328751
P 3.903982736798978 8.652953081420868 9.257155526483738 -1.425827626688596 0.31458372775470983 -0.24887147315856495
P 8.090942544770423 1.1231519848421552 5.862574504966278 -0.5537603422230141 -0.5127980408780394 0.29771394858256467
P 9.268501336137001 2.3990579476039677 12.646007105699562 -1.9738304976025427 -1.1060919224193013 0.0175547210543117
Ni 0.8757159591134689 4.2806624958828845 3.205396350613464 -0.5741520185054886 -0.5520109636320751 -2.271375781817727
