# total energy = -381163.9415603044 ev
CRYSTAL
PRIMVEC
9.35950194515525 0.00000000000000 0.00000000000000

0.00000000000000 9.35950194515525 0.00000000000000

0.00000000000000 0.00000000000000 13.69857716968770

PRIMCOORD
 96 1
Ni 3.3125335679377397 9.093214537091063 7.847886971614491 -0.6323563947603625 1.1713539768519055 0.027409502361204405
Ni 5.3703136162161496 3.4567354109461337 2.0037457729453756 -0.8851932803245788 -0.6871774563653004 -0.3406778537386004
Ni 8.079524343746018 1.0955109573860244 13.67565933772455 -1.0745987369070267 -0.7806799937008362 -2.321098345853835
Ni 2.5664596072881585 0.21298950090351876 10.263220576521398 -0.5134917245109544 -0.5383972295033824 1.1297095618382416
Ni 5.73384602254373 5.904638209940184 1.7173908818552148 -0.7206357360237461 0.16598862032040448 1.6929451905415422
Ni 8.127669620596487 6.364760674023759 6.412837626511668 1.0380314793059542 -1.9628729701497747 -2.1323053260444054
Ni 4.885229361043888 0.263916421665333 10.226494827720163 -0.10798247611926563 2.0344866778320188 0.006326456438660072
Ni 7.59950357900457 5.951070697975793 8.60555548299548 1.1019087375758896 -1.4593018471866415 -0.2961368339034319
Ni 5.678587524385648 5.881623195209371 9.72293491615155 -1.765390650096463 0.680872340082879 -1.9688073333563385
Ni 5.918012937898839 7.3807813832972196 11.308449482814154 -0.22076443050970365 0.40236041835006187 1.715932395465335
Ni 0.07409449537067239 -0.3803018255602754 11.442475675551973 0.1705034774716225 0.9338454941146433 -0.3481345671269617
Ni 4.991347391551396 4.833162452972513 5.825799383147369 0.12686902861112342 -0.006154449637170046 0.4493534992701487
Ni 3.5000137469019204 7.308694501045603 10.362466860865684 -0.03990043573936354 -0.1547359302247206 0.20340177086154002
Ni 5.826065192996232 8.263157767503056 8.947253107759206 1.2043921382537968 -0.597042549950417 -1.0213637888422862
Ni 5.219148303927672 9.089817037966506 6.482248627221382 1.553273610849112 2.604619290765469 0.48718728228847064
Ni 8.478042567504986 2.013481526635084 11.317531007333598 2.2561651355155594 -0.7909893460466443 0.0973501932164001
Ni 2.6898646374735073 5.650097201148317 2.615647532630296 0.8081329477054663 1.1899448524802152 0.48467325761736524
Ni 3.772543718000669 7.801893444209575 1.1788367293036677 0.5384355389404857 -1.084516510241371 -1.6242273163498542
Ni 1.3597577694620926 6.119925468516096 13.77200136868495 0.38249067600932835 -0.22211914476538522 -0.016063481220765882
Ni 9.017103069099614 5.527188224554158 3.732848199303505 2.128698325419437 0.5563766967999386 1.848355006904836
Ni 3.280056096967458 4.642247336876892 0.7016303667295865 1.3118747919185085 -0.03866039268467536 -1.2409995050641855
Ni 3.8557216097911273 6.690593007420995 12.711100912711318 0.16560835416285025 -0.33225697666475684 0.025241033954975883
Ni 5.892601890727566 2.1539208499518194 5.807895592306143 -1.427261016701013 -1.3059504560142734 -0.29501120493942096
Ni 1.520488492508964 4.010218904692118 3.692259784142202 -0.0476944778624856 -1.0897721022133555 1.5233997061078153
P 5.93978313890082 4.690898026820271 7.841586155056222 0.2947576941677182 -0.35398871191489356 -0.0037548390567419205
Ni 8.357454747337519 7.720025882659992 3.587191889727739 -0.33237756140302116 1.4571979134697612 1.0440427184970404
P 3.9022289738405016 2.087225040691236 11.13838172085087 0.31942074413203697 -0.552200711045378 -0.9185026931099858
Ni 0.3755200561312504 9.429136413343041 5.013350644146219 0.03530227484571985 -0.9711000075907276 0.23246680654829643
P 0.009494278545318017 9.261236311978235 1.0334181510716034 0.5024624632799862 -1.9556049757334515 -0.9437529830363425
P 3.0970497598256963 2.8355078437468646 6.423893069943973 0.3711816787544124 0.3844812240767959 0.3779297961115233
P 2.3600545158450412 5.357229032810832 9.821989330710565 0.35638240895805073 0.9007001177109262 0.3797781621741717
Ni 3.9492136724776237 3.2014550015183447 4.286531050436136 -0.19088075557639383 0.48280046607468474 0.0379746794715604
Ni 1.1962566339059408 8.25304014614315 9.107279996276693 -0.6349843193015129 0.3911979739753392 1.4204694477004762
Ni 0.8916422909091741 2.318620001728201 5.4702394003853465 1.4825901282906206 -0.3065289757710334 0.7506513085492298
Ni 8.048460157535539 7.587448540788512 10.024207917034083 0.4321294220823784 1.3583834770030088 2.1187268160290222
Ni 0.19750139745636555 4.967901839741438 9.655592365322079 0.8176365163205274 -0.4825461839720335 -0.5568178981024152
Ni 8.101247747239396 1.2100618989437406 6.379865973850543 -1.264208853301113 0.017105806442351185 0.31309377347274464
Ni 3.6484554441897203 4.651616198099155 8.053160499299596 -0.4446383531826665 -1.6334413787489546 -0.4206548457838755
Ni 6.31626909560963 2.388133021006668 11.613680616974305 -1.8181327176851847 -0.18340630157621962 -0.4438608515866937
Ni 8.088116366325476 3.8405404980004074 7.353217650730222 -0.6367316410099227 0.2594384500411338 -1.0805068748613456
Ni 2.6993832507232987 5.496358025886692 5.307075206891135 1.3882532679792479 -2.3688730421349526 0.9812409526794714
Ni 8.104514213339867 5.686018968751759 11.223065556468162 -0.954631063401427 -0.5319684431589031 1.286379218750565
Ni 0.7950391298507696 2.402808719704478 13.117551314178446 0.12167488600469369 -0.6153683448427982 0.7737534417843319
Ni 6.862611289542841 9.508972963019268 11.609037368170743 0.7611393525647472 -0.8240203083596841 0.18768178902312194
Ni 9.02310250970248 2.511874993253956 1.4022274444692249 -0.8878803402384386 0.30255636427653054 1.3068464854659816
Ni 2.4565322595803902 0.3641997388002546 0.9825932488785429 -0.19235939700444935 0.7907803153596317 0.312768528922842
Ni 3.9305508260468622 7.666087074244507 5.43134879883615 -0.9096262165559624 -0.9934917450223664 -0.6334056619604834
Ni 8.422624957817654 1.8431011573143332 4.020874697400955 -0.4535325703485028 -0.20123253112436312 -0.06233922435885392
Ni 5.817913066997639 6.923990901826157 7.036342360479544 -1.5221933445045397 -2.5395444126430067 1.221777680720096
Ni 8.601419519185173 0.5774335226986795 9.194224151559498 -2.2750506595661526 0.25090470153850986 3.07199699452718
Ni 1.284123636058391 7.589563788177354 2.170923320777357 -1.0612454555285722 0.12703820719913606 -0.6022760304352144
Ni 7.73882912161656 3.064937309422516 9.390072661012015 -1.2851561449767417 -0.08178679156050431 0.8559744926687775
Ni 0.610617636048862 0.800135378537605 7.614765182510086 3.287423814874054 0.015337915908651006 -2.2330270068361995
Ni 1.022899943038058 6.7502036738791285 11.341641083765714 0.004588647811946935 -0.3575975123120745 -0.6825456140202438
Ni 6.933677986106917 5.673804819006451 4.198737052397107 -3.187855273850097 2.7648764079187353 -0.4772911062206812
Ni 8.163825375742942 8.097382273028813 7.901325046687927 -0.34668497916462876 1.5317388221011299 -2.0614632064208624
P 7.742863066858115 4.830626028006245 1.1125452505174114 -0.1773140726355527 0.04782894655782085 0.018893751580709394
Ni 6.111651668995137 8.083427255963484 0.4939252404974858 -0.16683502748109977 0.32210214761894207 -0.20183519770536854
P 5.401611789969643 3.5446398511054658 13.448153249652469 -0.863837183246306 0.005528900238029188 -0.08092418644989288
Ni 5.907539655473552 4.632391781565161 11.449380179971218 0.7974135044054331 0.758071769383017 3.2059632963047173
P 6.9289139997311615 7.959778878733401 5.705307029897453 1.3158363476694177 1.4617971028046695 -2.49987331930563
P 2.803779132914227 1.743562856516367 2.9653859053221407 -0.2611667455861502 0.03292837529690458 -1.1534033059107553
P 6.196589147109057 1.9183141131406105 3.558972056090132 -0.23136843127779508 0.13605995108177213 -0.18549660844634505
Ni 0.8568951407716611 4.317266718136225 11.89026886801908 -0.46194599122317864 1.2359418880356199 0.2492509679851707
Ni 3.252969698988209 6.864651660917919 7.998091999026441 0.005432740979797095 -0.4028314444492095 -0.4567323082327231
Ni 0.7896368254576727 0.7171212780272558 2.745893422623189 0.44074930254090544 0.5779585367357724 1.7056716369692755
Ni 7.187414077750817 0.36428023051505126 2.1965253017837276 0.6366856182633357 0.3047752263047203 -0.06766655010903831
Ni 8.335834298363066 6.897166569895083 1.3718025122262585 -0.1816047295911066 0.1434179341087401 0.8921216320132959
Ni 7.153719871556865 3.8000700125607834 5.167527844088366 1.3542074912484485 -0.892144000610799 0.4274870382143605
Ni 3.3533409954393036 2.1928844556144367 13.240879596449687 -0.03614508246198936 -0.6101518336388653 0.9692375004606921
Ni 0.9971893918117285 4.415607002713962 7.472628045581244 1.4126895466447413 -0.4176592534906613 -0.45452912993381717
Ni 5.01283680750176 3.627134499270325 9.828221822906274 -1.044000038184563 -1.8170158304719226 -1.5275594939124595
Ni 3.3853411318218374 4.088866797649834 11.957432652365691 0.07693383434357719 1.7035443062136275 -1.0667771839800788
Ni 7.760814591158115 3.5548604269842983 13.079045388149963 0.3280647929602802 0.04954490080766306 -0.022926012668554062
Ni 0.8385149512928602 6.877296347742371 7.517038881245217 -0.12109253113866243 -1.4089249373959865 -1.3522261991523614
Ni 5.574865526318599 1.091083913072208 -0.1568512095837066 0.43704228600296346 0.5548546037284574 0.5489012143584998
Ni 3.725933399432368 0.8000024736131733 4.554804320152382 0.849809501508646 -0.0691549617291067 1.8851840028077276
Ni 2.8008028113670944 2.08850729242695 9.013307791151934 -1.1815921096401456 0.9015598946080603 -1.0246473446895643
Ni 8.200009209394558 7.519376884775007 12.958114074269353 0.42113615629566825 0.9281800682987499 -1.7850127952027646
Ni 1.8456750202874825 3.06311220658701 1.5821853919006061 1.26868128725017 -0.934914558809106 -0.5372826562829651
Ni 3.2441249698622965 8.4140797327468 3.2023712967367857 -0.7950851133825726 -0.6032738755721094 0.874322656158662
Ni 6.583042973150245 5.737982922304209 13.32505801897407 -0.25824494395366493 1.0633835849174975 -0.8409309680720938
Ni 4.729543409424389 2.029870014147753 8.009667830754408 0.8715486929579506 -0.2860478250985461 -1.5781156095934563
Ni 5.787915863983302 8.044210943754411 3.1518917601572136 -0.4258150498285764 -0.9410893201612501 0.6647373821942293
Ni 0.35483555732885214 4.830766420532053 1.8245272261499172 0.815730557547066 0.21656736170922056 -1.8812527860741215
Ni 1.7127794553575035 2.3657544523928515 11.045875213695547 -0.591322359637188 -0.48592127109185346 0.13436713676038148
Ni 7.565013815164371 3.7166113357187083 2.8543447769096284 -0.34181505266683715 -0.06515406809982974 0.2983137869500927
Ni 3.9566544763454545 9.292103948652585 12.229034160893761 -0.2809120465338775 -0.7413313166998845 1.497986408241033
P -0.0030568132619290854 4.202959123623243 5.5005398512554295 -0.4467633699454693 1.117507877565727 -0.396000280459989
Ni 4.6823995992580185 0.6741040721694718 2.032854759246434 0.21860984606054606 0.5132027325156259 0.6525446967827794
P 0.4885360394067976 2.473023701611986 9.174827520193848 0.28396805975138195 0.4373143087174275 0.02439231280143541
Ni 1.8439903099777848 8.280369891167133 12.948579549866636 -0.029313147141820484 0.2514400052166895 0.21189875258895763
P 6.68308668704112 1.158369370941186 8.180379526436065 0.32918245150449116 -0.45614069739531127 -0.4490771056803105
P 1.805943935483781 8.36229360972704 6.225414540507982 1.019750164498263 0.5847735027750768 1.5004150722871838
P 4.608000920081428 5.86849181429545 3.8425462392191196 -0.18390740958235421 0.36749960191713477 -0.11861115947770541
Ni 1.5402651196444697 7.0813522042536325 4.599351804541475 -1.9312810542761059 1.6449123555030316 -1.7206236302934175
