# total energy = -340864.65611709526 ev
CRYSTAL
PRIMVEC
9.28002383011478 0.00000000000000 0.00000000000000

0.00000000000000 9.28002383011478 0.00000000000000

0.00000000000000 0.00000000000000 13.58225291455806

PRIMCOORD
 96 1
Ni 4.401162522830456 9.093699224683963 7.361648719620533 0.9121500114190807 0.25773637974836255 -0.022534176546774098
Ni 0.2631870355309627 0.5333248086913369 12.379408486349266 1.2959375518629617 0.31425308388816847 0.29399947584545494
Ni 1.8690524205464294 8.866914009480276 10.878474183474363 0.33804195877765003 -2.0116704512684516 0.5503785702349746
Ni 3.009697233605841 9.217383378388632 13.33678025856652 -0.27213147212777 0.8051867205929488 -1.2545456191797362
Ni 5.504826442093865 4.176094111981163 7.196828077579873 1.2217190595680185 1.7704351544989059 1.0312046861921078
Ni 5.412972769122014 7.292298175724197 5.499006011331292 -0.17338259879163045 0.3571871642475332 1.26688614302296
Ni 2.325805899027084 8.12210860040291 3.6513848771418234 0.7984717704666183 0.2705134769083728 0.7441911547461828
Ni 6.270688224577285 3.7172433481810865 3.5992701209612497 -0.17796970394168057 -0.6123719812186357 0.9130390988922533
Ni 8.796348710502912 2.2459605765124544 0.7556992287077611 3.527469462210873 -1.272098540461835 -2.410362676738307
Ni 7.138314745170356 6.334692546913804 4.015321416207459 0.13663047887326144 0.6986348062726226 -0.3745485383441162
Ni 7.354121692529456 4.90623708386965 2.0984583143970394 1.4783550071633507 -0.598510392745195 -2.1485338720881253
Ni 7.522767560272176 8.722953004346682 11.210451249480013 0.12388603472339954 -0.7323753930581774 -1.9310216299671326
Ni 8.68892315803553 7.445065923194655 8.53701659674933 0.08263525560372866 0.08098949247018955 0.882434743742835
Ni 8.672089195338932 3.546676515566153 9.304779856055534 -0.5215621602239147 -0.5005220517241638 1.5456860283098413
Ni 2.559736732354464 1.8157015652306918 7.801292618705531 -0.4994229051227141 -0.9393682237050855 -1.5041678544613966
Ni 8.831046718508746 9.192633555614746 4.37966534830638 -0.7585669638518807 -0.6845449038384598 2.3022824986989128
Ni 7.939171496412803 7.420761541550559 6.165677334234299 -0.9678231366116687 1.1235414853543164 0.4723623014604962
Ni 2.6155746339781887 2.795421490130388 1.9817054102723524 -0.9104615679730643 -0.6834768675852616 -2.9271739525407976
Ni 8.822750377466432 9.118662487999206 2.16641035874631 -0.33349162040280633 1.09156493244772 -1.5907250708273508
Ni 5.069045816807431 0.6925950686543579 11.737850763142806 -0.5682693344724665 -0.6333619532067415 0.4667457266046671
Ni 3.8409739020034435 4.626982615586266 4.928171347502329 1.0957229204801517 1.1972884373294799 0.5693054890464646
Ni 1.305569391363688 7.0886480591989125 6.879506024744274 -1.5121112776781893 -2.2795148659850937 -1.2708626111722048
Ni 7.514341298900341 2.714323364438228 6.81067145015661 -2.2418026961463005 -1.203368839195605 -0.15119217873752025
Ni 4.117481483319796 6.034038344353486 7.129025441609553 -1.2033811804907792 0.830298685169228 0.5246647104086384
P 7.981590484001642 6.6095204439699105 10.576879914529721 -0.38699447741695286 -0.8990055036173227 -0.9862738871176885
P 8.391591203901553 8.454871684402166 13.489825478740743 -0.882514705051151 -1.608684740629565 1.3855361261584007
P 6.5124328377230425 3.488026766810637 9.095681437711523 -0.3445597052915098 0.40753347791056915 -1.1099205521367723
P 2.068127485467842 6.017816863210347 12.959017412432713 -1.2433687766273103 -0.27523607919502274 -0.8503512329447291
P 3.5272255862320447 3.3779007274939112 6.6254366123386745 -0.36144131153819686 -0.26919527231758156 0.023352815793327524
P 3.751959916233996 2.443272436961786 12.429621765707054 3.2166737407436856 1.3369415050791493 2.2604791895098812
P 5.86931792656703 7.950530245222415 2.5268288408889683 -0.2653720419167494 -2.959585021881651 0.6944853028806233
P 0.7596729347864181 4.7401710626702895 8.234634453806374 1.206112206268697 2.726426588582969 0.4569449384641614
Ni 4.832423776654243 0.4160503672438558 4.857516032296654 0.16972726142723027 -0.9487689481936951 0.012760899210094151
Ni 1.6013794216375528 5.83294023430095 10.066635452377918 -0.42150330982709994 0.9322249277920849 -1.0364286535952085
Ni 5.433676501633653 6.1855904087405635 1.0537828647482557 -0.007150495001852201 -0.8473574404237277 -0.2792259170807062
Ni 5.926677752050866 8.840104021481118 0.4240460355235634 -0.4178898814442287 -1.3386214638847334 -1.2897707609306175
Ni 2.597033146950733 0.8739805527090355 5.656165993941939 0.2509342692248646 -0.5840348248368394 -0.3757785540964754
Ni 0.09445393556699239 5.797230703729554 0.41711664194828757 -0.37910221915306963 0.12522686502201016 0.3077294238370378
Ni 3.7836975967314426 4.295333134411483 0.2219243388748668 -0.058383067924583316 -1.2553035803916832 2.0242693709793844
Ni 4.014714502668122 2.7374863031872416 3.666297874966208 1.5798724443835628 -0.5947159586997692 1.0886325892922737
Ni 7.262861941063992 0.8822639017183984 12.81080801252376 0.26842522692077636 2.6952555622968033 0.9204035096771246
Ni 7.9379186932352725 5.087457383505364 7.328779804253894 0.5394544671233032 0.888932949872669 1.4209713270375592
Ni 0.34424618512426647 4.693288383760025 11.810080898342756 -1.2032333420590051 0.6226486805542955 -1.1748779308447637
Ni 1.5874872264022668 2.4351709764137537 9.611331513573784 -2.0232234462133736 0.4942279911853359 0.888216897642251
Ni 1.4562120134441137 0.9511374524049193 3.5436911319942146 -1.8904071988798796 1.417611666536707 -1.6719297646321398
Ni 8.987034634146637 4.452898654050709 4.021189175090072 -1.956568110977669 0.7522878157113883 0.609589276267176
Ni 2.352374606414274 5.834629198584732 3.547317765192578 0.3446484083505742 -1.4439240791789907 0.19772940306711106
Ni 5.205712723440734 4.80182753905188 12.163178369916865 -0.9650771984354152 2.40623425639223 -0.218299771019295
Ni 2.8969078275339197 4.198505368823659 8.650835157431532 -0.35001712886165526 -0.7203629419783335 -1.4812608679562358
Ni 0.22435292103456908 7.398081164025482 11.871051580984942 0.8240786724014453 -0.9456756539803519 0.7912551981135211
Ni 5.393642480093891 2.624882497586066 5.654481669669925 0.21327840654530367 -1.6586597869961113 -1.3080217367210054
Ni 0.5295515511210849 9.26534254002922 6.811486236223182 -0.43386980181225276 1.1395466025333214 0.3222242750191031
Ni 6.5124328377230425 0.4717899006180853 2.4938513492469427 1.0785497511349746 4.032818245899719 1.4616505499244763
Ni 4.014139141208812 8.615620252114674 1.7261549061102053 -1.0011153230058953 0.2904852920446094 1.102276148217637
Ni 8.355157831494251 2.0366496456294385 3.157737737086417 0.13466255651361325 0.3772937051894212 1.2743523694930181
Ni 7.522684040060342 7.146007884682748 1.6341351207170376 1.883153345530944 0.6615641266725704 -1.50168314036633
P 3.803204206206774 5.4418336423229094 10.007892903387027 1.2499297176742798 2.104991982941433 0.19613994709280413
P 3.140267164775162 7.888437607734574 6.188617552418419 0.44054155740547357 0.010371573042311169 -1.6233140605069656
P 1.1107909773400293 0.08103316552739949 9.039641231574686 -0.3331872017885101 0.9152021679818433 -0.7752755348558132
P 0.5552182402204529 2.0927288278651317 5.225689830109404 -0.2674001280903717 -0.7844921683580747 -0.3735401516842599
P 4.4304409970905265 7.867269874046071 12.216978378371808 -0.25831616351123254 0.6067798318428389 0.2261526914048105
P 7.117648132752866 2.746859126959879 1.4796366488568784 -5.465821307290832 0.8342743819875245 1.4357135183437404
P 5.703456065885489 0.2686706014391327 9.250098245364555 0.2575188644209178 -0.5162726296902013 -0.06994891838531178
P 1.3646181811313065 1.1187810776056146 0.8846228837015712 0.9354056395129117 -0.4377457398278912 0.5429195428537682
Ni 7.118613255200742 4.295119693870126 11.162751000496115 2.0311527283627795 0.20125001462585987 -0.35660198116802455
Ni 6.360147651476522 6.865973894422234 12.213812962343246 0.3165143691185194 0.2999029858140835 -0.057157165937282206
Ni 3.583044927808695 0.7061550390470097 9.88557105713763 -0.045091750132315894 1.1799661440009483 -1.1911229319487162
Ni 5.924218545813489 2.7704953469092937 12.794060354046056 0.43014787287597533 -0.10681802349751926 0.5466149894274844
Ni 1.5241417857368946 4.7676677724112055 5.743160646589677 0.08310088238623753 1.050397199960159 1.305637552759545
Ni 0.42539720695058925 6.867635018635404 2.8935902191193477 -2.2979959555084166 -0.020552627340371055 1.1419701243731495
Ni 4.878638293869823 1.842483713159239 1.1167747365168579 -0.27797996048874707 -0.07532303821303157 0.4219270276280798
Ni 6.293489242408346 7.197298574773212 7.853068654026995 -0.32577831091894865 0.5883041416361545 -0.3068292806202716
Ni 6.735515323535361 1.8044077765858402 10.448568741089373 1.0106456310938337 -0.21950587551225423 -0.1656384360698373
Ni 1.6917018907257548 3.436244235472697 3.893651027610375 0.5117508305604477 -0.7980454815624772 0.2828488585452742
Ni 0.30293801635283807 3.109624527055112 7.095681389037805 2.088608913597719 -1.7401442168248484 0.013858503149647101
Ni 1.3045764288452009 8.082380819639878 1.2422285907100845 1.5087914692763371 0.5975400584121257 -1.9414893622676757
Ni 8.642838561149471 1.1541101272119831 8.720797254878976 -0.639363165095499 0.15238079972898275 -0.04601709016006268
Ni 2.8354091115524636 4.513367287419529 11.612825646037 -0.6923456308298013 -1.1311444945125553 0.4852728388745771
Ni 5.8606967847009095 5.646086960378115 9.372813564611933 0.1172721289513077 -1.1642718731941433 1.0762041337209336
Ni 2.130925404744515 1.7583046196527068 11.625402861937056 -1.5509876430284126 -0.29074805878769283 0.22999597641030067
Ni 4.417634564609101 7.75177070110127 9.86924471172852 0.7533602228399605 -1.09235991754519 0.8540613348064647
Ni 4.6656153535719005 3.2650649213043037 10.485172865929762 -0.2687432723818275 -0.46366580212776276 -0.5973739651479066
Ni 1.4218759263562324 3.5593344676709826 13.511027548516335 0.4221088046215827 -0.5295991715957782 0.736783292317886
Ni 4.457510825748729 6.842783115602608 3.486658891341244 -0.4301301322641624 -1.3247861006635377 -0.11477867310549264
Ni 3.1098750876906185 6.398715429297395 1.124090179071284 -0.5798097310118983 0.4299002756415435 1.1876527140119286
Ni 4.769198976294854 2.0647495569002774 8.139436260351692 1.8254691034455983 0.5951458471483363 0.8257357483888941
Ni 6.959275251065899 0.09892133889783183 7.309614699644733 0.02516698618393085 0.827437304461033 -0.28686903544826076
Ni 2.5583632888709493 8.002275656466205 8.404494148627768 0.6879361889081959 0.09548048699751298 1.4975634617710014
P 0.0656561665261511 6.4794052339539165 5.099144645148195 1.7892263190634798 -0.5312477629427947 -1.6152724211494114
P 6.90141430431105 0.7379753117539383 5.130437812518208 0.7062519564982481 0.7395497993194295 0.15068387164253405
P 0.9338302085079198 4.887036715171048 2.2360597194005463 -0.03358580637524538 -1.5556865911659787 -1.0804371979656748
P 4.397153552662356 4.587635315788262 2.665652424992333 -0.1396936911796175 1.4982406903436842 -1.1620962056990631
P 7.101807132574755 4.801818259028342 5.471284725020774 -1.3487904339979353 -1.2543342744998782 -0.6218503530227162
P 7.2311706606842305 5.176712649886781 13.328617549863143 -0.4190419927708009 -0.15697150442345867 0.7739231345929768
P 3.4675643149109674 0.8210751385230868 3.253696892471154 0.7022415497872745 -1.2145199707164178 -1.1411571415535506
P 9.199111012043758 2.5553008811036517 11.714937457026945 -0.5075010541451582 1.07654506200012 -0.34143761472276035
