# total energy = -381163.9390154957 ev
CRYSTAL
PRIMVEC
9.30809035817841 0.00000000000000 0.00000000000000
0.00000000000000 9.30809035817841 0.00000000000000
0.00000000000000 0.00000000000000 13.62333111539479
PRIMCOORD
 96 1
Ni 0.3953937251596139 8.338289919111054 7.472111589242636 -1.0238155928168884 -1.3574008013747654 -0.07640804374709421
Ni 5.64102866690459 5.845909048379648 4.652939482450134 -0.16791926168421403 0.7130013594069398 0.04841361541669727
Ni 3.4828082475363473 1.0864124067341046 10.699587742811485 -0.1205250886709666 -0.13581363939892094 0.1219556504699061
Ni 3.5299537262593117 4.01820030887222 9.865172341194643 -0.3199671035538102 -0.02573982796826535 0.4121956592729288
Ni 5.67861473661502 6.192579573465154 1.6460120192081429 0.7239455171232693 1.1418171437350528 0.1583511583798047
Ni 3.3141642626394727 8.12519049366514 12.048610239527594 -0.299863905046032 0.34071744872728416 -0.41573735387760014
Ni 8.066558831182228 7.883273219823118 9.121228787464002 -1.480981131932288 0.6446606660490124 0.4840104272223858
Ni 2.7987194393891515 5.471035008875468 3.307145031542733 -0.46084761595267737 -0.7464462693289468 1.402022039628566
Ni 1.2886306743069382 6.74198031110469 0.11965736585971418 -0.1802829254558895 -0.887243220875072 -2.2830635025683
Ni 0.3346956665707786 1.9708578643406902 4.651809480255273 -1.9853891489744195 -1.4995930906065205 -0.8319755586510187
Ni 6.889597319410217 1.721996754935522 2.2088871487527855 -2.8045868391344793 0.5298562819119068 1.4421785572427936
Ni 0.8525522160870664 8.495941049048042 9.864177306313007 1.2894046358404503 0.6650968224161771 -0.4782958933361118
Ni 6.098400313106032 6.614180227616773 8.30411526459351 0.703606291345285 0.821668777408372 1.8766489687535228
Ni 1.5664771777384263 2.414202218057333 9.224017100788746 -1.2089962126847114 -0.36895947429211295 1.1440059238562557
Ni 7.515296475429247 6.228769429590502 3.1954339826002536 1.1403176763713911 0.42460071780550096 0.7781348586814792
Ni 1.2147523594749206 6.417705051923913 5.845021987348591 0.7109853574181756 -0.3673671901043286 0.3502176749082355
Ni 7.21763304718015 7.58059273075829 11.494917541327515 -2.70328768857266 -0.5661828842570831 -1.6172735107398404
Ni 2.5900227407815333 2.431934130587885 4.714394288802083 -0.4627772288752223 0.8208352257634831 -2.2588439678993035
Ni 3.0779063078623197 5.426160704250905 0.7812494499149985 1.2055637899643947 0.5468535878008517 0.26327787839188205
Ni 3.0130289166088025 0.8455385698446669 2.2970161502432154 -2.2128998970690215 -2.5445308101140047 -0.019662254315617748
Ni 1.7477336253538824 2.6740841066940884 11.548606607719234 0.5154257083088737 -0.39732748391184475 0.8236228158109492
Ni 8.424343216404994 7.095790141655254 5.394771030431072 -0.9476003818068905 -0.05553634250440758 -0.09611606369898285
Ni 1.7366663056694591 4.356912416522753 8.164340322590864 -1.1993599751465278 2.1559823579463706 0.002897890373085332
Ni 6.369805617865004 8.505947246407803 0.8852794625214087 -0.20643798658470255 0.25445179545981983 -0.17446451900189955
P 5.720473219895804 8.402925300009823 9.77572159084367 0.32226027046336114 0.15055454515352135 0.20001331400528136
Ni 3.7881694666845354 7.956360346956922 0.7338573067920028 -0.5167002041459231 0.8079128612748603 1.343195970629293
P 7.241582764209605 2.282548585074587 4.591893301274084 -0.2416150487064678 -0.26588214878394856 -0.8636770035193578
Ni 6.822960699039497 5.43802851972411 13.088343502876153 3.0538707172401147 0.03756767384112884 -0.5656704633970387
P 4.695252200550597 2.405666699007193 12.80665368884946 -0.774835361994601 -0.5041002559937253 -1.98377063953439
P -0.0028966777845185645 1.2232599542533589 10.613692683057186 1.1690484686471803 0.5582109217951999 -0.2904552101376223
P 1.4978113936240516 6.521769504465421 8.910748658703705 0.33829366977714 0.34308954850388657 0.18630033529456302
Ni 6.625759492282394 4.264250374926087 11.159824419289516 1.0368971085911949 0.3622311544293439 4.184087814842394
Ni 4.962655026365667 8.20348084342602 3.4084487044220046 -0.6586999177508979 -0.814020773944811 -1.400260319742453
Ni 7.251886820467516 8.69559959171489 4.142050969532466 1.4974590749826533 -0.6274756696292935 -1.473006598367244
Ni 8.299558954260856 5.98035510853256 7.687141512672189 1.3915193403250294 0.37669078149809965 -1.8493603082408987
Ni 0.5706939256211068 8.755683316326289 4.102979328567507 0.5712093909373969 -0.5441950671320821 0.6209275840981306
Ni 5.565028107423246 0.681983318060891 4.630434381076711 -0.8430485286357287 2.561971117077639 -0.17695926039929524
Ni 4.313192315128525 2.4286856069799256 2.779963636896205 2.3002271588317806 2.3419571915807147 0.6238064483078225
Ni 4.83043359985832 3.57390652991772 4.843394185164115 0.737489317245975 -0.14393575428542307 0.31668611880969333
Ni 6.948545456972415 2.172713116381402 12.773644407270933 -0.5067983716511789 -0.0065905087333241325 -0.21361290706658695
Ni 5.165850643448057 6.669209659050172 13.046424517006681 -1.817029200208361 1.9781419804937028 0.025769395654620133
Ni 7.285368022237804 0.5447355226472463 10.984832316625797 0.7348045713249604 0.09142508598121674 -0.07599383902781105
Ni 8.380222867116375 7.832655823318581 13.189278575368965 0.804011212227609 0.42769426912916014 2.056200415360027
Ni 1.212564958191624 8.654941852117279 1.1010074927435038 0.1891948832335387 1.8846070472583352 0.7378976084279872
Ni 2.4771900669257043 0.6193556922974712 8.41247540093179 1.2132444464381043 -0.7637011997546526 -0.17739891903987512
Ni 1.273505027135207 0.7533819575658013 6.427691702293483 1.1059613103787083 0.9819112392736186 -1.4931092826543897
Ni 7.996915697558295 3.0613379066526694 9.552243644415308 0.782689053711065 -0.7703408165583572 -0.3144050360850005
Ni 0.8183561529612172 1.9387449518837845 0.7362485552587213 -0.3514793152294785 0.11326146513001785 0.13923577770659246
Ni 9.210774480338763 6.677670713375774 11.05171001654221 0.8798626121402847 1.3073655911942452 0.8234906611084591
Ni 6.664201906325008 4.136468907619304 2.7627027137483537 -2.0411239806428783 -0.5062160167851475 0.1755047873409558
Ni 4.776474598840151 1.0545321965413792 0.7932196543844421 0.496083556336836 -0.06509647538901692 0.743481530273668
Ni 8.114085941618448 3.4641920664019095 0.8303403195665117 -1.8227468194184286 -0.21894666057467455 -0.04557871707106344
Ni 5.19868027887864 6.394378976962463 10.793942926082327 -0.5057143945583807 -0.493530450897679 -1.3973632007003158
Ni 5.470811614701856 3.9833973582413873 0.34790291627660563 -0.05216511203932952 -0.8962120000325856 2.610083913424466
Ni 0.9080265742495784 4.278519677765634 1.0364056209707768 1.1747128660218091 0.6878042913160219 1.032564285543796
Ni 3.01220049654832 3.0302395760675904 0.6879991369944847 1.3631590440147814 0.2726690897987949 -2.1519207862824876
P 2.4276151765646956 8.118609673634117 2.918022166998255 1.3197446815848883 0.2726130397498789 0.7006382098558965
Ni 4.057033662718657 4.67221467639673 12.291201419126685 -0.48596832227970493 -1.1237592577920776 -0.9875524967197961
P 0.4828953613458132 5.349247951893974 4.010136710013837 -1.409096172866528 -0.2995584579904712 2.0247717645370997
Ni 0.8150080327841884 8.890846099452878 12.114969478799413 0.36601478984149227 0.545914363816034 0.28357699496055033
P 1.4608396578910574 4.7850938907053955 12.677858570479907 0.9618988007074337 -0.4271137140353419 -0.39537755927432555
P 8.124166603702747 1.1623664257626118 0.6249461314921428 -0.4284445170316234 -1.1627585218734102 -2.251549234010103
P 2.045387745512413 2.8493368358936886 2.468874218812951 -1.4724489260915608 -0.3212413422805436 2.3277217647076234
Ni 4.829121159088341 8.73911491511664 7.703094649095346 0.5145685025149009 0.7128540351957982 -0.15263611027289842
Ni 5.695620618081329 2.341524646908487 10.622615418674922 -1.6418763968901853 -2.070347910505002 0.3555959085010134
Ni 2.4270659992212296 0.8928804492785997 13.287788890269013 1.971508277227269 -0.9646460244352677 -1.1523566098137958
Ni 8.969285378662832 3.5497241106240853 12.25846393379272 -1.1569005204307365 -0.4400921285728808 0.40647829717317735
Ni 4.796784852457823 2.359312407982442 8.273081159833344 -1.4577725550263088 0.4180490327299123 0.9942461066898877
Ni 8.903868118156417 0.8317020932164958 2.472893452319876 1.696069080882505 -0.1297077836114992 2.370704696027053
Ni 0.8263555259946852 3.921898803863771 5.6656439124096005 0.29234702784369654 0.909249292832518 1.0123237901272049
Ni 2.467751663090544 6.095933669105719 11.269056723713945 0.1020116032478114 0.8416161670645763 -0.7664219411199252
Ni 5.469908729916835 4.847244011422717 6.995226461976076 1.170561562857597 -1.8591736947868949 -0.5556375046410689
Ni 8.419614706396846 7.9661710744147705 1.9682990702437617 -0.28847237537963866 0.37795653558440073 0.4023889575951522
Ni 8.505807625049295 5.845322638673912 0.9440917019613254 -0.7205766006510365 0.05019256169399097 0.504415216130983
Ni 3.9452993435497596 1.4688353076882985 6.089779159622673 1.8801101878292459 -0.31727978652963423 2.653280246306282
Ni 3.139981963855103 8.994743006364176 5.0181815098353555 -1.0596174330068462 1.7483403794823953 -1.3697022444499378
Ni 3.9750666171837263 6.349234737711449 7.632539322595825 -0.701540924175824 0.25336833258765395 1.267407819854385
Ni 2.6501157734834995 7.984321851020848 7.114430523825166 -0.8133000937287026 0.6227746646091984 -0.5887036910674184
Ni 6.767316933628661 0.9974829094548937 8.710431103224698 -1.2557764062630437 -1.082851206723806 0.7275854278687018
Ni 3.4883279452427085 7.792128396988909 9.462166459569158 -0.439112795378747 0.321704140849575 0.9874853909272865
Ni 6.453261957890691 2.2836655559426533 6.794963824231415 1.1226469985645051 1.1850983230211913 -2.017407610862545
Ni 8.834197060260783 3.621294018995432 3.049010271505445 1.3112831810810965 -0.35436846385181553 0.7208002866260683
Ni 5.284109934104576 0.16050219807772803 12.345177174707874 0.023775762263359056 -0.4589264876705645 -0.6110854011967282
Ni 6.862864483301164 9.265580517598549 6.466423597952739 1.0592680200872273 -0.629176197260168 0.28158696111371506
Ni 0.6889727632678159 4.676477781876517 10.62821516596016 0.6522341075208961 -1.141955211974814 -2.837067842481321
Ni 7.68816633344364 4.326456344186812 5.286369938494296 -0.6133885954086081 0.3805980869723058 -0.531671994964407
Ni 7.774703651447075 5.455602194715019 9.767247505191273 0.17616324686056112 0.7996755609667324 -0.28691197287105424
Ni 1.0541691810092577 6.542917486234144 2.4915571047162066 -1.2107353068630051 1.2349761816882407 -1.7005733965107614
P 4.448950816051415 4.75461920218832 2.426492620842289 1.7699394458094095 -2.1928676610084947 0.051857865211555845
Ni 3.4888119659522037 6.923311223444684 4.931032650281653 0.3907009797342626 -1.795378968928437 0.6796266406012359
P 2.4727221834534387 2.752365148364401 6.96620848963277 -0.1662099923025912 -0.6077031149880566 0.4024195537227715
Ni 3.1355978531979427 4.884271595699115 6.348308582700012 -0.15572709049339634 -1.7192375485791682 -2.2561108852388565
P 6.377866424296216 7.1602300526521105 6.272536071437566 0.10118113692671607 -0.4821795446612341 -0.5381077232874216
P 5.639297362059087 4.155755271274582 9.472847493495042 -1.3210739419192732 0.9558955319361471 -3.7990625453366698
P 8.505816933139862 3.8969438130530567 7.228035769198074 -0.10747648301712459 -1.5484196251909204 1.1782599599431194
Ni 8.720815209061488 1.3985778400869293 7.672905718958684 0.48973524552130493 0.7256429594303503 0.061968728393312626
