# total energy = -381161.01544563804 ev
CRYSTAL
PRIMVEC
9.32802973447831 0.00000000000000 0.00000000000000

0.00000000000000 9.32802973447831 0.00000000000000

0.00000000000000 0.00000000000000 13.65251440811295

PRIMCOORD
 96 1
Ni 4.181028009527786 5.883747846579922 6.341278362349627 0.3435893709584405 -1.048510267350091 0.424188827079063
Ni 6.505433024351202 5.6647536995284975 7.360957908020111 -2.2756420132932487 1.7963094511625062 -0.027625217916436295
Ni 5.0991766188102625 7.802103740086794 9.089352213289837 1.496992933979512 1.3931571330387684 -1.1809981848098885
Ni 3.3529321964132373 4.4135291432014565 9.327779444063724 -1.5192028944176483 0.3342572949242372 1.1638036753084733
Ni 0.7018334722848566 2.978682327441468 3.3654401510829675 -1.5812803804746831 1.4679919187614718 0.6221362596942511
Ni 4.963509758703949 6.183149607363226 10.329410185579937 -0.9644094829444292 -3.6001226669012256 1.5356150172270844
Ni 6.263305364300351 2.000927610067727 1.5044115280763282 -1.4391567396973344 1.0250512649962025 -0.9106803688520897
Ni 5.565913899632561 3.9221845207289614 9.296229250104869 1.8990077960646974 -0.15620274457823421 -0.6273933943281323
Ni 2.1772460224528714 4.3397071182508675 1.8195384808815793 -1.401913796185476 -1.6489484732456183 -0.07627177527954607
Ni 5.405266576698641 0.5467922950415233 10.665616619302973 -2.113324671176844 1.156273685480015 0.8950547464996907
Ni 0.9819430025901695 5.772091334239949 6.681758899159894 2.4765595842803543 0.9080773840116038 1.253568085757815
Ni 3.811843260539359 3.70330231003076 5.407733840484266 -0.626372923483418 -0.6936836329149344 -0.8778913473465269
Ni 5.428250841227104 5.265402103346464 12.732935546073167 -0.6074056383522959 0.3115202583380377 -0.5858981032978232
Ni 6.036522312670489 9.295502596611863 2.2620853829694374 0.3305608199092565 -1.5155344444271255 -0.046227920619288126
Ni 6.634887416853637 0.20287624499025209 13.520890050118993 0.7616299190479205 -0.5999427543163474 -0.1318482269932697
Ni 0.12126718106711422 2.505116929072565 7.27156087232148 2.308985621750701 1.232517178624787 -1.4495509384474647
Ni 7.6192090669497965 4.626516039296579 2.6860368583781193 0.24542053849548698 -0.4042316672308458 1.1608715892633428
Ni 3.6733500075141636 1.8027256406274799 9.334920050596411 -1.0667041646502984 -0.3235309096456686 -0.3987030241031327
Ni 1.3164181540500215 9.532406560178973 7.6939284483320565 0.3366610192697234 -0.3001811791761346 -1.9926214050568005
Ni 4.133697588173314 4.412894837199859 3.1022059588289697 -0.5467692556171615 -0.7112766634063492 -0.047904536990762664
Ni 3.2256512347692157 9.47765102739404 4.816278940506753 -0.7985203643163666 -2.063763315308949 1.6927898959106007
Ni 8.172305244283663 2.7664230176422953 5.194836493471721 0.8370113213027134 1.4559686690483506 0.4884687201040555
Ni 8.08796120213011 7.426268106111032 13.393648266198598 0.46175624380987573 -0.13207319851988222 -1.0617097967595006
Ni 3.454113331697422 7.034136404711884 4.295012798014798 0.014557843209516865 0.8472733653503538 -0.45415040643815985
P 5.782827896119925 2.124794512938446 12.43944682314887 -2.1521670979653384 0.0486684117399807 0.09904326464810685
Ni 5.219181717494788 8.022991477113576 6.710701908891596 -0.9117496906568685 -0.08420851362811949 -0.9510436031604846
P 0.04411318400225302 2.8323068895434846 13.195618865302905 3.2025141614138524 0.7769974026429264 0.9890079982193999
Ni 8.903902592890525 5.859457657930525 4.930973592033788 -1.1818253086968742 -0.0493510396293021 -0.9904424166730813
P 1.9953774325537517 0.6391304584210886 10.305941796323786 0.7629977459297246 -0.387026616206469 -0.06629100991775035
P 0.8695206590335618 3.8726340283689 5.649874559776326 -0.2629492914078697 -0.5083081234274859 -1.107696290791944
P 7.451621690116049 8.457565712443122 9.199391245325737 -0.011025404576226173 -0.39874750418782295 2.3878647527461068
Ni 0.7109049809106397 8.296955701626944 11.45570164527181 -0.20111965969558268 -0.1341388227996593 -0.07371918406102143
Ni 7.327232417596955 8.404125431808561 7.235067755564886 1.04749622426328 -0.2983047880890282 -1.4990806697464765
Ni 2.2517303374933633 2.7458547127375637 12.452730869867613 -0.8918259551497478 0.6519831678523546 0.42169022902692543
Ni 2.208177768060169 5.144482857777285 4.333458271332192 -1.506269988406064 -0.9901909627839075 -0.13726991222947327
Ni 0.5529814425718134 7.367212351756447 8.748735487249816 -0.928802532374097 0.9062346743759103 -0.3438266837802272
Ni 3.4201499765236676 8.331674627184954 10.705004223593328 -2.6899230943402963 0.36659354516309767 -0.820009130317762
Ni 3.3765414389138617 8.861021641576668 7.844679664838117 0.44440952500131203 0.41837633416234393 0.78724993360887
Ni 7.798512448754222 1.852798502635916 12.454369804639386 -1.3573084987712754 -0.08944147989228467 -0.6393860479136344
Ni 7.657276755075062 4.20758490932995 13.414632601216143 0.8049231825189169 -2.2055182598929695 -1.1949772726978
Ni 5.2519510849008295 7.993682808628011 11.739851145125531 1.7341692301883358 -0.6776664315510716 2.2542710038166405
Ni 5.758183242351988 7.459158737899732 0.592979099987233 -0.15580139537475748 -0.4444118389941572 0.5261011857448488
Ni 7.54290578616943 9.064512603706703 11.209396893639852 1.033262082941769 -0.3477697275883752 1.0829712772414382
Ni 0.9797695717317557 6.495834482062327 13.025003610114473 1.1774001830459853 0.8192100314552343 1.209185445877382
Ni 7.047363550451071 3.8860290786379226 11.170159470623407 0.15342595316404545 0.32393868660704855 -0.45136590171448715
Ni 1.2686586433415281 1.6451565674071933 1.5076744727727796 1.0695179799500096 0.48437680942286904 -1.0791436759652318
Ni 1.4225897850820666 6.203661944091345 10.97196589640965 1.6901894821732761 -0.982195860393573 -2.3767105359015006
Ni 6.110605522445265 3.5512927423538834 6.044159170369132 -0.504349138779738 0.844076969900243 -0.8987928733858843
Ni 4.377364373080982 1.7423173220047843 6.876074811537416 -1.3024108182921312 0.72772169633625 -1.4766470233333084
Ni 5.711673687587818 4.215093973025328 1.3196848299582469 -1.5793973045193574 0.011329308969890166 0.2163992115624725
Ni 7.3260011177115025 1.4067507911010075 3.628387972833303 -0.07877165888326434 -0.7139089588228738 -0.41991822472816714
Ni 1.0297398254164039 8.250530099127692 4.588897029387149 0.12463885372902404 0.19542132375922475 0.3375326232413993
Ni 4.276211221885103 3.1187706735000913 11.12896969104616 1.1007396569684529 0.0500938313325976 1.4106846003995706
Ni 2.701891710009218 6.658589939648614 8.88927437713016 1.010060448014325 0.05260219957674811 -0.5395465126164772
Ni 1.273779731501482 8.282273383295855 1.0838974315145369 1.1454123172854789 -1.0825943535179936 -0.4758047514831419
Ni 0.16257449381524325 1.1631493023993862 11.206270138173156 0.8463454542194456 1.4559740683649893 -0.4783473153993375
P 7.060907849191058 5.761093587535787 0.8389424457418603 -0.39956382944153124 2.4478935838042295 1.2059934213026455
Ni -0.07642734357185504 5.541129325423094 1.0234825832712364 -0.14927619266173 -0.37017894852151084 0.9798530711930092
P 8.365768574770803 3.49113628052594 9.354156312897787 0.012791752448029582 0.595881182652464 0.3665794040957106
Ni 7.347054480146867 2.5305544653424983 7.67699994051296 -2.5453607622144676 -1.2985629053009506 0.6129160266475638
P 9.271277704168511 0.42975350971740905 3.2141292528107916 0.36524063067962903 0.4356184090722433 0.06894773081430705
P 4.2735620615254915 8.089630919399019 2.3329550866037687 -0.16389497101616934 -0.024265300305267887 -0.15154981918725513
P 4.394042889711214 3.8881278852608547 7.539014132289043 1.1587062061809077 0.1211344401201914 -0.96387880725194
Ni 7.082838046393337 6.804620240457494 11.339996768156936 0.9281682412242079 -1.6591272135508328 -0.7192208579540904
Ni 5.419939567000294 0.6545879359982457 8.367230276983307 2.830580949205396 -0.667064230555193 -0.10513549358877378
Ni 8.684012955013314 0.4586638713460874 5.806960441071867 0.21383350771782525 -0.8397955689160698 0.0718492207318182
Ni 0.8116178491171748 6.599991258736357 2.8800524082078245 -0.5063697687541925 -0.20863859378044713 0.19377298952252436
Ni 9.005214320586802 1.0174641386796115 8.687163030553599 -2.7631218871214736 -2.426097056754428 2.802168202390658
Ni 3.6759338716677283 7.509753969556542 13.228166225608389 -2.2088444960527247 -0.9044629271874682 0.30023260123936035
Ni 2.707264654963924 0.23733678413290574 2.4121668469620463 1.1761956212149227 -2.2358323374954785 -0.23061792626501573
Ni 3.6738910332214085 2.442218026590657 1.3936486409562518 0.20657399794193457 -0.0006767143520504474 0.08121292133490529
Ni 2.902733511779642 6.402563515739236 1.9010440036779859 0.7746916373278853 1.3979324429402247 -0.3502449286017452
Ni 1.277622879628806 2.587623349427374 9.448877787798061 0.9191624381811718 -1.5278014347199367 0.18311242448488466
Ni 8.448722740538503 8.262441992716509 1.8449051241278052 -0.6515861895242521 0.6736125731966722 0.04479633037908414
Ni 2.314340071062779 0.26309240620658164 12.83188821512527 -0.3831434791019789 -0.12205463794161561 -0.3447548520214514
Ni 4.397596868926045 0.3532394154718062 0.3192144953037788 -0.4161492446040381 0.492762462383403 0.4811151079524617
Ni 9.2632835829425 0.4110573403203323 13.617959390028117 -0.6477087088467167 -0.044015229238685484 -0.8405851546969009
Ni 8.236948488269965 5.856258143834233 9.275831648138801 -0.9981580401497844 -0.799566546192694 0.6605431416072236
Ni 8.460196216743864 2.2438015124733988 1.6128125581433983 -0.17586319912163906 0.7351107897114695 -0.3819234906519487
Ni 6.432086728901812 1.0115874801354021 5.79680314981982 -0.35113324474396945 -0.530004634564313 1.2093669657605688
Ni 1.2533233629499732 1.6396437020109589 5.400566182666218 0.8704248637661525 0.05020156055505548 0.2692852609282265
Ni 2.640578572531303 1.9822995352855277 3.669850130870057 0.9608906711578936 2.7161568312258444 -0.6411336267323604
Ni 1.031045749537339 4.686569892800735 8.816302135661124 -1.031864174152978 2.151464415471359 -0.4389886110960568
Ni 0.4943771648418955 4.12207486349699 11.031463799359466 -1.1013214976138517 -0.7043987053395934 1.7191023085528843
Ni 5.433521177858021 6.314693478459157 3.001313992457278 1.086206239238968 0.30285821178766553 -1.1832414723181106
Ni 7.800116869817085 7.890496147015247 3.998875847533834 -0.03640759209475665 0.14789165360937756 1.0853055818015696
Ni 5.50936738519606 8.472854352687502 4.407769085025188 -0.16487456132061928 -0.14010789589890063 -0.03755661809753532
Ni 8.276135539927461 4.556844987444677 7.1090003705503895 1.9460582125852808 -0.2260274786808559 -0.33676540605807165
P 3.1714740398092687 4.872971905005388 11.876513305972587 -0.2149437100628685 0.4741031954110029 -0.07386419427931795
Ni 7.096886058722827 1.631808157285347 9.895273434830903 0.8943790605889049 1.9221544093844896 -0.005290044754345728
P 5.822947750720946 3.2151758577134273 3.6962820350777883 1.9180272745899933 1.5525004801285132 -0.9250824032100327
Ni 2.346372524143436 3.387240688676096 7.344915562997364 -0.29537630158832356 -0.4938623803158011 -0.5346627021616146
P 2.809359937132763 7.5242683833577955 6.328158488948945 -0.5351494119900461 0.34425657222879424 -0.3588874347680916
P 6.040635973651436 6.068573421810018 4.989037776859405 0.7632635979966017 0.862875590663985 1.5356677248418908
P 9.346405653240037 7.696995504410367 6.5322231248892475 -0.40911727745792126 0.782930994518542 -0.13721334795992499
Ni 4.774561194463472 1.6001861374998405 4.3100169333614025 0.9201970500932732 -0.45500966911466156 -0.18022764673792188
