# total energy = -381172.9457926674 ev
CRYSTAL
PRIMVEC
9.20970405277706 0.00000000000000 0.00000000000000

0.00000000000000 9.20970405277706 0.00000000000000

0.00000000000000 0.00000000000000 13.47933281239016

PRIMCOORD
 96 1
Ni 3.3907642859689258 4.251171656016053 0.28385228155744247 0.7099576874846095 0.5217616778292304 -0.16478534404092265
Ni 4.42971097434682 4.3497431160436095 11.257736577980564 -0.42363038347243176 -0.8379076078647376 1.7627922932416673
Ni 8.21597678133073 4.10233363251747 5.380599079612178 -1.0093441386735909 1.0430155627841071 0.46259210944760976
Ni 9.070084713962288 3.86529427549708 3.3035686521046923 0.5009077171983567 1.6202842725417064 -1.2667547596514184
Ni 6.772991176493067 7.537267658025979 7.282991419328716 0.9924213947763232 -1.3929470739104914 1.6362292259067368
Ni 2.771715624035614 0.7546560249184328 8.803958349354769 0.6391019410143123 -0.7412513553915685 -1.3233259711782435
Ni 1.6317384847091732 7.86438712814826 5.089122084258902 0.3129521056885578 -1.60196079164217 0.4199750461080316
Ni 8.697321951688595 1.7853931833076733 0.08615033248021751 -1.6819331557017552 -0.04394683789459528 0.293339730774269
Ni 7.435795141293884 -0.16340409106651566 10.194957939017478 -0.17519394096875635 0.7254676101947506 1.093320481686246
Ni 8.194868140166276 1.0165210595666174 6.351353436996143 -1.0808035801661582 1.3668035827459042 -0.5865429359706736
Ni 0.7575377412449414 9.04403046184438 9.585881544384721 0.2503678551984333 -0.5048286495193177 -0.16046871894343975
Ni 4.337199499435412 6.298958510971405 10.120929418710322 -0.03836445871081135 0.9661272369664844 0.2070583937775208
Ni 3.3502047503283245 2.6269390799233854 5.144022970694132 1.324199117811816 0.08498524389314396 -0.22631749911744894
Ni 7.437756808208382 2.25510649773591 4.04460812991944 0.3587210843935564 -1.128900435673385 1.823602996771137
Ni 2.7060780648824427 7.246572566527354 3.1378805544898407 0.9664085156523291 0.6615286454489445 -0.4639815335959687
Ni 1.1989192437996126 0.7595859793753842 7.1547619500769475 -1.2494064981809578 0.22870399707175454 -1.0914232646635331
Ni 5.7659929506803955 2.2145745912067802 5.841565017348444 -1.6201824568565195 -1.3706352977871685 -1.4649667587819029
Ni 6.739025788790401 6.231119832604314 5.467095696956176 -0.18242105484481486 -0.881976573159494 -1.1901975919209695
Ni 6.531521951933364 2.5062182821992702 10.676008398852977 -0.9065357505560968 0.1269291924250975 0.26458142769465404
Ni 1.4401858548751882 3.2937492658876146 1.6042834366396463 -0.6299413575609667 -0.1229684080051366 -1.5207280728129229
Ni 4.067318338578876 5.232640582828781 4.411758498682827 2.006270363298803 0.08458338046903496 0.05836275620960917
Ni 8.747542466640502 7.798832456329503 6.011755739162815 -0.40034441636129764 -0.7392911463414042 0.47423123634843495
Ni 1.905469301764113 6.515524696391192 9.916246514134555 -0.27683350558912967 1.196382894796075 0.44405162744126103
Ni 7.474310122685573 2.8252700517717853 1.9635613505743361 0.28250895870735215 -0.47772665109620305 -1.5656218480018198
P 9.439117546187287 4.664355808372989 0.3729626128466721 -0.1944345343659232 0.30393267579876687 0.1584105508628304
Ni 5.352799588619637 7.375158451317109 3.5925792887739196 -1.3064860168027694 0.5437872901707022 1.0749831168296389
P 3.4021382701914837 8.385766881028761 10.020185389550699 -0.3519315722755488 -1.2029986003403799 0.49196824861688176
Ni 0.5076029569302799 6.330474117456904 2.2023477884101266 -0.2810912524242191 -0.2960368179904579 0.43764752368713017
P 8.939702936926865 6.1501941651034135 4.358056715685474 0.2181845855976694 -0.6211150175185883 0.7794332657779286
P 3.0277085515256585 9.322798986891012 1.4114073723661622 -0.201806144239646 -1.4521269267047572 0.5108213767676428
P 4.3958192642747465 2.3903141595750723 7.725692672441356 1.0160302924445146 -0.3779117983893943 -0.3566060949330826
Ni 2.9250387732964525 4.668177835459921 8.707230672032765 0.8244514823598318 0.38555980185295535 -0.43117194326511554
Ni 0.18103146418552363 4.620609715209306 9.577052201328716 -0.1849376506190815 0.3699069258070468 -0.36978608395846635
Ni 7.863512206284986 5.27434212174355 7.728846996001053 -1.034382055478825 0.22198210496688864 0.34824306768036795
Ni 6.489921719760657 1.276787289630967 8.576225398048463 -3.117284919830702 -0.4054290299730566 -1.5262402608804038
Ni 3.5243142011197803 0.3245536466369325 6.481226838380482 -0.025123791650821247 1.5014507126405496 -0.0019630372636417802
Ni 2.349441494004457 2.9478972581874543 7.360093217801919 0.2825477823650876 -0.5137622045635217 -1.3099958297282408
Ni 1.172036118337552 8.305246440496113 12.118458919898469 -0.8412942649487835 -0.5766094789070456 -0.15954517868790588
Ni -0.26253826399771407 9.36147974295153 4.268391960226044 -0.07339548217301553 -0.25440602982354893 -0.39933345859828
Ni 6.048169066141882 3.6024032798429086 0.44634277000462397 -0.9692930362889758 0.692271068838124 -1.24531535883072
Ni 2.7237146477052745 1.7386447266973888 2.9032725592789688 -0.8445176569820876 0.5026550389067665 0.12088658577544341
Ni 2.186659978916439 7.829381043913489 7.60638740619498 0.2804687883488718 -1.454243715937444 0.2344655821458801
Ni 4.268504318612695 1.9365152133545918 1.005163652810943 -2.1758847532972525 0.7046339612788509 -0.8744193296375263
Ni 5.148224437578611 4.477223836374492 6.591663159844412 -0.5659867090858769 -0.9944613080244874 -1.004369825387451
Ni 1.3438707722844958 3.289006268418289 12.573090423344633 0.028509677403918642 -0.7113339990068459 -0.9284906575606331
Ni 5.107646482530361 0.536079361153881 10.636797163852197 0.04234426929416578 -0.41736846172311987 -0.015833881708463053
Ni 8.530469747510399 7.116384193272236 10.642202339026465 0.6106467709974129 -1.5958989017188063 1.5986579525211821
Ni 3.4819771926411596 7.330868985627814 12.02895625522634 -0.6501893091767255 -1.446722210749418 0.20390339308830688
Ni 0.2702808620024946 1.4729355616730946 2.5171980910981633 0.09774202933818005 0.563665517151868 -0.23039861116535804
Ni 1.5384626043803786 5.718968202955393 12.216278868093992 0.7961613771658869 -0.517647912771173 -0.27971442668135055
Ni 5.572128685186604 4.4044671761654195 9.180988888380472 0.12697264406852327 -1.3385106493384817 -0.8234114711310917
Ni 1.3181296500966029 2.418164303938646 9.538986653483635 0.9747620298233471 1.2125381643996989 0.6542267124708926
Ni 3.9934933527262286 7.356674575742474 5.554522494386391 0.11313830928859224 -0.8385519263169559 1.1561394738949962
Ni 0.04470574430213612 8.643822782175366 1.2676650779933614 -0.15089238810891434 -0.39220738907645997 -0.0781795338252202
Ni 8.126992622983888 3.6379435268994667 11.83528539351285 1.1459774457603298 0.14770807684366175 0.20084300899542828
Ni 7.615421204675876 5.197680547113132 1.6237877473979716 1.3757823892057468 -0.10847432815401963 -1.362604714173208
P 8.030410458982303 8.790662299944156 12.814532018792862 -0.0016745594889455032 0.668715650115687 -0.3752463357420892
Ni 6.423906562750705 7.141480636192453 9.421231380390827 0.13304404707358375 -1.4329089590154098 1.4680713658491555
P 2.1857850570531654 4.284787074973409 10.597748019638722 -0.40916201465292756 -0.37342393782136973 1.7453632991319428
Ni 2.178380455178723 7.09464008254393 0.6531273289930117 0.42677278575615535 0.7416943564662581 0.3371708690266064
P 1.843248542729621 0.6608395349751733 4.848394240857026 0.07998701934760419 2.4752552636466336 0.1014819559965865
P 8.15780829197877 9.041184663362785 8.048819735955961 0.8465889376888195 -0.33606632310851803 0.8426656913750132
P 7.291451453261381 5.029935001664013 10.176168301275888 0.9369071637591025 0.4445599345362473 0.6451792575566437
Ni 0.003924254799377899 3.260097008114963 7.292319007361595 1.0290287615867117 -0.8069828932614231 1.13963633403365
Ni 1.5670955735689867 1.0094480070298366 0.11554310223430005 1.5044298498735316 0.0442348014486593 0.3010000755330042
Ni 1.9152684266327782 4.902270087256653 4.841008058390232 -0.28261154572348746 0.3634848243307869 -2.189965656870351
Ni 5.942414037131658 7.849255584765537 12.00544848621575 0.6292597581129098 0.017495071460969867 0.27984529583226
Ni 2.5690284622784936 4.990149081144622 2.5942998895713663 -0.2597189573960301 0.3914998214864741 -0.7509408147651906
Ni 6.685250328162455 5.431026812900124 12.328938412061019 -0.22664094389513872 0.5589033198765343 -0.08846266091878313
Ni 5.092229438329096 8.46404015382837 1.3689202457152114 -1.7041305177344008 0.126344266455905 0.4873708590541864
Ni 3.8731962013780143 0.12861627681237311 4.098080591291578 0.1251561596850748 -0.9693344310498725 -0.15203575768473818
Ni 5.8903423717111405 8.985456745524166 6.09993681133621 -0.9485863998692439 1.331598495599681 -0.5195027065917247
Ni 9.229136299001613 1.247076785094959 11.244998636621682 0.22873562164063835 -0.08705549615861137 3.040671187830705
Ni 6.976295388406389 3.1853510518799215 7.266627617574351 0.3830213517018178 0.4016281681697277 1.4799668317351609
Ni 8.447950801247957 1.789003387206655 9.323789030052085 -0.16069343335973613 1.6116728767236117 -1.9367865574753678
Ni 6.377066009102181 4.58427743362389 3.4518411997884857 0.14154308568353044 -1.4034446310077053 2.2538722257163246
Ni 4.725222740945362 6.137908420202286 7.959599809191228 -0.5981748637826472 2.036330415908977 -1.9407249732978253
Ni 5.4420047798582525 5.8244653602585466 1.9095095988316728 -1.9033305918097674 0.16429066379269122 -0.9084064852162483
Ni 4.795271748230197 8.597359826383624 8.270028533073393 -0.18843486513906257 -0.27361371310025134 0.6135294918618466
Ni 5.279831105222614 1.7968408451608222 2.9414734897702615 0.3785980258231415 1.0733250124009257 0.9076405535845014
Ni 9.183198296327832 7.114883011548935 8.493502917331513 -0.2547734404652967 -0.5212857666340764 -1.4937821403516982
Ni 7.516472146791538 7.323906449536921 3.224269418299098 1.462587459916449 -0.002998163396375482 0.11049290124594519
Ni 3.716014186214948 2.3321732993345825 9.945334442692065 1.658663386540537 2.911449085606373 0.6066520480157229
Ni 7.030733947709658 7.453054126259935 0.8878983359615674 0.4533659628636515 -0.17550787266474935 -0.6440968231257423
Ni 4.016232111467519 9.334403213709168 12.753281962541413 0.9405157070459673 1.1960941599110626 2.364452030249122
Ni 0.7110250530525497 5.47426637235349 6.525763124132259 -1.3629939791918269 1.3177659605919627 1.9831815998001392
Ni 8.85735897503708 6.667899246158165 -0.4260602392731761 -0.5210124583680317 -0.17605371786589036 0.8402154300623079
Ni 1.089415865333048 2.867763625215413 4.958777146038776 -1.4135704065877976 -2.6780194009241747 0.7014110834661791
P 4.545697984305434 2.3986121027204357 12.376143669980971 0.7874556218617729 -0.2637810432805457 -0.8626467624826304
Ni 6.207625878149461 1.1002188479185215 13.673704367557201 1.6428364468106096 -0.2756135171390996 -1.4235151765053355
P 4.199689411640267 3.6896099653517314 2.7341879228938515 0.6613360698221643 -0.07420846499261412 -0.11082637332596398
Ni 2.5087877895661475 0.8009605738044037 11.339852139215516 -0.8580812545991352 0.8938872085541509 -1.671341753339154
P 4.863165684820232 6.117416829194036 13.394803222775504 -0.4270270678588065 0.38242665554061234 -1.3412514453084126
P 6.109929339985178 9.490507693524833 4.159384984795588 1.0208683372631062 -0.23335383713894006 -0.7732240516434231
P 2.877424604526718 5.574992903075846 6.617853715578913 1.5680363709805833 1.0070779683472333 0.3351687509949131
Ni 7.174221133286537 0.4227263264889123 2.266792690918099 0.8482087326804296 -0.49258865580970007 0.10944311982519216
