# total energy = -340891.0775494531 ev
CRYSTAL
PRIMVEC
9.07743405661441 0.00000000000000 0.00000000000000

0.00000000000000 9.07743405661441 0.00000000000000

0.00000000000000 0.00000000000000 13.28574230295030

PRIMCOORD
 96 1
Ni 6.386991395914172 2.174127107331892 11.595436859681042 0.36473232358464286 -0.8505885457665158 -0.5086341393083369
Ni 4.418894804993404 0.20880548794334794 6.090702139106559 0.5072493431456684 1.156837528403285 -1.8178540101025014
Ni 2.6980675125278952 1.7603504395093483 4.783664222871004 -0.12270898369616286 -0.7930948224254212 -1.4158612595045035
Ni 3.2924669593762377 4.389238828559728 4.540508817442908 0.24798701367108258 -1.813467965219664 0.8195339904535563
Ni 5.2433255033892765 4.621848071324633 2.724653500828768 -0.8620451243428895 0.3981389240695466 0.4369119310726862
Ni 7.059039212035138 6.406480646420172 2.630603116307288 1.0447142906427684 -0.9426898318791506 0.6066379069483359
Ni 5.299396812367181 4.579964791476154 11.906137450491135 -0.956894662624623 0.36028688621877947 -0.4033906593867891
Ni 5.620220557422403 8.086504873667016 12.298318903151232 0.05962156831737473 0.05587264279790377 0.8627575770288819
Ni 1.9420352782972345 6.280594793594271 0.31920069988033906 0.5827171344666803 1.3277989193479325 0.8070155462715713
Ni 2.6996288311525025 1.6909353027513687 0.06548279240809658 0.481049801932165 0.7648813361056827 2.0499780885993983
Ni 0.6944863248893793 8.776498776537105 4.510854656496004 0.14752964228426851 0.8313937180056198 0.07272031048286187
Ni 8.561463445732896 2.275086326767259 1.5234493860135456 0.9358231866663045 -0.07896526295130916 0.21494396717318465
Ni 6.848488133559744 0.8156128791403869 4.887491911407394 -1.1222767597092802 -1.441981353630323 1.441393342337337
Ni 0.8211855157894943 7.412423712360515 2.438119762194792 -0.1349165815059483 -0.19402572896327874 0.05650564839621236
Ni 7.49386644898829 4.156938218546198 3.6719136800685335 0.8696895282620248 -0.36119628540692633 1.0189081282129422
Ni 7.52144369306711 3.8881100146639476 12.683459898106413 1.6107434229308064 -0.0859262676501746 1.4842749721922115
Ni 8.229029662765623 9.094227116644703 6.685996620933891 -0.8038780290838543 -0.3374729736480575 -0.1851911613907843
Ni 6.57869772168791 0.7381932612011352 0.4069449910965002 0.4951543596543473 0.1757261593231425 0.4989400519490247
Ni 1.8022791065271473 6.634415010745119 9.033214960414625 0.8574580191928394 -0.32019207508042274 0.33737784283108996
Ni -0.23685021986616453 4.81320945461154 1.5105621531568298 0.3523267508314384 -0.010423766436485273 -0.16400732822431754
Ni 6.39409902662968 2.026600652174224 7.047687880988212 -0.11832293881332524 -0.816498288951026 -0.3777855572241752
Ni 3.609832202129277 4.627648551563726 0.7876543828392782 0.8420918211494143 0.2053781778616205 -1.6298336067930386
Ni 5.901720858978793 5.684742957327689 4.905587775815271 0.5240216775080007 0.2785499740596042 0.21778220795292813
Ni 5.523455112432202 2.763915217777324 9.332091285873476 -0.12989727391448594 -0.5478414056354177 -0.2621463358906001
P 0.292724548529221 5.5175820127221975 12.627566506832242 -1.4385623006464452 -0.31461689498549045 -0.8144666032329779
P 4.249891141313521 6.389905252184515 12.733440248961577 -0.8596231451649583 -1.167178762428293 -0.21009152417688978
P 2.420298036289608 8.359218219243058 1.2357655365090017 -0.35081519928291843 -0.028215800312583663 1.2335183661957918
P 6.270400835365003 7.974816127404406 5.94404076339613 0.8141683552662687 -0.7837838294371404 0.22011445563053061
P 4.627013131193247 1.2515875037339472 12.613922215991268 0.7043668236603934 -1.2414916142092554 -0.2585316219561483
P 3.924192814273333 5.964999650444712 8.32921730032255 -0.9713933704614302 1.1132933252637471 1.013627339429977
P 4.53311615530407 1.092541785002868 3.943394310125844 1.4538603644560961 0.16161028874705072 -0.9130882069626338
P 0.20234144728879616 5.593650908502486 3.6109587116717985 0.027149049610966147 0.7303825309978647 0.1296671601815509
Ni 1.7716881544054797 1.0452120448359912 2.328950911572827 -0.4986042658761607 0.623315624714333 0.8207786614939349
Ni 1.8988085382368842 6.287883972987061 5.04007903594424 -0.3619496186331831 1.6383575851036496 -1.443768784548049
Ni 5.802241261263258 5.227004277301812 9.163893698320717 -0.32165349011729766 1.5400882225070895 1.3456197495794373
Ni 8.819516735618583 2.289292510764413 10.3026813778871 0.4370934509558731 1.0792305792520833 0.46755253877667863
Ni 2.448220222855261 5.070681788729931 6.931384167349145 -0.02777125657599733 0.32831187597407974 0.8271048608222787
Ni 0.7127455831068079 -0.04339921130376635 8.577328076897002 -0.40874935259554124 -1.2198480677975507 1.3123170216622495
Ni 1.4337171367811692 1.1356959055923064 11.618700507187691 -1.0644909590490634 -0.754002741519966 -1.524275166734233
Ni 4.156974528281655 6.878307503802972 1.7203706975421493 0.10362239937835702 0.5009290573545954 0.07583880150718553
Ni 5.759758870779755 8.059317959244348 8.156449224819267 0.08717710933814019 0.10199154864315338 0.1284255744649659
Ni 5.19613192473036 3.0577971391242054 5.017333709911225 0.7524814197794331 -0.48246210889865937 -0.9298564275599084
Ni 0.4263234969093595 7.174958042478372 6.882425935547067 0.6034237708864124 -0.21673448341470417 -0.2532050675369123
Ni 5.1449987397744685 4.74867797727239 7.056827949145869 -0.4590457868572482 -1.8372864077955005 -1.49988799613912
Ni 8.44978377690415 7.1786071708916985 9.408099362846878 -0.9677845700642493 -0.11095132893960247 -0.132292770729856
Ni 4.769247442408205 0.4449040962855736 10.380362425921634 -0.5473603522339413 0.2751774580429454 -0.5403983190938112
Ni 7.9522223945169195 7.220308902062897 4.702794272320047 0.3060006140713891 -0.17474631190837647 0.5499962471948915
Ni 7.078882482461834 6.1250257320331025 7.2081396942248235 1.0389730172836171 0.21475961907652047 -0.6444814601586707
Ni 2.4292846958149648 5.428532386516394 2.571601611678085 -1.5776841784829925 0.29547991704572335 1.101344123321671
Ni 2.6624113523101176 5.184766977532636 11.528437228074273 0.12234825792263444 -0.32864200561998885 -0.6308746680085134
Ni 1.0982696457710495 3.487459316208742 3.630661281873602 -0.8481323709165393 -0.5371317325273974 -0.29659731847961823
Ni 3.8528804938377776 2.614201101058433 2.4157329947994044 -1.112005202579943 -0.09528379760567461 1.3229924990982247
Ni 1.1576179083738574 3.3209973340107783 7.948474322074476 -1.489162639301816 0.24824926619353377 1.2265751021087392
Ni 3.731705829187291 2.686166996732196 6.8509390407030235 -0.34799804154909747 0.2969737279824305 0.8175403570622952
Ni 4.140952857511701 6.95655498371062 6.332649338087358 0.060905834346437045 -0.6675283146758052 -0.7851388008031382
Ni 0.902055466340451 7.319361860386825 11.48729103585555 0.35427924657211884 -0.14142378649684675 -0.336396195644111
P 0.0038633558525168294 5.4509445707266 8.09023297575496 0.42374454045279275 -0.2753078129732226 0.7828895997576453
P 8.4629823657424 1.636007750440327 8.042391268318154 2.1098200004576952 1.3998391730446342 -1.4327469795162489
P 1.8915193588440953 3.158946984670716 10.365469080180976 -0.7774370612835062 0.6084402502643973 0.9373586494742244
P 4.04916184627897 6.224950124007973 3.982374626624617 -0.3883270801854473 1.551044207297961 -0.698741507053816
P 6.952951242466614 4.198358549267613 10.589679881134911 1.0028798711054856 -1.4495046585905615 -0.8447354294198484
P 6.408577533642755 8.045275169056746 10.241340618551146 0.8419005310742146 -1.084378699111926 0.008747921395959129
P 2.2269940821558065 8.374513695303893 6.004106143274194 0.3651920368298808 -0.9404889675730899 -0.307961851562818
P 6.7758323529123174 3.500857608592001 1.7601080720251796 1.4816881853016417 1.2742554389038376 -0.8225151845690674
Ni 5.188879055073027 3.0026517284004277 0.6042076141383903 0.017641110120530906 -1.237310229138056 -1.6785099889528188
Ni 1.6196774469189976 1.1546223551987387 6.839539599256616 -0.4918553771881013 0.8065941424634366 -0.436203592151752
Ni 7.223413384444384 0.9455599758770395 9.451264376356953 -2.5416141506878422 -1.930203247830895 0.6517512543472066
Ni 2.4010629539318 1.439218061702751 9.203192632748115 1.3003444226814056 0.3129163673546159 0.18499215800610075
Ni 6.4276764544926035 1.7062580111137944 2.919581407880838 -1.222579607796101 0.7732304794013264 -2.183609632745336
Ni 4.246859278402946 6.9587789550073 10.600639974782302 -0.1428155246380508 0.06857903462097867 -1.5229446208482675
Ni 8.122987080366418 7.088186852172432 13.707298217166239 0.3550539199546143 0.3163292496909068 -0.00323367644594927
Ni 7.525791783887964 3.6753077325902823 8.2863309640321 1.470253461102139 1.0234042163110828 0.36882346293488094
Ni 2.9820913406984757 8.411667632109229 12.4679643414053 1.1224084001911379 -0.15638477868205325 -0.8761728219935233
Ni 9.292296723557104 4.777017725795787 10.411132203490421 0.28457715409029055 0.03814334383894076 -0.48926961873879615
Ni 8.522938816414095 2.3131298520912678 5.558740913348329 1.3722046991568173 0.7796114432270057 1.2178341226913156
Ni 3.9253547258079244 2.743136971662637 11.199854092552107 -0.9939314036629463 -0.003551721907000335 0.2902837175567646
Ni 1.1767259066575697 3.47482352827006 12.548569230887427 -0.8318976542252319 -0.02562258566411071 0.5010020766843759
Ni 3.338925265892171 8.536727438453505 8.02352563751861 -1.7512614097839323 -1.4061602301666558 1.5396436787705035
Ni 5.622408218983627 7.985282408649595 3.7140556667821363 -0.7288478395208932 0.3975809946835476 0.31304440829204794
Ni 3.1862337508658887 8.474320080638531 3.781427473177331 -0.7291219191178863 -0.8756056366361435 0.08079023197518989
Ni 3.485026563933191 3.912174291837402 9.11206608967423 -0.3915324744966225 0.8222477898402936 -0.552726501641861
Ni 7.464764196020318 6.0848580871849185 11.509385509880516 -0.38691194500547554 1.0974409316125229 -0.0669479267754589
Ni 0.48559641681109617 -0.06404311139726677 0.37412552896122153 0.03400515330085111 0.4316535108872243 -0.119164203767698
Ni 4.371873697577903 0.29219533413495 1.5265048502521668 0.07669806418368726 0.1271755041079487 0.10129709367929006
Ni 6.141818984681495 5.648669235152169 0.6143834174999303 -0.44111054253506615 -0.10336271795906715 -0.6078059591145081
Ni 8.057774795487468 8.663502879798079 11.502197997747004 -0.18771727024674767 1.1415507774475437 0.5919844187012192
Ni -0.07892647196067512 4.8137722555111075 5.819606392245082 0.48596600828685976 0.08505646345071158 -0.0011374560385528799
Ni 7.850954542330176 8.758062508359329 2.6208521368505835 0.33143448076346144 -0.030757592897830904 -0.6504700736419378
P 8.54166556247552 1.471052622263786 3.6261706753410836 1.2861452483628881 -0.2350278824072533 -0.685719126652219
P 1.942779627874082 3.5076202968206784 1.487990206110617 -0.5917432492246906 -1.5931192820911402 0.17132057405627915
P 4.626532027198455 1.1136195864350673 8.029928859366274 0.6073963823809152 1.164455192849543 1.838279624946705
P 8.369711732789838 1.636080369911239 12.715505055133091 0.7578254577001658 -0.2308174438703315 -1.7132103685484819
P 6.164666885717174 7.826109605844419 1.316468462276861 0.26894896063473034 0.6766981541005315 0.1497626453798453
P 1.788490484487737 3.309623309379191 5.8520636647691875 -0.8165134584596776 0.09421370446994741 -0.025281914495240334
P 7.000208363162579 3.9252094868661005 5.939431242479993 -0.9032107999479219 0.39927689432873176 0.26226512085665155
P 2.43095494364594 8.492701884213124 10.192661971712079 -0.5627324638146373 0.18054260687517937 0.18639880854564028
