# total energy = -340892.10508260096 ev
CRYSTAL
PRIMVEC
9.09386471969048 0.00000000000000 0.00000000000000

0.00000000000000 9.09386471969048 0.00000000000000

0.00000000000000 0.00000000000000 13.30979023920133

PRIMCOORD
 96 1
Ni 6.262280846865024 2.089842885707876 11.574420147537678 2.227548243109815 0.2905387709903642 -0.37347947364965356
Ni 4.883505438874504 0.6078057333416101 5.942887945559348 -0.638443481494707 -1.4903340339020978 0.5311510894639304
Ni 2.5588044004204593 1.8114705898156365 4.582054732851419 0.7856298815069438 -0.6283516444763437 2.7670271357131506
Ni 3.530301978747465 4.306472434684824 5.211355634459355 -0.3323209971334728 1.2350219473245116 -1.3240278823412746
Ni 5.17304500076118 4.3398923878847855 2.72833404709918 -0.7455103877782386 0.7201965916037983 0.04112608061634852
Ni 7.311230871832589 6.229706623092981 2.552831550009103 0.4530972825832971 -0.9326566160128646 -0.19830455884429074
Ni 5.088626653671321 4.67822962837581 11.427906163322572 -0.182941189014343 0.10689541370267398 0.6683266422073845
Ni 5.729198491332598 7.936033947902375 12.263481381786033 -0.6289244862606781 0.6119521200723977 0.7037847259046782
Ni 2.0284683920625612 6.362095107088905 0.5308225301255712 -1.3394059074592415 0.25244736343528135 -0.8672258972128806
Ni 2.654317262586223 1.3599965771448275 0.36380460890911726 0.435505794753779 0.9923573743076071 0.2005262490859579
Ni 0.4695771693606483 8.807853673977744 4.753085776611313 0.5372289202268942 1.6014134037791323 -0.13287409715462278
Ni 8.409915243480587 2.331394122958853 1.3641333762497696 0.8080977235921566 0.2982042579554219 0.020577567041035527
Ni 7.202459154764638 0.6325719647823642 4.840012211617511 -1.030678638485309 -0.08370509162913971 -1.03963893300239
Ni 0.8058782935193004 7.512750916162146 2.77471821398128 0.04345087209478323 -0.007488852177877425 -1.3021038285746735
Ni 7.560784710121925 3.581982412498587 3.86621479487846 0.37622078384021657 0.6007446813923525 0.3385839473240491
Ni 7.470719072981134 4.072978361661104 12.70627166294374 0.6135482609149239 -0.2993378573392329 -0.5794487481280537
Ni 7.860473025143608 8.904557832434445 6.9520359429988625 0.40630449059947443 -0.7871002954048831 0.6526390562687986
Ni 6.823563277192845 0.7608727565433541 0.5498741769157526 -0.4760037548678254 -1.0115833124167544 -1.2395488886605879
Ni 2.017892227281186 6.37136175533673 9.104588301707087 -1.1636301258450863 0.12564981149204169 0.5890333064926953
Ni -0.06470012000864123 4.6855320018233115 1.182090571583799 1.1521455222442547 1.1221173513132805 0.7017293860375463
Ni 6.7632800473254875 1.944759366428375 6.883025331067288 -0.9743563097444963 0.8299415589401254 0.7461858165787084
Ni 3.575744021234594 4.39141822593403 0.4749243618726419 -0.04465671947742632 -0.22444830711919408 -0.048109968133349404
Ni 5.9093024840197295 5.557679107032068 4.696359157273617 -0.16425749656191066 0.5004048094200092 0.952436112632637
Ni 5.275241853566936 2.653262374267531 9.163604756205533 0.6992225604552925 2.009817971440745 1.2848375852950582
P 0.26665939800882493 5.6260831581803945 12.337630027338827 -0.5044576393331441 -0.6347449495971971 0.9608099385186292
P 3.94308159662485 6.233844331584405 12.618639544027795 0.6185763102571347 -0.1888902075089263 0.24614918913139544
P 2.3052856370712105 8.400012024695618 1.4543345119763234 0.36095768703355896 0.9971200858035731 -0.3234036400391849
P 6.160811503244573 7.887345395675822 5.87044258088665 1.312753852089352 -1.2492769145816291 -0.6770516807852083
P 4.8139555607593225 1.2135035088187982 12.838104511799388 -1.4104580862110612 -1.9547269440038724 0.5980959309155958
P 4.014468435432928 6.17772609180292 8.256076151155938 -0.13552516162422465 -0.33345151119349026 -0.3249123633742275
P 4.69778143773089 1.0638275878070582 3.911786879632463 -0.08660812420854762 0.6672637481605088 -2.0729120716877527
P 0.3252684473634979 5.565163357775895 3.482852920295374 -0.5954458948872584 -0.5607380590924278 0.4127972974126697
Ni 1.516574741552151 1.2523615931789152 2.5199163063064485 -0.6705002528199355 -0.4003719271651234 -0.1059029678824176
Ni 1.8944884817237824 6.663774978505361 4.7732768846629785 0.8037720996336093 -1.1692006779543285 -1.0026615844470925
Ni 6.222713441049234 5.780597015274414 9.501247225424592 -0.5971093986326104 0.37482930280932863 -0.7634849699787883
Ni 8.604769484899782 2.4624912781508606 10.364986143224181 0.4111170814967694 -0.09377970225632237 0.4241155506389664
Ni 2.225477879443224 5.439877182201514 6.836347432351621 -0.5912933061714655 -0.18041482304806347 1.4236463027665611
Ni 0.6116542569318749 0.27672448758752316 9.539698814027417 -0.4269190815260325 -0.5999808066431345 -1.168658432297613
Ni 1.473397071404284 1.155111802833235 11.540932899738078 0.5421484690156986 -0.745813263730638 0.14386376339690707
Ni 4.070059231055066 6.975094346627113 1.61618166165822 0.597864274520764 -0.048369649552639275 -0.6218719502892709
Ni 5.555214669666846 7.787894890044592 8.099459792516384 0.3166202985687644 0.6969515050329287 -0.7693182888311138
Ni 5.2675302562027 2.936499887836499 4.888832624883902 0.9856323968789477 -0.7547583887390678 -0.5576064554419815
Ni 0.6576110121676078 7.4682637294807295 6.736151229805455 -0.3648038002525266 -0.6448853804653087 1.1321163715075213
Ni 5.269148964140004 4.591146778894772 7.49801703638675 -0.3046952649964043 0.2686946785320792 -0.9440784846965612
Ni 8.300897992062593 7.369440700521826 8.972729080643473 -0.3133251727572604 0.42154444747768044 0.7034795359594336
Ni 4.783463832030216 0.5900445059688639 10.602193241252406 -0.8996431372013217 -1.6380793917415981 -0.6023840167679884
Ni 7.997499380195853 7.063432149452804 4.58685993102036 -0.22041964557577523 0.3372919679855029 1.0422041226264052
Ni 7.3564455676993115 6.182855031559322 6.883304512717149 -0.3941987084748759 0.10851135203954215 0.3031384620322457
Ni 2.405209023672888 5.0577347948902975 2.650605146968203 -0.46223189789471364 0.5259037250220621 0.14315208204186314
Ni 2.349063502296955 5.1112249077398655 11.340460468635362 0.2274027617618277 0.33782418633988914 0.8307380866994918
Ni 1.012028933813324 3.3756153382219347 3.8674924828851522 -0.37919297909466304 1.0719389306866764 -0.40529378994677295
Ni 3.5326027265459925 2.652489395758144 2.6300948442614844 0.9830576941732361 -0.041489120382722094 -0.44924705559927147
Ni 1.0779503598667965 3.2510475779680426 8.394258336426335 -0.5238938936808849 0.28696956558186704 -0.5363439465187796
Ni 3.9564950472289158 2.638375717563222 6.987786653751245 -1.36234426142297 0.3848162388187114 -0.0006188645309215149
Ni 4.023562300249244 6.927478870448883 6.032901747670685 0.9815574554786256 0.3958262167759699 -0.185716437766635
Ni 1.1943882049749026 7.24522760099577 11.26924004755342 -0.7673220843366914 0.731644942650056 0.2624147590606384
P 0.22117916128946694 5.643406970655477 8.107312344785273 -0.3620383216922474 -0.4010985209185028 -1.1002598891185567
P 8.554935105706372 1.614251943544198 8.125920210972419 1.7163340017791282 0.6560167144917799 -0.8315731810062774
P 1.8792835397509025 3.2099069335390302 10.612893991981764 -0.405095815003354 -0.767417215153659 -1.7397791201759456
P 3.973527856029875 6.174379549550516 3.5973701411542742 0.400181151310556 -0.261374233611266 2.06970050672899
P 6.869996550944952 3.879679171125497 10.48557260946149 0.19363569261371166 0.5209366108247738 -0.5035744653972424
P 6.316007400199817 7.918219066727213 10.112472251937135 1.27085695474525 0.14402934244049387 1.485491875318448
P 2.414330170083652 8.464633028080359 5.883725989223842 -0.10273896833213919 0.7351928079023144 0.04841387252701339
P 6.97939574468523 4.068995248871557 1.7520740117678701 0.47536637839414264 0.12948769718089312 -1.0428810940887716
Ni 5.560525486719574 3.008614235829883 0.4667926279538925 -0.4893436665098412 0.3554370143256459 0.3951888403022871
Ni 1.629893391028261 0.927910684262404 7.161345791930074 -0.4850008161601131 0.8663239542239015 -0.12322706098316195
Ni 7.016780622945104 0.9115235398634031 9.307802533051925 -1.3813316011587502 -1.767768920520652 0.6241638316472412
Ni 2.8529545517690065 1.7348638726029928 9.333490882385053 0.30795465247396636 -1.3055401079497322 -0.3343033176708242
Ni 6.3730168387332995 1.8132075179955527 2.66061385458504 -0.5349948886900527 0.15533731125414538 0.5855546039154755
Ni 4.002655505036534 6.8694782006504225 10.468150583246393 0.46706325784508596 0.8150224757364479 -0.1331368638977062
Ni 8.479155930192013 7.230577384776685 0.39711179818535514 -0.7779749360648472 -1.3741880481354334 -0.1912571650792061
Ni 7.425713536005188 4.090420394378796 8.282376517591203 1.540665435166798 -1.0154165701199158 -0.19061464639920075
Ni 3.181443136663962 8.375976939986096 12.520479457814002 0.23381252194291346 -0.14768647957710695 -0.017939358087240075
Ni -0.19311458507983506 4.94371591782333 10.160187760628343 0.44608048494583175 0.2508381099666326 0.5929359839812111
Ni 8.933749138494818 2.0945262260882784 5.7225044974413075 0.8383976601272788 0.9359887657098913 0.6703357022176133
Ni 3.7857577353025884 2.700568659042005 11.621616396547875 -0.696106383423814 0.17913261390153018 0.035561442044377466
Ni 0.900571798465114 3.2254665362397463 12.487644240121734 -0.6444644908778062 1.0925635489155636 1.7976842200228458
Ni 3.156407726824645 8.29967032031239 8.15333821339361 0.06568474379231913 0.8204950688152449 -0.05970178673600686
Ni 5.456018792250475 7.925048559204266 3.635409777680923 0.5820532756304362 0.013139879816067693 0.24330786302785837
Ni 3.073853622022131 8.682467465890383 3.6850550044861534 -0.3848995425611371 -0.9656608388530272 0.14520536502646605
Ni 3.363847877149622 4.224927748876922 9.12798772526595 0.2142094030000053 0.1462788005963029 0.27049187964181803
Ni 7.250265602104009 6.249485779068468 11.610715580792558 0.8579059053635353 0.09024186430639297 -0.2952973687212721
Ni 0.37069412089395803 0.11690345098670145 0.6217166183511281 0.7302079530932134 0.4320232355218172 -0.0342334672615733
Ni 4.4882496984981595 0.30515736532221577 1.7269185629129777 0.30234707647920184 0.2290662655071797 -0.5655102836700905
Ni 6.09336230790196 5.889132291857142 0.47386492662154117 -0.8841118743349418 -1.2544785133872265 -0.9110218113519083
Ni 8.183978172119222 8.620574621950539 11.418389433792296 -0.3973830197401285 0.36987067325247264 -0.05262842482899323
Ni -0.01403274279805674 4.978127102288269 5.6544114564697 0.0009687916711725251 -0.6759682179130422 0.09804927616595371
Ni 7.836519785217432 8.716014733197772 2.5721569221302563 0.10401269283824022 0.6121629505316232 0.29310498905564364
P 8.725881576523475 1.652909962878356 3.5276665767236963 -0.8725647929272908 -1.0289829959504406 0.3112196963784834
P 1.7860441437892176 3.3207065824610207 1.516503809406584 -0.4178320316230998 -1.0606618151109604 -1.2178359224635282
P 4.759774314183713 1.0074910952699825 8.108470903162871 -0.01806225681834954 -1.6268570406632177 0.5333092734575138
P 8.52616211742755 1.4267728264910338 12.490878927836897 -0.34991814138994576 0.7635258505190528 -0.4059540492385912
P 6.299083717776654 7.808665277285058 1.281055464833836 0.0016082250273843272 0.8018548280062384 0.6704136066434003
P 1.887022418709587 3.3822356718082127 6.242464406043791 -0.7492307740526194 -1.3389163694173327 -0.6530113520065527
P 6.869641890217116 3.9506931614761065 6.037374110387349 0.6295207250837803 0.9895546147514893 -0.2654815709114203
P 2.5318501851049002 8.658496038234576 10.321809382462796 0.6262819064315085 0.6866382960323788 -0.40936770290583047
