# total energy = -340896.31586044125 ev
CRYSTAL
PRIMVEC
8.98152928429531 0.00000000000000 0.00000000000000
0.00000000000000 8.98152928429531 0.00000000000000
0.00000000000000 0.00000000000000 13.14537597446530
PRIMCOORD
 96 1
Ni 6.444588707909408 1.8891389870178767 11.400393698473827 0.23196775542469084 0.45909669469984155 0.23436505201227378
Ni 4.438213816445576 0.29887476426003673 5.733474314153999 0.8955833653096512 -0.6584538631783627 1.2964191194850705
Ni 2.756871495731355 1.6036880167350807 4.737225099953877 -0.9519974824333217 0.1984994484639162 0.6431354876537375
Ni 3.3849678160956014 4.418032319679312 4.982517855576536 0.3106969911057939 -1.6398051161834533 -0.08502098222708583
Ni 4.99080241837903 4.330130090550946 2.7586758850060953 0.10066048853655567 0.38910869554647826 -0.11611076165335488
Ni 7.3508160520212895 6.0127208438644155 2.4419377567414196 -0.3137887426572402 0.10373989879282777 0.9433824870708011
Ni 5.078372330916229 4.735098273770409 11.548055432223476 -0.361101668810591 -0.5293695720834753 -0.4167621955976887
Ni 5.610321378079376 7.900395841575261 12.516921759311453 0.17148332488638854 -0.11307094638576655 -0.7053083616380562
Ni 1.9039046215010722 6.184196204906487 0.5398869229272887 0.3544270850038928 1.6347996925490618 -0.7439659261092543
Ni 2.8964175194329407 1.613998812590743 0.31677764699443656 -0.8037947253414287 -0.5888888104950311 0.34732929761684694
Ni 0.5009780390193502 8.939262413210152 4.667922720248412 -0.13921675154319893 -0.2950970797850079 0.45930315428369284
Ni 8.633037165214686 2.3365089709643265 1.31645690730717 -0.5218717210445334 0.41983055011036724 1.3304368711914119
Ni 6.913532325693228 0.4979072540863791 4.7132749534131895 -0.12581590475626073 1.305293539156565 -0.41546070317744577
Ni 0.7966347212627635 7.17268537762639 2.6379219154585183 0.6383151834469587 -0.061231593116971975 -1.2392624677684208
Ni 7.413183792806758 3.9134679559342067 3.8328757936585616 0.6696998684058272 -0.5985170776134144 -0.2651601830162595
Ni 7.659457331449834 3.7953608431276256 12.74933230718518 -0.6784953552102702 0.29338678196212054 -1.2314766531754147
Ni 7.5570678952524935 8.878044308199533 7.068531969037019 1.2038072122846042 -0.09856221124663025 -0.257613223906937
Ni 7.05015935231024 0.6768435716766206 0.43903063381406104 -0.4977370327798589 -0.3189222072290636 -0.5465514831794006
Ni 1.7607480229441064 6.550220476252997 9.004766504093876 0.3446748907131354 0.029131113038001442 -0.07301804422893876
Ni 0.10935910308235236 4.863022198310647 1.3439834988911707 0.1505576304773149 -1.0626395076626216 0.040927591452297254
Ni 6.303300267486569 2.0910886776228943 7.088000332361698 0.5349110707269948 0.14019994139207467 -0.630319823946308
Ni 3.4579876508573886 4.326618312519966 0.49331679436353165 -0.03720591962633592 -0.46585046848390743 -0.11841472719618315
Ni 5.740885872289967 5.698052958147413 4.858228756021304 1.621621246185575 -0.7245834078175845 -0.08687988981269554
Ni 5.330852106437583 2.668403430245056 9.375860848838052 -0.5204992661770391 0.9552463283879227 -0.15921042105630645
P 0.30111026695034526 5.504465071498512 12.284248950776592 -0.4021251624108042 0.7844415176257974 -0.1254181550972098
P 3.8428192449580423 6.196940995254209 12.5796128351586 0.5784874126560489 -0.1727727331217734 -0.2926203361097412
P 2.431461700743123 8.370650762664765 1.317298476620476 -0.12774140391374775 -0.18483994869895265 0.1086018548708194
P 6.249707481013804 7.7869770871629775 5.8345623267280935 -0.6604423543633012 -1.3683878965138885 -0.8788812220636218
P 4.7712758745601365 1.0176881250951268 12.513780020295503 0.3473007583717567 0.4404212297775254 -0.9475556446118844
P 3.977191907672815 6.024962668560641 8.12724682269406 -1.5937512592481842 1.2593890633149665 0.4626229626855452
P 4.729278242660245 0.9784118966310067 3.746997103124517 0.23532870147712376 0.028216828753848178 -0.9346132255186033
P 0.3058058105682373 5.217199832258535 3.547502962682337 -0.4713626565513882 1.4170102855072821 0.2147853301081333
Ni 1.356309749964612 0.8755464393706436 2.5869310780792936 1.0281687275792617 1.2078893527737777 -0.21480255649931393
Ni 1.8823938583701396 6.39603455948109 4.546446635729758 0.24837447891748837 0.7570225021828962 1.53350671263483
Ni 5.7857037044500315 5.4384508297397005 9.184503075961764 0.9972707524488245 0.6803185244619381 0.9866628950259911
Ni 8.6926655395054 2.4041398880315175 10.172904229692657 -0.36742452570482526 -0.7953365672717464 0.015295492706489788
Ni 2.223961424912671 5.445968369923663 6.731721020512919 -0.7988417522115275 -0.6656694070901955 1.8449390392447518
Ni 0.4404281598028598 9.080416130690626 9.035487825717823 1.4713304962164016 0.41854525564004047 0.5382393637692795
Ni 1.5260696388739041 0.9862078642291902 11.408306425955393 -0.08649653833134781 0.6509534410362596 -0.8353969256277419
Ni 4.185743022453713 6.927812957583909 1.6359029667133809 -0.4636038385415758 -0.8562020352985512 -0.24071901925475958
Ni 5.545187326210683 7.778112317555366 8.046599873088521 -0.7610565630429538 0.02469724563636392 0.3416276192463794
Ni 5.220837351702388 2.764065700853642 4.941898888453513 -0.5840656780747748 -0.06306453256065268 -0.5541529496757424
Ni 0.5061801409005344 7.4564657834238615 6.773641411259187 0.6416072239346692 -0.13817031255655557 0.00953133652920294
Ni 4.987829532117511 4.42776829764755 7.18352788002792 0.5458418587068858 -0.6668364308151031 -1.3378719873132185
Ni 8.038379079145413 7.359079059153005 9.096508337079642 -0.8993163499895221 -1.7973702883268527 0.14107103114311834
Ni 4.577265856025157 0.39373947504982165 10.318291840175185 -0.0483537087130393 -0.06040652611251532 0.35029480800307417
Ni 8.133933571400107 6.954218654287433 4.661363509261138 -0.6326279032541943 0.10839565239728428 -0.06841988333529507
Ni 7.080912109287406 6.180010812163684 7.069661845446985 -0.057722551522448984 -1.1500009650974259 -0.6587749939632074
Ni 2.3915657467441247 4.9359073101300694 2.641629490832401 -0.0853436556738272 -0.2415479429139582 -0.5241594886374458
Ni 2.223853646558779 5.183806505611017 11.158203163137358 1.0544238046210486 1.0062490446880348 0.37371138715480157
Ni 1.0885254481906026 3.1936792009963946 3.7846198320093447 -0.44930310564818743 -0.46641456851749347 -0.012839832077145627
Ni 3.4968866550828874 2.466184293755309 2.62778715758088 0.08754220598704279 0.3919775324538411 -0.6308543562935393
Ni 1.0353997012513685 3.3434102791407683 8.094844158749398 0.3877246707147581 0.413943495201971 -0.23385545936570692
Ni 3.631429966857989 2.482180397778771 7.108533006931062 -0.7987574200278372 0.5751511491939643 -1.133611467995809
Ni 4.102933320546741 6.782114586180991 6.0838249183857736 -0.3210937609590857 1.085906191500046 -0.2993838800858199
Ni 0.7255171744471686 7.453627620104706 11.183008351285588 0.9220081351600831 -0.7347243529063282 0.29394831089254536
P 0.0061263012658075355 5.582891787013878 7.884425783987322 1.2188653921693073 0.5790880223545253 1.144138592779378
P 8.520507582222011 1.6732319995838534 7.897255898865208 -1.6367259630374973 0.7513287942322286 0.7141177323995701
P 1.8324655359296997 3.2213872194761133 10.205347310520027 0.1257868512905382 -0.31052961228999426 0.8631285872150555
P 3.9529777041650926 6.067409376935083 3.7489559747065027 -0.16225640697148183 1.0241539499929135 -0.9527256188485979
P 6.7763214996593 3.909650805900534 10.485922208442162 1.1797838527868134 0.25676990207003525 -0.23225674742001937
P 6.163610539313128 7.705200261147471 10.288951877786953 1.0801065540991333 -0.4836108777911219 -0.08132245032957608
P 2.3194530464609273 8.403101028715728 5.705014541655883 0.3388945365859325 -0.2965880625082376 0.13985309957561723
P 6.843386580368557 3.9746950424743184 1.6629032406692095 -0.03190893289345473 0.13433834040497508 -0.6431537424861826
Ni 5.299991571106525 2.8282297475373084 0.4618221630504094 -0.015319661076205877 0.4786949285467433 -0.6250927712194138
Ni 1.3049713273940857 1.0779631695091927 6.843797934419246 0.7388224342351017 0.13379583763794375 -0.21944262637448655
Ni 6.771345732321289 0.6668318607530088 9.142976974360149 0.3259024952016387 0.35366218181341025 0.5101672881234117
Ni 2.6612631142997154 1.5503377315585718 9.11668624123411 -0.027217955175688608 0.012022221271856714 0.3632343988828777
Ni 6.176220606718484 1.9291876270182227 2.439966311018146 1.7090233270503277 0.34465020812278707 1.46598902939883
Ni 4.105834354572333 6.930911585258301 10.292277738157468 -0.493152241622654 -0.48793341642587573 -0.009887177206724908
Ni 8.290975614550149 7.208862978416118 0.26813637773005616 -0.2409203366322883 0.03725168526260681 0.1285034788907529
Ni 7.599810994100138 3.851100215148739 8.319274617670375 -0.7859286436942852 -0.1706662283017319 -0.687968327697712
Ni 3.2231745438448214 8.312782768154285 12.286010228709774 -0.9837223243404284 -0.024651737110409157 0.33360809137601255
Ni 0.11706794984447319 4.741250621471741 10.004341578664512 -0.1897669536869248 1.1530832035671754 0.42177199010745425
Ni 8.452831757507367 2.500745219236657 5.763248084416646 0.2372158911975076 -0.6080962366614172 -0.16739912751468589
Ni 3.711051225795658 2.7932556716993746 11.483590504301862 -0.42554739798948643 -0.32016147895280345 -0.7842224596364559
Ni 1.1437887991486935 3.459254046515619 12.407198006131766 0.0560086541551358 -0.9923925984209166 0.21510594667234567
Ni 3.150127764494561 8.475572990178566 7.823273244141986 -0.39546934765718345 -0.6952031548832543 -0.016595185354519808
Ni 5.744056352200289 7.724753050849366 3.4578780761975985 -1.1852878133241782 0.4687385886649798 1.207552024039017
Ni 3.099876106992445 8.37376735339814 3.4788840773711374 0.49817077788316777 -0.44138822167648495 0.38979029499453516
Ni 3.48635132098995 4.180425956995045 9.182255897283119 -0.15223810350353137 0.21493111165737824 -0.12882692366844264
Ni 7.3157072532409915 5.982282440419434 11.382397407832721 -0.2572702387452214 0.344422151272381 -0.5516630933743532
Ni 0.6312308741566036 9.252502235738087 0.4265606782687639 -0.00997408049357637 -1.0578042910575072 -0.6966157189600647
Ni 4.738592088742405 0.3380548903586032 1.4013889446328638 -0.7264991367830584 -0.625267092013749 1.0818844719351626
Ni 6.024630351969475 5.687077529109418 0.38241107190282997 -0.18138747137397793 -0.3456385401779854 0.6225869740784246
Ni 7.884022513313177 8.825529305265686 11.165051579374241 -0.15916439830971943 0.37860471069136087 0.8762532975224715
Ni -0.002099881594994578 4.918078974090445 5.780679436852769 -0.34349938234779553 -0.571173395493139 -0.11913257919881419
Ni 8.081292827053385 8.654458113050708 2.479335947388973 -0.7296446243905756 0.41834265271093113 0.17267066032627035
P 8.522986484361526 1.5471223440007957 3.5166514088807705 -1.4728304778006958 0.8001614994642156 0.7728432712652368
P 1.6722081052218798 3.0303411056731635 1.4228296518337664 1.35564653768782 0.7666664530305636 0.806898561077733
P 4.772560233277348 1.0055630602822838 8.115271749423718 -0.1488491324266404 -0.95846020733953 -0.0636628282662839
P 8.549455051771488 1.744141174915257 12.314535566373175 -0.3172954702589181 -0.8201842224430456 -0.49589612291637813
P 6.37382323704986 7.722741188243384 1.4839022560666326 0.6155190114880495 -0.26217616068727106 -1.8518725331397914
P 1.6817015818938614 3.2524992376329194 6.015784443573794 1.0091801022919007 -0.17368856006782346 -0.9223711749264567
P 6.729985789015259 3.968381027242149 5.914078501770718 0.5047322331507694 0.637755968509379 0.8516792077275332
P 2.4778782451525845 8.486853791219254 9.99654561106633 -1.134643251694433 -0.3049732012481393 0.6726612650269963
