# total energy = -381171.0133497111 ev
CRYSTAL
PRIMVEC
9.22181952277248 0.00000000000000 0.00000000000000
0.00000000000000 9.22181952277248 0.00000000000000
0.00000000000000 0.00000000000000 13.49706502737549
PRIMCOORD
 96 1
Ni 6.9811754483830155 5.326762615844707 5.006223241904436 0.71116636308073 -1.4033605559343314 0.8110732612807129
Ni 0.9918712223348832 3.4639182226714533 7.947018085641704 -0.17325147253040485 0.5052389975838588 -3.3005246139220703
Ni 1.7279937290211957 6.148260725944803 7.4452238526500265 -3.1603573255401445 -0.6326885812888007 -0.26572736837363914
Ni 4.48954130377653 2.7912602766563075 5.011891894250349 -0.05372422899633328 0.8727306290811938 0.0573530839981722
Ni 6.9858324671477545 6.219342509387604 7.313182154667749 -0.056162663234496826 1.2062847272908193 -0.29194773552274883
Ni 2.4174538298667496 4.983535721973718 1.2407625931251163 1.539395310205123 0.6481511957007741 -0.1844941353237597
Ni 3.2654923360161945 4.616129217803426 11.013281314538464 1.0764283339165976 -0.6248891398490399 0.586215634538242
Ni 9.184876727857878 7.360302884929513 9.387410935027376 -2.138899434322155 1.810387269411811 -1.4118459676975235
Ni 2.7629124040170794 0.22225230127398793 2.524855748764852 0.5679695438438604 -0.1369652365048609 -2.228865676369658
Ni 1.4915831685204652 5.961721764413802 9.981996958542943 1.878083130096888 0.18888763640576503 1.2526468594951266
Ni 8.056301255684374 5.309093609996705 10.331908749250687 -0.20051802155584175 -0.16816943002180712 1.503384696438469
Ni 0.8486821891391061 1.1890060542830854 5.988499161220089 -2.3340664759787284 -1.0141826977128146 0.09648090323756932
Ni 1.5158088879164482 1.2076064638840365 9.17367129518256 0.09199304266954479 1.8552620184373145 -1.4621449730623914
Ni 3.260881426348135 6.547002972219226 5.124686733096214 -0.7846371785763713 1.1974689287714022 0.2282905636834197
Ni 7.171956446808632 8.622437966548016 7.2105230174542125 -0.9044490432303972 0.9596256884025409 0.5931144185406043
Ni 1.114318539479863 4.809667540210543 12.632239940457131 0.16465473200032935 -0.1751944551893886 -1.680181720228287
Ni 5.273829372855388 0.8920256622007959 1.2479602231169566 -0.40762552340374314 0.11772567154895854 0.8490232581619249
Ni 4.487936707212045 5.44844452198479 13.1047595079663 -0.5308926935962212 -0.7333675817681177 0.9879739005279307
Ni 6.890598738863661 1.9994748684571844 12.856318161959669 0.01408630288973703 -1.0852868127484923 0.03532412922259078
Ni 5.148790724476959 7.316324028515566 12.110349518768183 0.3141276140538977 1.39792678651327 -0.5365989999523791
Ni 7.836738959110733 0.8072457883161255 10.664840404014834 -0.07863667596729683 -0.26777319515907433 1.5702405777207535
Ni 5.212651823379579 4.79406422189383 3.4984659244503535 0.7199168555798505 0.7736243724056353 0.7403679243453507
Ni -0.11892827088631691 5.397005213727921 5.877661192437348 0.7442405199268796 -1.2554480763893476 1.7196952049418772
Ni 6.973502894695365 7.687078053104868 10.476232988406739 0.4792909102595294 -0.43361217727549195 0.19171996364823757
P 7.461244919382665 3.559880474683101 1.040541218245115 0.39001603785209604 -0.1416713837312786 0.4970549191111697
Ni 3.3398294216846445 9.254925667535032 10.476826873571985 1.1827804735212921 0.6800824971917319 1.8751818972896932
P 1.9267700448112273 7.4737404845831055 11.652002965396694 0.07082335057046513 0.24487263641181695 0.34220637456798486
Ni 2.5031060878606164 8.546219629734999 6.559343610854819 0.4788139706231109 0.21211292548229274 0.4153776565453362
P 5.061377098989894 5.1224163211756615 8.765169597504723 -0.59222610239838 0.9405614726822382 0.005214197211087793
P 3.5318092566239567 0.6885102534539335 8.360581639953136 0.5125422161134915 0.28667620271116434 -0.07596272867955951
P 5.15629728541656 8.19367869833453 6.352002069265402 -0.20084686565017024 -0.9381096687076359 -0.2833026582532411
Ni 3.0922143506905297 4.324194083079927 6.411497558894303 -2.892759993837302 -0.9681851479367778 0.928094193453163
Ni 9.195103725501632 6.918282640510688 2.842386965237681 0.14781529184548736 -0.1942717835358138 -0.2741006800389989
Ni 0.7026021155814558 1.8795082207136204 2.8307398074161636 -0.1376920873685564 1.3550600690567307 1.3628757084464076
Ni 5.881879252601689 7.222390576757864 4.373373123417513 -0.7892821335475503 -0.13424063848484621 1.2109101418779726
Ni 3.7665045587281694 6.528762213572383 7.583865606731163 2.9404022783056134 0.22432052329207822 0.1276681274736511
Ni 3.810363531490748 8.962105238155265 4.603727715160214 1.8814816142554758 -0.5051626358199687 0.33644324683196253
Ni 2.4849298819491272 2.3239814690758536 11.64387762037964 -1.0996852475620094 -1.3786190873235935 -0.22327202742290578
Ni 8.163108367235298 7.311288915158045 5.294884630763614 -1.2259626653357207 1.180009081423742 -2.734562844536858
Ni 8.649089024429399 2.618028400427324 9.128172682942019 -0.887203368776072 -0.974266064023535 1.582171524830385
Ni 5.0067378194233925 1.166597033296318 6.6105117976232055 0.9604348145673975 -1.2200910370462923 1.2808348918935684
Ni 0.9018920867085091 4.387907632873169 2.8351257046924214 0.5765721979112071 -0.45412238141370176 2.6044922782693014
Ni 1.2973163223857958 7.11430163231922 0.285518592829428 0.6638853186065792 -0.6923281473283044 0.34283963727660954
Ni 2.9178113034058595 3.840878531673964 8.77808567766689 2.3527275427233416 0.6823941760440442 0.44944554476332277
Ni 0.5928043680198297 9.35129367959747 1.6040450996882958 -0.6177414730606652 -1.3396270223311124 -0.7132037052257331
Ni 0.9383016738113716 2.6855782270643904 0.5911656507238015 0.14481044358089257 -0.05203835665347812 -0.3982839342878431
Ni 8.60473207342267 6.546523437613748 12.372071206800758 -0.4250061807740358 0.9292272786163415 -0.2092428030233493
Ni 2.5189030643833874 1.649645151941534 4.360145345761785 -1.0178838007134858 0.9884770654165944 -0.2153502014726678
Ni 5.071594874814313 3.1240941801354913 8.025516978376544 -1.1570349891260718 -0.8770246284708574 -1.0406331785948593
Ni 3.078962596304528 4.625517029887595 3.9098835614022702 -1.7965516490802997 -0.757307894633799 -0.28603419825179127
Ni 7.627661871122257 2.236051421705965 7.0705044457461925 -0.21657378946712375 -1.22714023058359 -0.7334398297669498
Ni 2.0113433499427686 0.027221888498287806 13.24558775541203 1.0835394910400822 1.3087742986163138 -1.2118581076135386
Ni 4.899617166015041 8.082528109876296 2.5426981248163734 0.2813650749108961 -0.3382041953871272 -0.4920968037749461
Ni 8.847302809239928 -0.06443285170145903 12.824371013233556 0.9920542412448913 0.9004453213876427 0.3305767607488565
Ni 6.52736971885263 0.3588431227347723 4.906587939251213 0.5321191098041544 0.4603837889423813 -0.41773227282044184
Ni 7.008278375411867 4.196471885274688 8.25697818843958 1.567705727114042 -0.09110266964479148 1.022265474720949
P 4.3977842013821515 1.5167587353080685 3.2526168318591058 0.32728523448177826 -0.7895860379412144 -1.1311450087331874
Ni 5.097987721754284 3.2984326746848094 12.362731348177137 -1.3191715826902377 0.2693289696819684 -0.5692216710834068
P 8.576448753518795 0.47490432998949006 8.649755761967402 0.3103293233537301 -0.7863418199723038 -0.5349848613877237
Ni 8.98300188077091 2.5901877278515824 11.936871419962927 0.6793021673822817 0.07886653258991579 -0.5088994771545816
P 8.677197129765888 0.8988793183313991 4.3080199341463095 -0.5015764611306072 -0.3807976045776216 -0.16476811764974203
P 1.075771334654888 6.312888644733189 4.403768239949359 2.3267264906738894 -1.0545017090468356 1.5057897063355357
P 9.156971502546781 5.241553005178973 8.641752144965583 0.04992619540648176 -0.3496373769247333 -2.5761103846924986
Ni 2.5542041888020486 7.022055773500028 2.62754070707253 0.2708094108822368 -0.24105686221015257 0.3851376267138722
Ni 5.102285089564915 3.602245512713229 1.4248983485371263 -0.05972261267161327 0.4568652342661616 -1.5909220173295051
Ni 4.230103860393512 1.0153960834613212 12.687875176511932 0.7547789575643581 -0.9084494226390419 -0.7528997382637742
Ni 1.2190784071381675 3.499237790728787 5.31946354584017 -0.21239368994750518 -0.2328254754392958 -0.46904506416180514
Ni 0.7806943260835735 9.151484520041791 10.807437396409231 0.5010000198018468 -0.7833020047047154 1.1058080726302955
Ni 6.240193042906568 2.676540844114995 3.166357778152922 0.429853224453692 -1.0296946773054847 0.40829863821136775
Ni 2.8137246285590916 1.9056889658088605 6.641851228455071 0.34101492536304495 1.242840414927666 1.9204286849426344
Ni 5.784220185832195 5.458606966893192 10.79414229947235 -0.6248330898001239 -0.8422782261286076 -0.1941170031255044
Ni 6.884549225379168 2.997404826095897 10.625038109578211 -0.7936563513558461 1.333110047148201 0.5127944413336135
Ni 9.212044207622082 5.122425542994996 1.0731228281415548 -2.5889281052824575 0.5869322009892924 -1.699108639039777
Ni 3.6978942228674487 6.788550086090175 10.460332727507403 -0.7383570645629091 0.06720015199558105 -0.3604902604788372
Ni 6.797891789077662 8.473671577017756 -0.34862073600068516 -1.1603074892297565 1.3895527035169617 0.687158687312223
Ni 6.235379253213114 1.2986073770928523 9.110855950592656 -0.3644448742512111 -1.0289667980005246 -1.3105951538751364
Ni 8.331157580997383 3.350950935804003 3.966936191089034 0.10598550029389488 -0.7562177468934138 1.579974774289382
Ni 3.815334092112916 7.731693215053008 0.5074508969724526 -0.29746892245129414 0.09580161778235759 -0.023062538246418345
Ni 5.083942890905375 7.921994678873147 8.962213133441498 0.5330382791843142 1.2584110156724133 -0.5676121605044417
Ni 6.65962905177124 6.3565078501930286 0.6371622412084927 0.43003500144719486 -0.033545697165929325 0.1545559530034306
Ni 4.393671269958243 2.2526875837883225 10.251236273698323 -0.04012977814135024 0.03573499150776427 -0.20558720854863302
Ni 1.2047476998898397 3.832053250569299 10.344838662141857 -2.012749029044611 -1.9674060821334374 0.1544381964786437
Ni 7.5647782850692655 1.3597572611106532 1.4825310306601314 1.3731866034541125 0.2534776044720086 0.40030507848292995
Ni 0.13484052015078915 8.033680132852878 6.891696135364659 2.2062885624000907 0.9390841168057632 1.967392455286683
Ni 2.916879899652912 2.790125992877965 2.1355999880414944 -0.12346694490810996 -0.252894478275029 0.02794480603938413
Ni 2.2304906646462856 8.116980826916034 8.909722537780311 -0.45971195968633727 -1.0413533445903356 -1.0126510915596367
Ni 1.3793444053805688 8.550415557532933 4.244813584416554 -1.0818942421271753 0.05059468222841609 0.6654696323745636
Ni 7.476931234073403 8.507810752200067 2.91026416646118 -0.1083372883555231 0.6498946607544421 -0.010820487654271687
P 4.878978734340809 5.894974236058977 1.7609755658768231 -1.2871387226244089 1.195876901693934 -0.2978291340041903
Ni 7.226678722749158 4.542658983152571 12.583435305984592 0.31030566920464625 -0.5492251733568217 0.3138874730186336
P 8.524161037883005 7.69769236716074 1.0623637315221055 -1.5638979233321775 0.19610472297949455 -2.4430532249927923
Ni 7.546749628267155 5.219153206011543 2.80814542786074 -0.7102492505830994 -0.5082320187739118 -1.1772029794335144
P 2.9018667777737113 3.679183151434464 13.107728011610597 1.0069699820144595 0.20575227337158755 1.1625260941476303
P 5.7350402233126765 9.352492516111164 11.198042309301462 -0.6806787360148342 0.4656344958183593 -0.09348016873803254
P 6.520056816119088 3.1522945036653414 5.510946324717265 0.4077497076864332 0.6787120992067666 -0.3703401566897235
Ni 4.9267385366825645 5.1100959705426074 5.998041899869104 3.1829570652175314 0.37427831540186507 -0.15311484968152983
