# total energy = -340885.27662079025 ev
CRYSTAL
PRIMVEC
9.12988024344493 0.00000000000000 0.00000000000000

0.00000000000000 9.12988024344493 0.00000000000000

0.00000000000000 0.00000000000000 13.36250259872059

PRIMCOORD
 96 1
Ni 5.449707593411595 3.5783743315469083 9.09044357089917 0.16239653209377194 -0.2128217786238593 0.05126445460193106
Ni 4.8919632188393996 0.5318082112183777 6.523439922985786 -0.6298950777040636 0.6437769778924783 -1.0981631544905281
Ni 2.8180653074636104 1.8228444687176415 5.351428086216966 0.5097525691834963 -0.5070896776393524 -1.1144716618425645
Ni 3.89018712619029 2.8993668896467075 2.693185894632772 -1.2361997696826967 -0.14891855221199515 1.471035333573486
Ni 4.923653032624636 2.946139265337219 0.6706052132552707 1.2526430028403848 -0.20809814789594486 -1.0970601512343365
Ni 5.4319043272401135 4.840014201139026 2.9779139870072737 -0.5424482596443045 -0.890080433213551 -0.7552708095991121
Ni 4.953233844109558 4.726611960566736 12.126805224253411 0.5875739483383494 -0.3337852403838252 -0.1953295353763668
Ni 5.309773921303753 7.8895037090717155 12.59895606001317 1.577393386715451 0.8987265389243231 0.8783623734456745
Ni 2.1360450051343896 6.223209294221964 11.658409508173824 -0.08449184919649319 -2.1387091726882197 1.1403649846695587
Ni 0.3401848100046607 7.508897267965713 11.038883235046544 -0.32995609644572205 1.2181393126365603 -0.07345950264173155
Ni 8.26008554184116 0.2958327655254618 7.115452389480052 -1.1427877351784381 1.8220590493227846 -0.10935595942802458
Ni 8.344573452174949 2.4520758043783992 1.4610163649765124 2.025761382143879 0.17086034659040897 1.8205919778589548
Ni 1.5635650041002611 1.0519539136124223 2.9463246019030045 0.8039934716157959 1.94017012923562 -0.7947896936293408
Ni 1.9374427235814522 6.612534770811948 0.7815323433357211 -2.2420052990754096 -0.9664113438658066 1.0356624648531454
Ni 7.822161713543077 4.190295414560934 3.3694753712307937 0.5163047684797173 -0.7737387864963126 0.97457588195447
Ni 7.518620590259368 3.459147227478513 12.69087660572655 -0.5448902934268938 1.2550770662031738 0.11681190148543753
Ni 6.704865248141275 1.0040311730308302 9.804669525238596 0.7576243974329533 0.14718305757812716 -1.9414315124465467
Ni 6.823069805639823 0.9465311882369903 0.42334797473768854 -2.792488513209049 -0.9705611043681222 0.8457636135740467
Ni 2.234693359484571 6.549072974320684 9.328630273549386 -0.6815092023359296 -0.036916927631007394 -0.5080057616957186
Ni 9.047172504222383 4.996336008004719 1.26332615844436 0.17096653315097007 -0.08123888947683428 0.2013168633080533
Ni 6.709393668664893 2.302500978897694 7.413542974351261 -0.19577690732643055 -0.7911112163364892 -0.49202018490073973
Ni 3.0969740142700597 4.47165092923095 0.7120220012861974 0.5531949566378473 0.05614749372584524 -0.5086415955075047
Ni 6.279029381079624 6.175012657237734 4.693297941113855 -0.2770530777991035 0.3317898072203512 1.3336211824566644
Ni 5.671508900267985 2.5223393615351775 11.27085614130891 -0.053657637424455985 0.6322442946625305 0.7584126976622035
P 0.2467907016450885 5.913496371998808 12.646245186916659 -0.8322342116290442 0.036862934464620384 0.7003404761098196
P 3.8480344698242757 6.29273333109162 13.093234986142065 1.0455180174909866 -0.5332295692595139 -0.6039377344083534
P 2.7117843733599125 8.569460658501063 1.7308180163952427 -0.6422749394256551 -0.04929113292564414 1.3106049240671493
P 6.547228738542921 8.093602178437592 5.991679187143865 -0.35244090781179943 0.9181165134151608 -0.016728368498274415
P 4.826054614484567 1.1375465394368505 12.84223358380042 -0.9392944330443566 -0.08257252068659328 -0.07466123625931657
P 4.3670042436629934 5.824498300901579 8.533708048076694 -1.073449710904248 0.021865689724839762 -0.1998482491823268
P 4.633934547794067 1.2920149806446908 4.174927087408906 1.5683251058655958 0.6043745648354558 -0.5999548385012055
P 0.21556012082827553 6.056561592976814 3.495069653672518 0.6241926280026475 -1.4538770766266444 -0.4027404273972999
Ni 0.8961652917438659 0.12493693107539276 4.943765245470357 -0.3801730836197453 0.4735830612414747 0.73013313399122
Ni 2.1028670208948195 6.872791132598738 4.625657398506341 -0.9658595851273948 -0.4828398039530523 1.703247858019131
Ni 8.253995911822505 7.949222254726924 8.97607356303756 -0.2756554261206285 -0.425416528838577 0.4062080742309262
Ni 8.63228336338617 2.831696218434904 10.521754958021564 -0.21707438325262615 -0.6021860418245694 1.0044127628102444
Ni 3.3119370409405846 4.512881467708083 5.197598736615282 0.17620181340798038 0.03156389084921015 -0.7578447409738754
Ni 1.5948804928018923 1.412693735647069 7.333448362315789 -1.2468662482576074 0.04196554579850838 0.6824553682992828
Ni 1.5004227534120749 0.8120270558174462 11.989184150771846 -1.3272615587872238 1.6948493495427908 -0.11986894314420647
Ni 4.06605600632426 6.8450180373712275 1.9008291654647902 1.0019979827211647 0.4912712225498571 0.42649022151873006
Ni 5.5571297625262845 8.161017213006934 8.234735516788989 1.0128112712865847 -0.5046707837852147 0.8576053434039812
Ni 6.945264120736798 1.0721400784868553 5.165395823569104 -0.4914285740633279 -0.9090957979737891 -1.1571946546323877
Ni 0.5697483409118171 7.839042861825677 6.823869583135526 1.5997367874076578 -2.4868170003423042 0.7781407722187502
Ni 5.7586992551078025 4.8584565589166635 7.022783193599461 -1.54223663630866 0.06589763113407361 0.5232770860324925
Ni 0.7918217181948284 0.7295121125706621 9.674304880450924 -0.3519971354061615 -0.7967684146222664 -0.404092313439504
Ni 4.662666280430812 0.3734057046806445 10.838526190540705 -1.42092479007034 -0.5411421392383712 -0.905278481110228
Ni 8.331371645567788 7.51989877347168 4.775437646289025 0.06220295589130578 0.6855885146116257 -0.021318044751485868
Ni 7.462070112994675 6.449922476565666 7.035450902221477 1.10259805033343 0.1035025859710411 -0.33865413844035225
Ni 2.2250339463515316 5.17374783787355 2.9654599175793157 0.10986478074364306 -0.40073882358623886 -0.8136952722845922
Ni 3.631592402579505 4.497817165562983 10.263951795014403 -1.2101274980756773 0.6931537285533933 -0.7823663802643236
Ni 1.023249570615942 3.2723224912390165 4.042464396177025 0.9192999922003007 -0.0945399774611146 -0.9465683409979504
Ni 0.7450192139000266 0.18811204933189565 0.8335918325851582 -0.9936059020027275 0.26256902525031556 -0.6491012183188692
Ni 2.5592332069705392 6.048006895334414 7.012493818740354 -0.7829194245543162 -0.7926790750442413 0.391543530240216
Ni 5.188547373496099 2.8928481552639194 5.560952443319104 0.45490708209852626 0.029055522605059638 -0.807506626975377
Ni 4.408289561420654 7.2872146495504655 6.32150614818876 -0.20011770079362953 -0.41966651372867725 -1.2697747774246648
Ni 0.8607313141345657 7.917833726984591 2.7252290347774117 0.296810720042005 -0.7613987768737209 0.3269592186009272
P 0.17861880001645664 6.027975938421476 8.246775089660954 0.6061967056458591 0.14179736778618157 -0.0362011325109054
P 8.694366547984156 2.0830734408641676 8.478922376632998 -0.3751992845542377 -0.5986872846426915 -1.1010492177890714
P 1.5928810490626335 3.6084938059570195 10.841492488581277 -0.10989614820221073 0.27963883624840874 -0.610107096443859
P 4.120515741048816 6.241998587442943 4.049159337245511 -0.17676874165504394 0.5548345491237993 0.34377217639320795
P 6.883080507457845 4.433488030463366 10.649166086600788 0.08279106445530257 -1.8500951295243944 0.8683204158286401
P 6.3386657578140415 7.935837850518006 10.2744685038877 -0.019900081358036694 0.24393238398573475 0.627886531914467
P 2.554211772922173 8.73302246027649 6.404220122821461 0.28278098142181624 -0.4124193452479607 -1.0268664638280702
P 6.798528687963442 3.948024916547384 1.4207280301244551 -0.5669660422800107 1.1595821810279578 -0.12933291677058373
Ni 2.881490584434523 1.298150260063786 0.7414822983539591 0.40712775783171823 1.9567367753450493 -1.207979598494739
Ni 1.1783205839095863 3.897856225464159 8.536514573215724 -0.31430810549582 0.7279533527310817 -0.652304041526883
Ni 7.744420784594276 8.907275351634894 11.633648360387324 0.013260464554332002 0.8579020487087935 0.8957404597128058
Ni 2.665276764191951 2.2966304660011496 9.420029503109744 1.416333828265548 -0.9802636763678666 0.2160441422158989
Ni 6.321072478884583 2.167013558392679 2.716770200875936 0.05624185321186442 -0.3423814666932684 1.109063860563432
Ni 4.051667315305667 7.003220599535035 10.814099196365426 1.9525841866292566 0.5068017140852885 -1.5949331953714274
Ni 7.242843432323083 6.33335216760286 11.61615733611485 -0.04869617965412259 0.13894292905652197 0.5510113187229672
Ni 7.822298661744396 4.119484064598879 8.431097325768347 0.9584918319084137 0.5587914768890183 -0.10956190479124356
Ni 2.8398765909936974 8.242090548187832 12.92484073883609 1.3998147475646021 1.570906750549843 -1.3434132288464218
Ni 0.12201354347123469 5.2346076185397505 10.519456054215421 -0.35064344959174454 -0.742863694184011 -0.6728391853657574
Ni 8.542153187158036 2.74085391155991 5.654650576685605 0.3760552047966298 -0.5261497795945972 1.2789055360813395
Ni 3.1435911819990765 2.7072924723566465 11.852352811917886 1.5312611111337628 -0.48410452959808886 1.4515769677385582
Ni 0.968296822366637 3.366944568470417 13.085243602101093 -0.14613096216452898 -0.6607845681940684 -0.5954045001263616
Ni 3.245215877257926 8.881173024463477 8.473523878536998 -0.48041525367195964 0.3453382353287472 0.7624714411126093
Ni 5.8798162443544015 8.305287578156547 3.580536287151733 -0.44766222761065483 -0.45659835375802005 1.1484444192435834
Ni 3.3030993170154592 8.741604547559152 4.041515801635888 0.4963509510656096 -0.2656456072931102 0.1428245234991153
Ni 3.696907564728621 3.5198700599433956 7.3459690798683885 -0.09134435334195236 -0.24304818160856848 1.2584274707326457
Ni 6.552250172591286 5.9417716106311556 9.209089101605965 -1.1409272849309318 1.5393539154442264 0.14842695728755728
Ni 7.897063249784529 8.972690942464977 2.6292858638972865 0.4225376646288852 0.8511361907398695 -0.34277844502137095
Ni 4.7165782223500905 0.44496753078592816 2.042458256304962 -0.12881689636611363 0.016121588152210944 -1.0590001111378213
Ni 6.175222644479756 5.867810452038762 0.4246535475902638 0.12646279431164026 0.3062613239319435 1.2289271472806835
Ni 8.411824148902706 7.466717221959436 0.5426042944223656 -0.3259860560543805 -0.05669462447856687 -0.6838926149664416
Ni 9.143940103274451 5.11500618938775 5.400869125857183 0.5651547001028848 0.31592198695015916 1.2090725744486017
Ni 7.4535336751124515 6.3830643646816885 2.5473470160840512 -0.7157280143094835 1.3150488187711158 -0.20969788828289693
P 8.668072493330891 1.6015544351461755 3.6482434778838884 -0.7687243640008568 0.5357711047344451 0.8212715419699533
P 1.8416702814589718 3.1004707583437408 1.7648259067348067 -0.5086413383971885 -0.2391570740842784 1.0470005155737838
P 4.795396477149268 1.5057180838630797 8.436656509753892 0.07029216065734345 0.465385870142663 1.2865836214518873
P 8.527024975852322 1.5635102248197335 12.939779961623987 3.125388008553811 -0.5569505670255376 -3.3220439760510847
P 6.373541899749968 8.113614875590354 1.2826395067823864 -0.3935767586201609 -1.6358458744253894 0.5235889608459564
P 1.7796875255419538 3.4024141526120597 6.410807331304909 -1.4697302416088172 1.1582449502737728 -0.9134052239824204
P 7.019398747050863 4.306436619159606 5.49853601809791 0.6383354951619329 -0.8223249229351323 -0.5192311980978929
P 2.2435767328101353 8.446134238273181 10.727871130886875 1.1596300035467577 -0.5463717630684267 -1.6993876037327764
