# total energy = -381174.79804911773 ev
CRYSTAL
PRIMVEC
9.15259033653451 0.00000000000000 0.00000000000000
0.00000000000000 9.15259033653451 0.00000000000000
0.00000000000000 0.00000000000000 13.39574111552369
PRIMCOORD
 96 1
Ni 8.420483714944531 0.14329112254573978 0.4354839054647682 0.08726555528688842 -0.0752523328760962 -1.2916985740809495
Ni 3.155703289534902 1.8737823455474436 3.1375372283927834 -0.040151375407905046 0.5236074727887176 0.013984487204550108
Ni 6.16545937483148 0.1525032046394231 1.716074978087883 -0.8322977178771279 -1.2547585065214906 -2.242337485603848
Ni 3.695660351747368 0.5421957857893309 5.207620668736533 0.7445469954237048 -0.9051504401727959 -0.06488667337105598
Ni 4.003837218291244 0.6516927993291026 12.089361757081829 -0.9988095576908541 0.4688537740866054 -2.2821237643628502
Ni 8.090935550150531 5.197472276659557 6.958109386190785 0.23480213954969237 0.38744493469081015 -1.620178085981145
Ni 7.536544853102757 2.0076206728757406 4.71059932267874 -0.6966884811795292 0.3900862289683992 0.49559838917030136
Ni 4.158351247010132 7.287457109258155 9.310776304942724 -0.03548019518448083 0.46301788413111866 1.5384000361713892
Ni 6.230991921071691 2.362484902320638 1.570262316926336 -1.6448344510772446 0.7985633017391601 0.014530075295374974
Ni 3.597727635997332 6.32873243242633 7.371662770140724 -1.329788953194768 0.07138333683899319 -2.353479590398018
Ni 0.13187418145914212 8.980164609160859 9.10357172937324 -0.1318916786366954 0.3896897648609289 0.07856288530656791
Ni 0.09524185421447438 7.160364240949277 13.3819701807124 -0.3417726294646759 -0.3435970842679244 0.18639392344963382
Ni 1.700020419518057 8.924086688656143 12.82694429390079 -0.40854854943864477 0.5158579107502858 0.8090878554195677
Ni 8.654790025524058 0.03744507725949044 4.877067549532312 1.8755104842737056 -0.6871041799252038 -2.70768556053004
Ni 3.7514728471346315 8.953411587839613 0.6757906542167913 0.1610690715316 0.2916394602537107 1.8204469676406583
Ni 1.0642082795438972 5.7619033652192755 1.6229611011081642 -0.022894645209986377 0.7252089572167253 0.7246487138378811
Ni 2.2973093071004502 2.2018111803587797 12.677045916448511 -1.4129654260139473 -0.3421102153097527 -1.363823674181974
Ni 7.999684225288115 2.3925145509538965 8.752562570944596 -0.18606019425929893 -0.6579370714429443 1.1784869883522606
Ni 3.8110653622980415 4.7720507289233485 4.91524574927139 -0.058039825652551655 -0.014453199310852528 -1.699296843791183
Ni 8.761591601233139 4.832906301542226 0.17018783953402306 0.5446992604620103 -0.6875533516474804 -1.0990162465194426
Ni 5.447786467598599 4.689951994317945 11.187774870706482 0.7636196957844398 0.6832871201719587 -1.2231689046406675
Ni 6.461014819410935 4.228505851330135 8.461674032137191 0.06978848154804755 0.21952001657964132 1.0666959371201823
Ni 7.976216983869134 3.604463942426493 2.112387627770688 1.392208910192886 0.8345813717049819 -0.13893110198198008
Ni 4.911527051849966 0.27389492447720853 9.594913893176555 -0.5066171088783081 1.0922689004932802 0.700103163288033
P 1.2214955431106609 0.9429730689995067 5.859002279996897 0.7534635811870443 0.1083912815219101 0.38132365228442067
Ni 3.4044523875399944 1.4249027089825115 7.2992053741120575 -0.15645831223246603 0.6506135411983376 0.5267946122674476
P 0.6846219885557829 6.62301566696006 7.540502433129889 -1.4699693542028167 -1.484943459014146 -1.1549302840782432
Ni 7.4107699577908885 6.691742467199968 1.8359135033590535 0.9004882588104363 -0.27876594672515215 0.556379525013416
P 4.6393839331479505 8.523926290029289 7.332694701862467 -0.47819433476124096 0.011398471644928758 0.1696411294713272
P 8.03738374455675 6.716436155713389 4.060597006770108 -0.23150495685565933 0.07664869900299058 0.5023606475947993
P 6.418922056818934 2.0563673685845902 10.559460532670869 -0.4088861352837216 0.2643636552568931 -0.11456655709468658
Ni 2.0219627818084795 8.961712987202722 3.8465874803445335 -1.625536007858949 -0.48839390100206204 -0.4326734675113065
Ni 6.294620728538443 6.964581182761518 9.973035769723548 0.34514257437817336 -0.5631129870825076 1.37502108555969
Ni 7.15110181960918 -0.008163195250229648 10.78828718746352 -0.8650006074267877 0.6031460917449936 -0.0365968252874273
Ni 1.9277094073417624 4.10338994251677 8.0955283199415 0.38356359735853296 0.3134876664770537 0.5592046531670369
Ni 4.905587020773164 2.6178879334425775 5.717596591044102 0.6206110812989764 -0.08863209661711187 -0.39794274889834047
Ni 5.493183315273382 6.258394776301187 3.5433209784735453 0.957858569199789 -1.123352509271962 0.2625104040982382
Ni 3.2335552222610526 6.013663665418924 2.5183324634399735 0.07096990345065841 1.294654314275164 0.054028390500313404
Ni -0.00994886560937283 8.155735889170181 2.5900393470675653 0.6623087181480787 -0.35595303473011597 -0.5207916006064773
Ni 5.7589196207954885 2.091476704810491 8.089526966509977 -0.94062112227558 -1.455781235627893 0.31415178242361375
Ni 6.6377238795030795 8.7270863359642 3.757424776578767 0.370948993918316 -1.288702210456787 1.5479108038753018
Ni 7.917100403399089 7.721015309732849 6.315970975830978 0.188089823094818 -2.0890519146724085 0.6182081282844385
Ni 4.414385806859806 4.102401462769013 2.5541529559288443 -0.7112326975422913 -1.0311951731104112 -0.37556463831345643
Ni 8.62178578505727 4.267614869498351 4.469542976784668 -0.02415320020743582 1.4347069314560967 -0.17381582967430712
Ni 0.6450681545010767 2.121661947478119 3.8976250693947136 0.021440686372279204 -0.26243095701055447 -0.737808905368923
Ni 8.137998169252091 1.0838222804646755 2.465954935176167 0.13063260941861374 1.4238471059234574 1.0260668507449102
Ni 1.7800140583643482 3.5540514752908674 10.402636390171109 -0.37640230372340333 0.03099824815372726 1.0402739954832276
Ni 0.37264496653719587 3.249517339669283 6.4815559777247485 -1.6549936509984338 -2.1819769822379196 0.4535425976508318
Ni 3.4124059884733384 6.983106025441711 5.182155416864447 0.7351457567144629 0.39322785992117437 -2.0175922160695254
Ni 4.220625471118847 4.967696498257253 9.049224563686122 -0.623833444891016 -1.6845299698946539 1.0155986042237348
Ni 5.7190509376359415 7.282523863109626 5.690524144322885 -0.5595319545994686 0.23799056458000303 -0.2723176199966471
Ni 5.852157057743678 6.2284841113412694 7.751565740751731 1.1290217917425975 1.2942362529011386 -0.2498016982823182
Ni 2.424127597701619 2.7289637688016843 5.289736793263426 0.5667130457289401 0.31876974081159937 0.6444912303506837
Ni 8.193645918014727 6.959034713065768 8.722369090945737 0.05185349433618167 -0.7450231637291749 0.7641064056128711
Ni 8.936772178752362 7.826947389367513 11.145135698476137 -0.14617107137384502 -1.2207078446946849 0.07544825093698618
Ni 1.5534599917325123 5.071267209605609 5.939443480506756 0.29438976930533817 1.3997764381274989 -0.4178747119355771
P 7.614524922092506 5.499178261891725 10.940757442778017 1.4623871709801848 -0.4775813837675904 -0.8400606496519983
Ni 4.332204698942089 5.218193741001435 13.295982510506793 1.2246300625672262 -1.4277083886510766 0.14969811069049702
P 2.337269516162568 1.228707784233187 10.369857303424643 -0.04268776867651358 -0.18096221091110123 0.3558368208672259
Ni 6.7786280065097895 8.728633123717636 8.323095578314787 -0.5148793488871004 0.47364271083481657 -0.243970950533154
P 3.6009676529483143 4.017346441510594 6.840682568452336 0.588337051756619 -0.37226385607499757 0.8026153603213467
P 5.979158400149987 5.054069492512682 1.4838060340995685 0.441128283146879 -0.9446382138547732 0.23795894001111922
P 0.9922780727140342 3.3917760500340317 1.6332083411599156 -0.20017735038697138 -0.6379027784998885 -1.4644278555592973
Ni 5.18131795485593 7.17224430310288 1.277585361982712 -0.5954345820333488 -0.3367605209620652 -1.1360028510461209
Ni 5.995102212377702 4.735010196153219 5.792412609582001 0.8498159292665493 0.483537087130393 0.4870258170099419
Ni 6.8687535627705945 3.5336045886567007 12.89566468732752 -0.3907292618690368 0.08948904530076845 0.2271680200432023
Ni 1.9243412541271818 6.438316395573543 9.069063718327225 0.0329779975879174 -1.6269251748969915 1.6747104127010706
Ni 0.97479662532314 5.801250350734173 11.450974078209345 0.017036129546680337 -0.6962930455133234 -0.012139206465695223
Ni 1.1048823906460619 6.5247900683218 3.9693191393959455 0.18080048852225636 -0.63549056951397 -0.16987535696932035
Ni 6.09845326155989 0.4534220671094874 6.114539854195615 -0.0019090440972547769 0.15820871926466945 -0.4395959056627526
Ni 4.6453056590442365 2.8300175178293614 12.201309834292429 -0.011806505716624827 0.4510206025599265 -0.8290185329052239
Ni 4.166771630046584 8.17480073467554 3.293798486591736 0.15183212631436432 0.9720286900525842 -0.7968051813974729
Ni 1.8720708111693822 4.232670279897075 3.309820095836637 0.4588876640128291 -0.6396480433257694 1.2599552202310818
Ni 1.4973637660472814 7.588147156971795 6.0055919960712645 -0.5736241710264766 2.793348032995867 -0.2392398636060718
Ni 4.949610979909396 7.768032165883122 11.796771751745647 0.08708814916875969 -0.8129113429307161 0.45938825779833137
Ni 8.481787764486002 3.2609946878515768 11.099148508729776 -0.3987924984931454 0.8027745116070304 -0.29306719383917273
Ni 9.016262425134517 2.433655444159169 13.293397819018212 0.18167517781772582 -0.2909185229272861 1.10033805065466
Ni 2.112902918602158 4.528683353989381 13.19248776565757 -0.6044537548128235 -1.6411480033645929 0.21382425174644465
Ni 3.806342625725423 2.32948066185385 0.8840523539609617 0.6177443012741426 -0.10269088870302313 1.0871583187395921
Ni 3.7810540188452966 2.6134214693971556 9.367132464191254 0.06279662361124669 -0.3646618753580236 0.4685622109881156
Ni 1.2370091835962975 1.0248429888484856 1.6605498740346896 0.8563568157088607 0.4557851138281053 -0.1494317444029878
Ni 1.0308013251058008 1.956137352680044 8.615617854483068 1.7477431122180287 -0.3059440498018408 0.14603300313408396
Ni 8.341423640304455 0.8406068385289737 6.924834229052388 0.9876334864693765 1.1715910325633758 1.6220143678589356
Ni 8.838802852641297 4.61208175641128 8.979955930103 0.7457441010555995 -0.05224918711270356 1.7605194380470905
Ni 2.4871706393919224 8.69476853976669 8.37705375891598 -0.1579644644643473 0.40556092756523054 -0.47050879319152517
Ni 2.709862312935299 6.750026161956626 13.24775842770162 -0.5989022288669751 1.2580960555351557 -0.6143987818406773
Ni 2.149769552157405 7.97099085483238 10.73352540943776 0.7964462553961573 1.0371660459818655 0.7881760449675651
Ni 6.281880322900682 1.2065402106307022 12.872771313317653 0.09628601361794385 -0.7919041445514298 -0.7031056975597827
P 6.769585247335861 8.079311760524126 13.110143741633278 0.01601231626785629 1.0086501979303597 0.014021253979756497
Ni 6.334480259107734 3.6300362796045866 3.7068292576380006 -0.8943546351088727 0.49293164097141556 0.366884079820323
P 3.61865960991512 6.005609385992753 11.099229051524038 -0.5658162449462836 -0.001740379729874422 0.3445735892485808
Ni 6.813169882139756 5.924252011198166 12.952127931882055 -0.6757720427418362 0.8351313306711811 -0.4239337736454635
P 2.1954684353106697 7.838607789354947 1.701928734586644 -0.9794139267730615 0.5869859370453633 0.832985745083088
P 7.2010932675929835 2.8565051140331565 6.706162373149892 0.14653462536085088 1.0810640329163963 -0.6589413443377427
P 5.142300462590285 1.1166983846678653 3.441754684391475 0.05822417374921586 0.8082249931986404 0.4624769240259841
Ni 0.2517795206391887 0.960500279341686 11.431027838262239 0.26177686836632336 0.5743085986880109 -0.9024980901516134
