# total energy = -340891.57487871853 ev
CRYSTAL
PRIMVEC
9.07910039143585 0.00000000000000 0.00000000000000

0.00000000000000 9.07910039143585 0.00000000000000

0.00000000000000 0.00000000000000 13.28818115239601

PRIMCOORD
 96 1
Ni 6.610965000159443 1.8875177032242552 11.218108115071452 0.31667583439704816 0.08603091154883893 0.6634978533601734
Ni 4.588268573416783 0.5050376617586291 6.167708799734553 -0.06790669114430241 -0.9936071875543081 -0.32727932094450735
Ni 2.571764093039866 1.6478385359086272 4.849269099743132 1.0608381927878245 -1.3636982043477028 -1.184267856700096
Ni 3.5315793334317838 4.632538266201775 4.707829428697136 -0.6953239967318348 -0.6383514360015329 0.15655755681449166
Ni 5.353818305908686 4.428839573149257 2.8456505863411405 -0.7000820802421104 1.7006309892215743 0.29153173103125274
Ni 7.316583591947136 6.153841382023357 2.7825054441508987 0.27129483515908764 -0.3060520361346149 -0.13898278115552193
Ni 5.297555121702658 4.406368800047769 11.656060305134368 -0.6756969665295266 0.37296730989992544 0.22310104906268027
Ni 5.717045869331404 8.241989042417988 12.485601351959161 0.1937033126268535 -1.7436296042702875 0.8496449509063239
Ni 1.7086140329354393 6.77558724576598 0.10582054497255844 0.33304501978369094 -0.8858910777225517 0.2707068238661015
Ni 2.973950075605406 1.7412533983091159 0.2953830789466861 0.7614576551361143 -0.8845175944137927 0.11297067336247642
Ni 0.8043401882802294 -0.1172338818880657 4.582734861818659 -0.7680034266744322 0.6574801864111838 -0.06380372471952238
Ni 8.716154131710233 2.185802462608612 1.5849476085251901 -0.10559237862053428 0.7932876551625176 -0.20735844151644287
Ni 6.8058115704750115 1.1556060371327612 4.953807675761375 -0.076491604599836 -1.6155948374858369 1.0575368963287335
Ni 0.8897082441353243 7.537886660370881 2.3198771675374656 -0.5966573986968563 -0.26567363231756824 0.5433805416505867
Ni 7.712577628146932 3.9454955135113123 4.2353821051708715 0.10361108652444737 -0.5558200529655202 -1.23008825746832
Ni 7.618009720015579 3.9198561344250087 12.63836266100821 -0.1663891981929328 -1.0501370043202365 0.46965801515545574
Ni 7.8854890922753516 8.85721611218612 7.051944162243383 -0.15988019342982143 -1.176187907905439 -1.5771889840141289
Ni 6.863245958612391 0.8120910161577001 0.614251066492006 0.26185245879926516 -0.15511131128626837 -0.9095557683293432
Ni 1.8040626137903655 6.527328328720693 9.314416902674271 1.2700781675976964 -0.7320617184725005 0.3164814589980549
Ni 0.2225341944166988 4.745990702838621 1.452716868855695 -1.1175022211387724 -0.22251638020380388 0.022774831802670453
Ni 6.1582175083404955 2.222518343991407 7.184028728398964 0.7006119846036516 -0.5629242681104693 -0.935886435804072
Ni 3.5176338354584966 4.257943669274789 0.34729737413630546 0.03193670080759661 -0.1941547983419753 0.5412539822258872
Ni 5.959902721732091 5.540184996597269 5.007013019005552 -0.09025189160872198 1.9750386589780309 -1.503190835260108
Ni 5.268338577120602 2.956981237251191 9.320290172621483 -0.5311420906028658 -0.09158012350184228 0.2900572033682553
P 0.08634587495126893 5.436674174726536 12.48690329493401 0.4602940574420524 1.0992255343167714 0.11468637050200249
P 3.869221992369656 6.157164332712305 12.729107360027225 0.03333666647891678 -1.0117509483428704 -2.597104727555979
P 2.424092527587057 8.72382597141559 1.2642955777821157 0.28210683817292703 -0.6442585455145873 -1.9204549101948796
P 6.210231673632788 7.921061007027524 5.66420641382702 0.6594815331119287 -0.13703414206958334 1.0326694436630925
P 4.9684195796925 1.17381871222027 12.549026130436888 -0.6527454999396758 1.2991298335480144 0.8388026088751811
P 3.9280364037439743 6.2032044500446855 8.23746311094684 0.46954000152035263 -0.4683326114758128 -0.034819935892662614
P 4.484830384347994 0.9474404267606744 3.8856497163493864 0.5635071371971327 1.6142768900053617 0.49600102392535866
P 0.24780405412311143 5.55933281900981 3.552302379736489 0.16444081621731033 0.8043917354954792 0.06976148496485404
Ni 1.672442897567226 1.1367759832287265 2.482046240258337 -0.7966282894999764 1.0385706396388759 0.7969864441703436
Ni 1.7450030667094854 6.783758435984703 4.782934469637515 0.7993809125444491 -1.584972998834922 -1.24348833292431
Ni 5.871445048064294 5.5798152691580745 9.290019544501213 -0.10905539746847025 -0.04225068113909498 -0.17100227148491196
Ni 8.950957822195356 1.8859197815814825 10.124862785867936 -0.13038372663260125 0.661655400834796 -0.559780580275165
Ni 2.4349602105779584 5.236480014367825 6.9337596985598715 -0.7218456971714471 0.5648538810330144 0.4870777532937999
Ni 0.6841074795818923 8.752470532682334 8.971807975903463 -0.9949863272900219 0.6006176688961848 0.6783724564791607
Ni 1.8112623402830847 1.2949974631639305 11.592183387464537 -1.918588289299786 -0.7943263808396771 -0.2657119417546714
Ni 4.1012565572806565 7.0550056348453305 1.2099907554985077 0.23731153623510742 1.5141195663574698 2.297290701911276
Ni 5.475205876157936 7.81841269967988 8.100182575722174 -0.1100370446554492 0.21987045794052454 -0.23216213082368403
Ni 5.343994719445733 3.014134173281036 4.88551922328346 -0.8920930927682057 -0.38934369437541977 0.5022485474969672
Ni 0.7934207544179426 7.407810391189055 6.996027799666638 -0.6177746402914457 -0.6836830700587968 0.18646180057309178
Ni 4.801881643934685 4.371060179202643 7.0739364667620634 0.5565960118995962 1.2859678422447596 0.01344815508510587
Ni 7.928260733520244 7.207380174224026 9.2925444422788 1.145702337722072 -0.2488645311800295 -0.5907770286566792
Ni 4.661155590167791 0.16002277342342017 10.576913910698245 -0.4008918042243354 1.3344609047491405 -1.5305052068043448
Ni 8.198282253848063 7.199599385315753 5.1349384493398045 -0.16345196994147979 -0.005151462293952419 -0.9839488385289378
Ni 7.20225956168696 6.222552012662573 7.199987970806155 0.31522136133870876 -0.7694221613988297 -0.5291564276314048
Ni 2.2660344714562277 5.661509013144817 2.250486512290047 1.0993823716096098 -1.1267345383703178 1.2473298181575871
Ni 2.17721363377871 5.051920064627605 11.643183417259683 0.19790706629555593 0.9307881953455583 -1.2447049789402305
Ni 1.162633260720863 3.420986813371491 3.660149379883291 -0.14122041223678905 0.23734316080399123 -0.08224830457795512
Ni 3.7302028094484507 2.8468426722030498 2.702444122387852 -0.12674253033558816 -0.913040384443834 0.5044057030492861
Ni 1.3279909134470849 3.152880983194951 8.096116954633347 -1.5071045684922175 0.6702696248663682 -0.13033153323842717
Ni 3.5597427023856487 2.442541259280885 7.212332823406597 0.3311632293799458 -0.08823023319300288 0.49002706573011096
Ni 4.201353637460012 6.864035840333534 5.748121813643231 -0.43684328261827987 1.1301502489200859 0.9477747026012256
Ni 0.5259377505180736 7.347298188069291 11.248378743191722 0.9240927856032537 -1.0661878871355122 -0.08741390793929461
P 0.30804206841553644 5.541192776724245 8.187818590817976 -1.1127616211299933 0.03215730145883494 -1.8948624064377562
P 8.475249285861796 1.624605118386725 7.826060933724604 0.695472606494557 0.5147122271816168 0.6660992955387625
P 1.6554649801127685 3.340582301619258 10.224670242749538 0.20942046625179417 -0.9661133530094135 1.402765859773126
P 4.041388970278147 6.346636075684002 3.5511865583166213 -0.16176172672325045 -0.4191147549902653 -0.6827803557388693
P 6.91476985249156 3.8908484091485422 10.310352435473042 0.569398048760271 0.36596311066795034 0.9467981976205694
P 6.2473833518272475 7.753814901450754 10.359159862559498 -0.012708962926236179 -0.2794750569770348 0.22085801866477447
P 2.486574895459558 8.323746340106432 5.964731895151356 -0.028835436174453565 1.7888925898731447 -0.606120086771653
P 7.030655487993537 3.901352928129723 1.7493229026051167 2.00455775148307 0.8094892046230445 -0.6094851465891439
Ni 5.531405506662263 2.853579364583375 0.7250333397473779 -1.5098407364764577 -0.11140744264041458 -1.421820562411732
Ni 1.5430203236028985 1.025448056048749 6.9543565453711995 -0.5482820927172621 -1.2992910417162267 0.05595003300305849
Ni 6.877763439900988 0.5207617554695247 8.975063741250613 -0.05717979164510153 0.7284395483388809 2.009268269584862
Ni 2.4780859367323296 1.237726498830926 9.237837415854424 1.2265442488708038 0.9325887388894067 0.296474933969141
Ni 6.350086133776351 2.0888195138126147 2.845730482423279 0.4428462942792502 -0.48731635166716714 -0.35345546511924286
Ni 4.166544367128252 6.80442246813783 10.599529949403621 -0.5158111166727505 -0.26462205112460235 0.02962553617591672
Ni 8.158579348485313 7.019615302098018 0.4822482122386109 0.3329720004539104 -0.3996710444433568 -0.3355888692514672
Ni 7.644502534524728 3.7291950293214753 8.21796937481504 1.3152123409321734 0.651558164499794 0.097863899628025
Ni 3.185220738260607 8.470582628336881 12.398032522205156 0.2752733601908614 -0.12348777084371634 0.8880945131317737
Ni -0.11110912086412075 4.850963259848481 10.208299717101339 0.260388472659229 -0.5465491691865555 0.401700930389192
Ni 9.069131390958574 2.468598276978368 5.799440519856908 -0.737471319523846 -0.10884842366398674 -0.25774126484436904
Ni 3.4752707537245398 2.8847751530184103 11.405631483130996 0.9128969168874344 -0.10571733423417276 -0.14018965697942953
Ni 1.0075077539685304 3.3960102086029282 12.8140450665308 0.042468196466539765 -0.952105982986728 -0.006884642934975241
Ni 2.992435123700205 8.24415894737607 8.026871564989817 1.090513094144438 0.10423483615137533 0.2780763768572953
Ni 5.557898321171412 8.083685850580597 3.4371603225444165 0.5179659582322241 -0.6828029814466885 1.068929197326075
Ni 2.995167932873356 8.378783845779651 3.309262129510893 0.7120752480482446 -0.6615787819605896 1.1723333100460391
Ni 3.314171199012297 4.338130282621189 9.273502845339102 0.48335325325436107 0.42604902021625335 -0.12336692899513592
Ni 7.182911999069073 6.061052977539638 11.502674353988597 0.02176053160554317 0.5028782106611662 0.1143205025221515
Ni 0.5064966731676832 -0.2552207711116389 0.025510455862852815 0.3572820379541847 1.49692068598068 0.7462344104284566
Ni 4.592553908731491 0.4870383455268312 1.787898183717683 0.21217566039942815 0.13675543448689997 -1.4695723758747143
Ni 5.97016210500671 5.600906019022623 0.5600551934113145 -0.005545355298261417 -0.16844608072196152 -0.2976743535938809
Ni 7.985440906850818 8.820736287409643 11.544174013289442 -0.9410106444045148 0.917837034501529 -0.5138020566625215
Ni 9.39478055847541 5.091287043281363 5.705440055490745 -0.44191864025865824 -1.0126233236454947 1.0136517649100092
Ni 8.056484866252491 8.75809957483301 2.420641561584683 -0.6925500335311234 0.027047748146411484 0.30412319454301817
P 8.464753845980859 1.3604033013146855 3.644469773763586 1.0540435384634943 1.2288006490051484 0.4992946070749659
P 1.9736874436308094 3.1636306378826924 1.5483524791756276 -1.3268126441752632 1.1489840937971374 0.2519485694219919
P 4.7778401864911535 1.0293883855542216 8.473314529600007 -0.8581280486766706 -0.9027012073013551 -0.6134796124605176
P 8.670086777077122 1.6730693554839948 12.564931806152645 -0.49837672324638693 -0.5118107372641056 -0.4927791745539513
P 6.339173055284234 7.73270599338572 1.3816384088730977 -0.42240396726449836 0.1473082703020818 -0.16990723864852028
P 2.0501516258775694 3.308542156861621 5.932162438849551 -0.8299623848757319 1.5534343047966923 -0.1621741316703207
P 6.8389956818632704 4.171383527557785 6.189116410197584 0.8497778769397623 -1.068860805981985 1.233266912306618
P 2.4291495864224224 8.408163814166082 10.36350511993581 -0.9582935998546787 0.37845841492148374 0.22272001157417773
