# total energy = -340859.34700902516 ev
CRYSTAL
PRIMVEC
9.39583079406976 0.00000000000000 0.00000000000000
0.00000000000000 9.39583079406976 0.00000000000000
0.00000000000000 0.00000000000000 13.75174811224793
PRIMCOORD
 96 1
Ni 8.421915349102896 2.3373350558700365 8.058840715968405 -0.15775697643923153 0.3656638342599767 1.4218637569448416
Ni -0.048778455568349366 -0.24689048744819206 3.867803142283846 -0.6911426116606355 2.2546335293623816 0.8838966730003422
Ni 3.1953247406777785 3.1453013375291907 3.987291801660483 1.2505917767383108 -0.29055368338869964 -0.30523776776343564
Ni 6.409788788683444 9.514500137181473 1.2283667576355244 -0.7753228431539808 -1.0249659043712476 -0.2995332611794906
Ni 8.69740110799031 5.40573151834829 7.9790391062836 0.5668053483324302 0.7598658851689623 3.042090693886051
Ni 1.3118271038316096 3.6026621931009024 11.356908866381307 1.2249905312304386 0.5540915003101877 -0.8283014522335412
Ni 1.884953990619277 -0.010866278313550234 8.49521128554576 -0.8444122417524749 -0.044954967444135484 1.553202134181228
Ni 7.329396331839877 4.713644017874622 11.566856826312668 -2.7768554346574823 -0.11255646864319324 1.982876409854895
Ni 1.4886566393793965 3.52563517224964 5.50188187361509 -0.5804581632291744 -0.03260878717395675 -0.014795927362251937
Ni 2.7556186511684624 7.350640305265677 9.940547507465189 1.1533680817974459 -2.2660533411635493 -1.6692190505691962
Ni 6.554324853791393 3.831939256142193 9.118179296364607 -0.8132972655152251 0.82925456017543 -0.8042978902300921
Ni 0.6742062948891304 7.3790439017566944 2.9458992580812975 2.1706751840718552 -0.9868302738417908 -0.09094171858689498
Ni 4.893846656677545 4.80965061693027 10.78262159449055 -0.5687066791202012 0.25722010223357633 0.09252706079614387
Ni 4.8682712052555965 0.9636176145967013 12.71386226635154 0.815696361875021 -0.524198055184865 -2.6217610926520782
Ni 3.47746274776752 0.5258611599771922 6.908548614317701 -0.5853689702672306 2.1762704187714457 -0.7219518837320082
Ni 7.243828500796642 6.874553558921025 10.106613179255081 0.5372741716425328 -0.3419261243234047 -1.576933159249581
Ni 4.3227210818490525 4.929569605357283 5.7762842932119245 0.40416996075497497 -0.38854073885815016 -0.8589238051050884
Ni 5.983058341500986 6.384814670432326 1.0085353232916934 0.6701420981495685 0.5440981365429017 3.9578376786277714
Ni 7.399874458627547 3.0734044402915885 1.9218204119066762 -0.05387052476621045 0.23307332978404374 -0.5328325909314113
Ni 8.566921205750557 1.4257797397042749 5.559240601864747 0.6848014999339561 -0.3400970415344659 0.6022145810696596
Ni 2.780545790265607 5.284130676209105 13.667105944168311 0.1878085444089733 0.2977550862331453 -0.1163367616212319
Ni 7.70505104282479 6.885302389349647 12.368184953515684 -0.19747717784698893 1.3486729345834645 1.7537510089750057
Ni 7.724932620785423 3.1300894874732994 4.372176037234588 0.17995022470681915 2.1069827881192165 -0.6998082577554335
Ni 7.644504309186644 5.594756842267013 4.249633732849819 -0.6150721537586181 -0.03139111271677174 -0.24861899082812666
P 1.126588299722969 1.6853207737338454 9.77903317611203 0.020629246214577374 0.5783863683018102 0.18268716402200796
P 5.507065553464278 5.448040944414799 13.01414550187114 -1.3887083532387954 0.04501590258905796 -1.5616263536891817
P 5.57668865964967 7.808104514976126 10.863853249622238 -1.4736714856447524 0.5047278622753952 -0.2732763843654907
P 1.7807354354494551 8.939700792512431 1.730162376199404 -2.535239871730382 2.787362247726077 -0.19834621071550357
P 7.656690701726785 8.680920820777194 5.249949583362703 0.07314505672510628 0.39404187118203754 0.4598718823029693
P 9.267887766324792 7.7113744369493205 9.354090755529718 -0.15881884204484262 0.12207417832564138 -0.7223812579599429
P 5.487503433750649 2.1242188217948557 1.0102951623994563 1.9628701419362968 2.5154243796663516 -0.823902037614265
P 3.1407819429171564 8.820129449824803 12.649944308624416 -0.2423061612362214 -0.0981390076662826 -0.4844439152153786
Ni 5.494202661106948 2.3955234359788276 5.130089788669693 0.1932453991538285 0.019425969935095575 -0.8668227482371911
Ni 3.012246977651815 5.49393957784471 7.676239667277303 -0.686910832967475 0.3804595045119125 1.4800023129587865
Ni 1.1851619088943242 3.8738916406385204 8.764140633704947 0.4814244116627644 0.8534273007668916 1.4144461243245319
Ni 9.213993280888973 3.463209272452642 13.126249977826575 -0.3060438086044987 0.5306672078489764 0.9283237929654657
Ni 9.230398401455734 5.89067853313192 10.8279339280789 0.8228440286633958 -0.006648872775085323 -2.8622798229705735
Ni 2.849492396633815 2.91113844247489 -0.1976910986602603 -0.9525775233065078 0.4481831331111314 1.313031788341087
Ni 7.405634102904423 1.1834800551821534 3.3771406436280738 2.078794498610459 -1.9694483093744468 0.21027175850849592
Ni 7.559227748898029 7.452397152767405 7.656038631069665 -0.6673583647568442 0.2015230657815884 -0.6495141374865716
Ni 3.450524900880405 2.456746669434161 9.525918890345727 -0.3146618892908129 0.24674439951323313 -0.6674336980794698
Ni 5.192126701071808 3.161650083111186 7.2170409872022345 -0.48106214322733926 -0.551850783905127 0.9611254128765189
Ni 6.774760440055294 1.0459438840159205 7.168414744092752 -0.7783420895962789 -0.5631993761487268 -1.6440186400441688
Ni 7.739599512655248 1.555470392157309 -0.05856421334056084 -1.9840331491671572 1.6074719512683862 -1.046715123122881
Ni 6.751562133824291 0.0778623102088711 11.609184104457684 0.4477460455737128 -0.544036687177347 -0.4236797486531284
Ni 8.709315021437417 2.154097563720571 11.3861035918252 -0.5047468884387888 -0.6285851006433884 -0.7301896982607682
Ni 8.475001793090408 8.40620552001491 1.4567089355127874 0.5053557256673812 -0.11940383058232984 -0.485626365559254
Ni 7.331378852137464 4.8340421936721425 0.16733129019787937 2.1173361063290828 -1.154709940537321 0.8763278595141488
Ni 0.967967884254439 8.280545678972608 13.206284604115078 -0.13605840841987535 0.5055303035720325 0.4607522280253936
Ni 8.713317645355767 0.5003900022770597 9.689508760721335 0.8485321774581194 -1.0779913075283436 0.08066501925123527
Ni 0.8301442006659021 4.27452046987455 1.2367525366193926 -0.22346923103537641 -2.2591486436239157 1.4308775304076777
Ni 1.0148624757485412 7.06632246543167 7.334110220149352 0.4916196070282114 0.33135940455115187 2.2430342545605564
Ni 3.363453736910089 0.29267167299317565 3.48169462995725 -2.5117767556114354 -0.01756243436379556 -0.17652962906104439
Ni 2.728737179266113 5.17663297609209 2.6021612447213722 -0.9262784804006629 -1.0395975382414937 0.043053122435732304
Ni 4.9746977806620665 7.778319731358353 13.522437397846163 -1.5099862609153867 1.5651325670702272 -2.056441070615923
Ni 1.9098341505624514 8.669091469807233 5.299180917975335 0.9853017530124062 -3.568339203842042 0.6765924817606025
P 6.093966728196315 5.199812490661506 7.245507535759574 0.009883577662299107 1.349301826416715 -0.25831462084933576
P 4.83056573627827 8.405914249260288 2.4925316305971417 -1.1707687937723965 0.5453307233984221 -1.0446171029432718
P 3.0424263861629464 3.314548437626018 7.162790399779314 -0.7439664403298865 0.6407677587525094 -0.4286268082457586
P 1.8033793876635977 1.1938906357021828 5.164757585551237 -0.3956272133912864 3.5160951589356606 -0.0367847729285173
P 2.7667151273364716 5.076163357409174 10.116033439209398 0.1693138280388955 0.20094688156314428 -0.7291807973802796
P 8.162148815134264 8.98718732134657 13.046750913893346 1.198710514487987 -0.7076413806466071 1.5522186872220365
P 8.349868118572585 3.945224788028467 10.120200490166647 3.576954970535511 -1.8890203458346821 -2.654720064076602
P 9.598874697713839 2.6936813345727657 3.025137117918447 -0.3490105419740119 0.6450722996651341 -0.4450870106843109
Ni 5.0011188568554985 9.189939954055694 5.086468704624307 1.0749715468654133 1.2407063993037988 -2.2911169690003965
Ni 4.522730131966254 4.317994978959545 1.5738740059340068 1.6720606337830495 -1.1318680029421408 -0.5821211527538942
Ni 1.6797114627496779 1.1318405691369549 12.231616552921258 0.4604161848422135 1.3218303604693236 -0.1159076445036133
Ni 4.108787410494772 -0.06247569770020716 9.973235602798384 0.8068443108010298 0.3573997944789716 0.13382900486872434
Ni 5.154862836141813 6.431549532802927 8.802136433853814 -0.2438017719451414 0.40717738012273097 -0.04432530427993656
Ni 5.235422689371712 3.3029727740875017 12.666102318841288 0.20061443792439002 0.7920221581865328 1.7951264865979986
Ni 6.084298418309032 2.1604209578451012 10.813109186251731 0.16307376066645463 0.31257209664131974 -0.4490313400440396
Ni 9.459910360266882 7.113564702665159 5.336599814113436 -1.9092880949447826 2.061261631933018 -1.9910003245136096
Ni 2.2384251450989656 2.142935316737002 2.0156208698918334 -1.0179272523569114 0.022299177717832564 0.4639203413407301
Ni 4.698920751020032 6.441321196828947 3.7998835002214504 0.9965230756495225 -0.5912732515668075 -1.2569511432974352
Ni 9.197559972829831 9.26290797600384 7.293803045625099 -0.5304008415614673 -0.24191741043823498 -0.4585385082035264
Ni 1.132300964845873 2.099695703421863 7.357886369974203 1.5977467535608225 -2.1350952300847164 -1.3535973684682752
Ni 2.9605980957758224 7.297159236384806 1.614702649067341 2.180228117867613 -0.3679266621522244 -0.3496975407387074
Ni 0.811345961995846 6.416365870239419 0.8191294682258027 -0.4768123668120498 0.3229382703669922 -0.2836507856212792
Ni 0.5946461580557384 5.159635918185291 3.818764422202496 0.10758446934989858 -1.0321508521554612 -0.31127806042024453
Ni 6.099444497549363 7.080622919900518 5.501098261326849 1.1952320690210836 -0.8574801306800265 0.7180296658594666
Ni 5.308775940382423 1.3221813093668735 3.029207391818516 -1.4629448432558676 0.8503746299834969 -0.6584384365593949
Ni 0.43927763962509814 1.232112875373192 0.4269211825475798 1.7192360059172715 -0.3537663114914424 1.3782748166102974
Ni 1.4422130477634183 8.721510809808354 10.951534203011102 -1.3091573929873455 -0.0017496357012550512 -0.8671593056410033
Ni 5.05077582260311 8.394385564875742 7.034019599161037 1.2243644676106658 -1.5471834387909742 3.3970685091870916
Ni 3.941071830817408 0.8471412585727005 0.8335389143318648 -3.1075535514755512 -2.391192531567759 3.040485039961828
Ni 6.631971999475075 9.18648228832341 9.12227681817398 -1.3901821095708446 -0.7058732330025907 0.5333732939262298
Ni 6.650763661063576 7.845377775736916 3.076320906170124 2.7512755293058486 -0.4245770636564172 1.3802273123509778
Ni 7.7881101870459615 4.022843746219767 6.601499441043163 -1.259560041675192 -1.5248994305817931 -2.0255623787591954
P 0.9103751998180037 5.909376236412478 12.470415350889441 1.5368666302459983 -0.35171662805126525 2.8010176337259827
P 0.1966547385236545 5.255557954763791 6.0548124221105155 0.3913401559801583 -2.1001806775957186 0.05792412601029379
P 8.41323360144901 6.165478396371353 2.1677431287830604 -1.3572653042381657 -0.4682655056833033 -0.1813447910615006
P 3.477547310244668 2.3997797473286226 11.683719350982312 0.7592961287084213 -0.05771946619865543 -0.9717561531174876
P 2.688598190113076 6.7653458175994565 3.9559238205538794 -2.364964965329798 0.8105461851326492 1.0622440719964157
P 5.317701979636961 4.251519476090226 3.718211180625511 0.17151726344811752 -0.6584921726154659 0.32836484069920224
P 5.503814596009466 1.684155690715358 8.80765084694696 -0.09368765676314833 -0.46072934520725817 0.19158858027669584
P 3.0805264800336305 7.806131390509333 7.7056542551617815 0.7855386073447181 -0.777126472021623 -0.03348681890353587
