# total energy = -340858.3771161191 ev
CRYSTAL
PRIMVEC
9.33979112286168 0.00000000000000 0.00000000000000

0.00000000000000 9.33979112286168 0.00000000000000

0.00000000000000 0.00000000000000 13.66972838886458

PRIMCOORD
 96 1
Ni 7.825567983911099 8.882159852000925 13.698161401344937 -1.3547497369051638 -0.6490019737368435 0.406453614582829
Ni 7.731217415957599 1.888029396281117 3.707244146984667 -1.6162077884794874 1.581602282590476 0.48204456174526655
Ni 8.198580553988988 9.239920543493577 9.965942653419104 -1.3499803405409783 0.6114512691765792 -0.588644812805025
Ni 5.192260630748434 5.43485236030933 6.971601946022655 -1.734037075485846 0.5492909935977508 0.47478196664558237
Ni 7.738577171208774 7.183476037200829 3.995087163591169 0.8560120307749323 -1.1891511529343262 0.6524274544786247
Ni 2.5100034333327215 2.9934683709237837 1.611989073470184 -0.3212937927850337 0.008209018173353604 0.40263218395420985
Ni 1.45824957694354 7.675402825372556 13.570676991095672 -0.4708821173705439 0.23501682666365975 -0.9278651081614925
Ni 0.6246003862605254 3.270878841063838 11.409274716292625 -0.9197589341145902 -1.2082552207536288 0.12943653222798354
Ni 2.3622105816898618 5.6293815257553295 1.3182918759100835 0.386738909762721 1.427883223666044 -2.9427543234775575
Ni 7.716628662528243 2.184763893850966 11.024512689227455 0.45581159619066663 -0.06684045466331714 1.2871099262690027
Ni 3.71247349592519 2.1015556964744344 4.935140856399212 -0.6532782325146943 -0.9743066874534831 -0.6298074030862638
Ni 9.230160461973936 2.5514627652616046 8.028477743756689 -0.32570709136138104 1.6747955162157093 -1.633709801918993
Ni 0.6477593318453102 5.41144684424405 11.82175817681085 3.383692859211134 2.9197614621268104 0.04344907232257034
Ni 5.171395537815538 0.3871221922326459 9.857022011618103 0.7491819230925549 -1.4326114823796487 0.19089901040883897
Ni 8.769876885465886 5.912330491915618 0.5134867615496578 0.2176114867030188 -0.371692814062876 -1.4548109012948236
Ni 7.288408588275622 4.371003474668538 4.0618778764746635 0.25072086766247786 0.707081394378079 -0.4161047645193479
Ni 7.9973640982386245 4.881890038423872 12.074990730175887 -2.290949847294913 -1.6523677833398123 -1.0659181784138934
Ni 3.9120368086813184 0.7944566260123287 2.9230248658083933 0.16952208739495966 -0.5054482853811876 -0.0037481541885225774
Ni 9.193333666345286 2.3269248515643106 5.309473138935211 -0.024038014785810215 -0.24482995609933966 2.6969735734291747
Ni 2.0709118424400423 4.654512828284501 5.226101495217441 1.6738388087293947 -1.214206039020425 0.5933851557034877
Ni 0.5964175671356311 2.1355525354519376 13.526592243936959 1.1484169084397577 1.7430279661305468 0.1307781338575425
Ni 5.5006792067690675 7.453844304981257 5.8211853402085705 0.5471022134765482 1.2252895505280963 -0.21931741365053198
Ni 1.7461486322956092 0.5136455379954318 5.640239032708996 1.5380367392946996 -1.6113044376405992 -1.1814800095423137
Ni 8.476429994302652 1.2973249792560735 1.6742406479627263 -0.05681726609936021 0.2687486716984662 -0.6764248458344867
P 6.537480057882704 4.385666946425318 9.721062675080876 0.25735842758365357 0.8281124761511868 0.26891039408731104
P 4.616257044643882 2.2956272121649666 1.5580349692379754 -0.048567624496058295 1.9118311730816107 -0.8722261786409495
P 3.1128589183549433 9.04450409790943 11.919661601233317 -1.5367892400408436 1.9696257154925758 0.6322054710047951
P 0.5804810818753802 1.1663904502380473 9.337927639595343 1.3159790438948689 -1.2978162569429132 2.3896357286036007
P 0.629557947285047 4.727493954594998 7.097131538030714 0.2243686029211942 -0.4816702091249833 1.4314012641216314
P 3.842025735885889 9.14573809177678 5.0227779826337455 0.7007893907217801 -1.355300210091995 0.040042874854498776
P 7.764411032915305 5.672858252524636 2.370890983378238 -0.6475027634834978 -0.29193102335220045 0.6293276352363678
P 6.956789971590122 5.708937864879058 5.976637754391388 1.6753035662003792 1.5824744007827845 -2.6815628953010595
Ni 6.210157745024031 0.8512248092511093 1.93385601444788 -1.6720081832785592 -0.11098783860449273 -0.8808673992557151
Ni 0.2604615515432201 0.4158887482905331 3.8376117506933705 -2.1357495758392635 -2.6807730524099123 -0.0861952050408451
Ni 9.135268186146622 0.3348529862838277 12.174902209647849 1.8123515922270337 0.643110290842757 -1.3238661599524297
Ni 1.9519415856006375 3.8146788280490407 9.523521427060633 -0.8468619888445479 -1.3944341999789793 -0.619522476220488
Ni 6.15000015165752 3.8699984097149063 1.318426368899445 0.27955090452029274 -0.14665366743721842 0.36838611828714624
Ni 5.354287323765391 2.3830102960862627 10.424930800925457 -0.9980760219589393 2.5931632264097275 1.5939677461343644
Ni 8.57445110009081 3.7135942708365364 1.908157579709803 0.3227948028105924 -0.15930452343200951 -1.341118262164658
Ni 7.881233137841296 6.5518072971660795 10.275083195278462 1.7831073506499355 0.5729471995641101 -0.4575967131155474
Ni 6.290657403031475 6.148300309708644 12.661134527290844 -0.6392281821795314 0.7905640855837675 2.9414124647376827
Ni 3.4207171069199043 7.0042174299219235 3.9160220974702473 1.4852674180124676 1.8225424167171063 -0.9189667772305979
Ni 9.158804459284893 7.722615468513017 1.8348878538596345 -1.1381846891887881 2.12266985983717 -0.5540814730078587
Ni 6.22195390096595 1.6638650742209382 13.370770908012489 1.271998524548861 -0.9277080137583377 -0.036290864011234276
Ni 5.116729741514624 3.2766881910209826 7.80679500414605 -0.800810445902124 1.3572640186865852 -0.213411075468426
Ni 6.116311525780636 3.0033031707708475 5.574351477608228 0.09819068683982445 -0.5163973281935236 -0.42633569821873674
Ni 4.751926847662346 4.180088808311631 3.800307691748303 -0.28736140170364705 0.38800414962838986 -1.9917778261095826
Ni 3.2629867177297744 6.51969709595601 6.05786311415393 -0.0841303520920164 0.5459680998721049 1.12888680882663
Ni 4.051181013924956 5.696562641899609 9.150885250557138 1.0729704572749843 -0.12119177572068805 1.8420977131412144
Ni 6.627907913646491 0.2157622461414531 7.778293698150514 -0.8265484740981766 0.004930347422081831 -0.23972811609640005
Ni 0.7414944075766615 3.4843677820934436 3.6998759859216586 0.9999282446763296 -0.008986519769326459 -2.0972989851725496
Ni 6.7663796539433205 7.206050311873528 1.2714901835704495 -0.33911950811254504 0.317101351970241 0.5280385119768777
Ni 2.2049938810007657 8.55214767935502 2.278018904328624 0.12537933143947438 1.5686585779456146 -1.7066915935933578
Ni 1.082257613559655 7.118910062516358 3.4272876498376714 -0.4734619622825781 -2.3939402695162255 3.7659508503843657
Ni 7.090638515377648 4.137368604607484 7.288999797041357 3.553489797534035 0.3727726773906161 1.6333711876326515
Ni 4.72068524700857 8.114186203164616 8.295351061771903 0.8654693195330901 -1.5840564005579236 -2.002908131694789
P 2.449593665611158 5.336000013128591 3.2430742834715227 -0.5201326268662397 -2.112511688357246 1.9491149971337334
P 6.173947375596618 9.190597107603413 12.143257130025987 -0.5724265511739497 0.20334649214357237 -0.0138495042885826
P 1.8784561105800346 1.4653104588850214 3.4314158374277968 2.013542471480184 2.156528460257828 -0.26073711424789936
P 6.601933955076041 8.01651066964079 9.065668064152018 1.8254073969697273 -2.620838837948125 2.443958767526197
P 2.9307983737976726 7.167738489487343 8.107843551145487 -1.5094630414220649 -0.9742863757385091 -0.9927029305724839
P 4.19573295811584 4.67438790337904 13.068410120387682 -0.7246571984783132 1.3519721741600264 1.0646938190884891
P 7.99128389434457 3.075583812761753 13.158766993740418 -0.22252615039581677 -0.8479734767411717 0.5909305235154081
P 8.773687520164463 7.328691106547592 12.19106004795309 0.32370805865348123 0.2313118670082468 0.0020594536321900015
Ni 3.2823387645323536 2.5187921765958614 12.861491722275844 0.29869816687270495 0.6092702023648604 0.9317541588032534
Ni 0.21780299045919607 0.2847842350776194 7.349242382505311 -0.8290141620298497 -0.23518960479609818 1.0471537533221966
Ni 4.385807043289236 0.6416268251220607 7.032952230690656 0.25652873259350656 -0.5880696570278453 -2.618304758672362
Ni 5.594609484130811 7.996887768901302 3.4745712753891844 -0.7142082352308474 0.8364935011260304 -0.3971649901920515
Ni 4.03340739178919 7.678951945925153 13.156033236935826 1.162408080512527 -1.408066446050433 0.7025976475751126
Ni 1.9307682795671208 2.4307179481459014 6.581891697723893 0.43027848491656867 2.0349114240742634 1.9236176241935776
Ni 5.888495345467655 0.8582903610880547 4.86113328706574 -0.8216443519283398 -1.4586418450051395 -0.1507527772072565
Ni 8.98187145994703 6.999874427140457 7.996435723020392 -0.14579157654723926 0.12431360917912138 -0.7596666246739626
Ni 7.7722844766675125 9.003829308418489 5.692950010768703 0.702670409794577 -0.7086299698121215 -0.8585952181210761
Ni 5.8625400664790615 3.640454368080265 12.520787356975696 0.37549367586620497 1.1154617936699758 -1.6627128740195622
Ni 9.323577050834647 5.269995710641224 5.080094411599993 -2.3085189665269272 1.507897496707158 0.3904947772607275
Ni 2.8678575227346523 4.635590411864605 7.615884073705514 -0.5648880767050595 -0.7629200986142539 -2.0775539413351383
Ni 0.7907356533066592 8.16000721745682 10.421500295717644 1.2850874965223351 -0.7759802742323216 0.40617773521362305
Ni 4.21216165035799 0.5977671669247105 0.20056360436450507 -0.6406168349969418 -0.8937758797872671 0.4373839856130983
Ni 3.0494137185818175 5.953929920708421 11.812900319094844 -0.20680025502012772 0.2667339552612826 -0.7435026133195904
Ni 1.5183884907281944 6.060889206414564 9.18000204877482 -0.6382640184940491 0.535737166172716 0.8302814587780474
Ni 6.911790858899569 2.4118048715169333 8.870983858176617 2.0865116647490582 -1.370154758606324 -1.1301790452754923
Ni 2.2871933809570857 1.7428797054708491 10.883960977490986 -0.07090614009225853 -1.8681910677941567 -1.0224279684407425
Ni 5.690501117587411 6.51126326474813 10.666652995950967 -2.112395474494355 0.028959620457143672 -1.906818807468684
Ni 4.799223548921159 6.045665347202112 1.4476106210975854 -0.7952686901482885 -1.030687123125741 -0.30161482629886766
Ni 2.4957976113314078 9.178539437515514 8.59619506735002 -1.1469236117236827 1.9444970387457476 -0.3540131373949258
Ni 8.994041207526065 4.523148668883792 9.277616873657616 -1.1563073669314279 0.3292325880161362 0.19817060436958775
Ni 3.578578253183024 3.774125455840162 10.913405602370238 0.960685754235939 0.9219626266341283 1.023860844232527
Ni 3.608297467915556 7.982663267318132 10.255795593033286 -0.5229700963150348 -1.6610455136194684 1.33556005135059
P 0.4554259512464578 8.018481365526572 5.9249111902954805 -0.40229614077102976 -1.0430620997513262 -0.8361721132308697
P 3.8280347290759167 1.9541551160505461 8.402590541205884 -3.5080519769162093 -0.620456557998983 3.6325635610387508
P 4.09886998640274 3.9611921283347797 5.724964012132216 -0.29805976195775763 1.2033143318085857 2.480122619041264
P 1.0047840478128451 4.449896688636386 0.2235488298380312 -0.3181079388578844 -1.577833045356031 -0.7310332772079862
P 0.7017003603702199 0.2837811415319645 0.8348353441308559 1.2758063283307255 -2.1577196523524518 -0.8377901084502668
P 7.447988256069474 9.14860540759164 3.130258014874501 1.436842489741861 -1.111285550805099 1.3945115901841338
P 7.649625002411592 1.569140914630324 6.692070409362879 0.6678342759519982 2.7779232138003644 -0.922709789212798
P 4.297340543620305 8.166862623997888 1.716180045145303 0.019853030170185165 -0.10527921825548965 -0.6996794454870531
