# total energy = -340891.10588983726 ev
CRYSTAL
PRIMVEC
9.08049140261257 0.00000000000000 0.00000000000000
0.00000000000000 9.08049140261257 0.00000000000000
0.00000000000000 0.00000000000000 13.29021703786065
PRIMCOORD
 96 1
Ni 6.535747284510123 1.88829727749944 11.327013207055273 -0.65452110378286 0.6773851528652269 0.6361557139017947
Ni 4.584994386818228 0.07596466732248014 6.13044499693843 -0.6673825331265603 -0.6028105627824457 -1.9316302100854088
Ni 2.631054236627416 1.6592782026413564 4.800732334881679 2.0162156474369732 -0.9945458973184936 -1.979638362533571
Ni 3.4375925676995327 4.435356968215224 4.997121571763669 0.6807921216642469 -1.2881496803874266 -0.28685052350549956
Ni 5.229019162411374 4.627654535649887 2.5385639829152513 0.19260648001824893 -0.11463957642446708 0.08915685877233033
Ni 6.998007862750496 6.387844239774051 2.5550042126853065 1.0276323954598172 -0.6139804633563362 -0.34014229295010456
Ni 4.964395480578208 4.665365816641347 11.210989043652388 -0.12462882642669502 -0.1108474563718865 0.7837799727823985
Ni 5.440058864198643 8.05168084912326 12.533485439153898 1.1180411243613775 -0.10662184832631315 -0.4573776551262058
Ni 1.7342013375945322 6.450971816333798 0.5664319761536976 1.156889207576827 0.3014911562368098 -0.8840766502216324
Ni 2.5199453432463637 1.627078779959989 0.4168172587793184 1.0099156949063446 -1.0825663284935356 -0.3903559376900181
Ni 0.31900946927408896 0.2751906497334217 5.091721223639647 0.16761638573181456 -1.021881609018969 -1.0692901802099197
Ni 8.63432150251504 2.6012066612315743 1.5754625424112874 0.6214477182676588 -0.7997375245529196 -0.46179403902634664
Ni 6.723105064596036 0.8515076488794873 4.950007441875832 0.8787130719168736 -1.584679635964219 -1.4133220380224176
Ni 0.9035906236887141 7.498615356383825 2.6608872832369377 -0.4500456402411669 -0.42567466759597006 0.1592649284433257
Ni 7.614382541878679 4.100432121576884 3.728131972130731 0.3259893984884902 0.0038401996816966122 -0.08233829318860013
Ni 7.810457593756502 3.8166940052416662 12.57703729224594 0.7571708548353026 -0.365158612488784 -0.41357068524358453
Ni 7.9631823794524745 8.543916129639774 7.00681503140776 -0.591548102494749 1.451342740240565 0.17787071646997107
Ni 6.890912546590303 0.9390953452578472 0.45375851409582674 0.6338376072915795 -0.8852228480109334 -0.8471165280575153
Ni 1.7838897868084187 6.507743048878612 9.427056578534156 0.045877736368720994 -0.10388850855555011 -1.8647311342700144
Ni 9.07083888749493 5.052185671915901 1.4965712326945024 -0.0003882365773541701 0.18118409711392022 0.6553682822745035
Ni 6.270896590390709 2.0590014362662266 6.711865232279343 -0.7656038160940041 0.20688047343875987 2.5261109128459207
Ni 3.642157879083019 4.322840598659436 0.579655895852196 -0.4352764523517923 0.3542324524945835 -0.6998018299975303
Ni 5.942954641677347 5.654785245514574 4.909259644543522 -0.19210562912243045 1.0776210686731182 -0.8584463512480377
Ni 5.125864779540439 2.746312914601075 9.096263355505522 0.9407676751557733 0.3692620931341963 0.770326418380654
P 0.05309454155674643 5.6885101907595255 12.472203926505916 1.2177400203156126 -0.8155148419918342 -0.5193679807860733
P 4.049581369457409 6.241366832195614 12.588746585970593 -1.0667121350700983 -0.7372535470860851 -0.12096988951786908
P 2.6225821381046535 8.41832385239612 1.5857089689633614 -1.1766625335490124 0.3800514704402164 -1.1910128887334133
P 6.273484530453932 7.578151380993552 5.9978879827527 -0.8061074326350053 0.6336990248311861 -0.933312761539625
P 4.833282264533013 1.1499534372161186 12.723256813867199 -0.46140374556646346 -0.14490223196375046 -0.7513012834284029
P 3.8968656642528874 5.973855554081378 8.277625269576406 0.22086753174647122 1.425479756430874 0.3239448572546357
P 4.858743962558549 1.1604323243493102 3.805706610587279 -0.9021455919082011 -0.8773056500463858 0.5043141717767443
P 0.137823699226676 5.7456991259110355 3.742644413565971 -0.5821838876710296 -0.7319719869721717 -0.2592816127482954
Ni 1.3987316614691983 0.8838923135864326 2.7123073821703216 0.5360750091281091 0.6161365904673904 -0.532985828679824
Ni 1.9613316702310355 6.351013766453231 4.768822579877564 -0.8029845707353074 0.8232767453254402 -0.16991778017148157
Ni 6.03359610733031 5.601301150874628 9.282113774010753 -0.5267095087528091 -0.24324101434566492 -0.3413296283899864
Ni 8.509800723262476 2.151340953820322 10.088457782565841 0.9733345533482011 0.10979433251702382 -0.07605914504810772
Ni 2.1875630342139982 5.112198639908331 7.038259865249641 0.04886715801434809 0.25710697369447977 1.5396565342863098
Ni 0.6908310768208323 0.09949948506234697 9.189294806508101 -0.9250633770466392 -0.12444190722686957 -1.3682763106366886
Ni 1.4532327711515352 0.993805306243532 11.324979176970494 -0.7141580987192022 2.043460856306171 1.796118675307939
Ni 4.22282806583017 6.83107210793542 1.544030421257437 -0.11925907747434945 0.6219830219458385 0.18503586675984263
Ni 5.463904234746097 7.686962910037778 8.166094133342932 0.2994594705187617 0.172777875328096 -0.10739446482627957
Ni 5.427645832386621 3.0661732259240204 4.603465014476481 0.04678276468149362 0.6216557205134069 0.7096344998172359
Ni 0.9044233047546705 7.423256357841052 7.051748935298476 0.16695432666778343 -0.8178573740820818 0.24618878412007922
Ni 5.198554113596939 4.4713883582884515 7.116791587505009 -1.6473456475348727 0.5831971594268924 1.1420104906927815
Ni 8.192655478883053 7.331434428299601 9.085963354053893 0.12095806244332719 -0.3698570464057178 1.4999643579030104
Ni 4.850725888608282 0.5011060126139276 10.263595945307618 -0.7875234989852309 -0.9137952603319875 1.2447553725621918
Ni 8.193318354758896 7.3950614318890935 4.904594996085705 -0.32818589191917674 -1.2474964256424388 -0.9403588697531289
Ni 7.277623435967457 6.132064956613093 7.301964601348076 0.4633788670149633 -1.5569358901920476 -1.5235578289522342
Ni 2.454810978076187 4.887901420604199 2.6260536099859526 -0.4158365984596258 1.2379406636332033 -0.10971514253965621
Ni 2.34510956086987 5.385984537614452 11.413239737765293 0.5245479823251159 0.12661937449416258 0.9324954078446522
Ni 0.9794581297526802 3.4572699926714794 3.887534551238964 0.040451680257143234 -0.4811642160228424 -0.12846362679175297
Ni 3.753902406865565 2.7927687088587954 2.8338461280307357 -0.6420918768805716 -0.5171264930500642 -0.7833377430386573
Ni 1.1927316324366266 3.219878704696582 8.390074443495463 -0.42062373543562404 -0.13335643610768 -0.5996799875732639
Ni 3.8793039937887692 2.5503468286206497 7.035947064077349 -1.0793195394214636 -0.5369260442744946 -0.18928641450608047
Ni 3.889474144212664 6.493059894204114 6.151496300266747 1.1818366215507838 1.8837063898209365 0.11967328219363263
Ni 0.7252552199074266 7.464318340177528 11.330308517402445 -0.22144937239187026 -0.45719613524301905 0.8105587835381396
P 0.12444722727181921 5.429870552791849 8.269784265209411 0.6451926272930824 0.12621648262878907 -0.43858186257594145
P 8.408653129001971 1.4665810935828973 7.822143278203386 1.4810883469341136 0.543694987567212 -0.31791099235572995
P 1.9765414934096284 2.992221703555984 10.474458577511614 -1.6651759908480739 0.34915992306768256 0.04428108130556244
P 4.005495583468115 6.117381801938595 3.6946004413536624 0.39703874902683234 0.4069392959699959 0.4418865014691422
P 6.9622852093865655 3.9644063596572896 10.49981675793462 -0.38065722234501537 -0.6344374456591074 -1.0025553978865314
P 6.342841324148316 7.894134322467387 10.329834498238103 0.4260125105513631 -0.7321468219871391 0.052683960657277006
P 2.2868128057614725 8.446173719672984 5.763953637872782 1.0134872143076867 -0.14598878015970987 -0.27422537854232126
P 7.077979750949821 4.139750649554978 1.343401502917485 -0.5495648160844278 0.18290905022482695 2.036424775394996
Ni 5.632338270650407 3.0143690222023056 0.2045280813685418 -0.8360641268980956 0.27785089111005057 -0.035275792483158604
Ni 1.5579035960946037 1.2125815867461214 6.712649786740615 -0.8426263534966457 -0.49568477823652046 4.06578338797183
Ni 6.908692148849219 0.5875568314627593 9.05672507963434 0.0035794898211422227 -0.13810860608068473 0.1747671378439829
Ni 2.830262058055458 1.2886488636219857 9.20712979976486 0.13171350118761832 2.0929965011424536 -0.035112784542733075
Ni 6.435807395612455 2.063378233145081 2.534936326581014 0.3859822341023546 0.399103601975661 0.3544921339138734
Ni 4.0779579052383665 7.103777427159003 10.455068096069484 0.7400205683082611 -0.7294358508138792 -0.7500524986229663
Ni 8.22099569269821 7.25030023719469 0.22276897259311335 -1.2055149390043305 0.6643481171756107 0.7562308595195363
Ni 7.695053627919645 3.5606604683201115 8.18629550267154 -0.18435452442210185 0.9098689286943878 0.10851700846649699
Ni 3.115226040736413 8.430582515853496 12.279469587432514 -0.2621525065381872 0.13893264464387683 2.1609299317596333
Ni 0.12355643106058342 4.451356794149959 10.385839337304544 0.258565046297245 1.035785620694571 0.2996124511568582
Ni 8.31484257183299 2.373558740582426 5.723750670027467 1.551116198186477 0.918077175536793 0.02828239188446097
Ni 3.5998518694179062 2.7498361452836386 11.789113968646129 0.45080488700469457 -0.22274032328915186 -0.1969130778134028
Ni 1.307490883380541 3.869469821548521 12.876466497806595 -0.35878664752416917 -1.3858153479617163 0.419162063288433
Ni 3.1180319125944345 8.376117728136958 8.119644695429228 -0.16478894358534846 -1.1900191573615764 -0.785106662013622
Ni 5.828949071523776 8.211170600949412 3.601077735763644 -0.7883457377762101 -0.7996876451515905 0.06357026855247762
Ni 3.3203906645555934 8.326056978773625 3.6845265441391364 0.03521074357317807 0.13266712335013928 0.5872749290406919
Ni 3.27815729882208 4.32051599284826 9.399014204838554 0.5439109602327601 -0.4960725005932424 -0.32646402413206355
Ni 7.207031695435887 6.076065565841522 11.31053302312284 0.771576231627355 0.3671730718156515 0.7944523648945802
Ni 0.7898184221654045 8.925659990193829 0.26432947391018896 0.17097244668824105 0.1500128137174384 0.3430612663691124
Ni 4.587409797543903 0.599485873080501 1.6129804089348647 -0.3073221610962901 -0.9722816866036544 -0.16511830190030918
Ni 5.9241217024102415 5.595834695021784 0.22994074474024925 0.5123838361587563 0.7476274341212414 -0.3924089635643048
Ni 8.154036148746602 9.057000218525273 11.244959162166486 -0.9081048948154297 -0.007412490413987234 0.47989049151674135
Ni 0.19963823672276731 4.665792599739493 5.888429922717241 -1.136246591625811 0.6145702744215352 0.15427853097232785
Ni 7.934932970551816 8.892588840333271 2.4957303966968993 0.41830048661908603 0.1804464476169473 0.02657980737105745
P 8.678670622756382 1.6192695573130698 3.600226893714787 -2.037042611484653 0.609151417398809 0.4581824104156883
P 1.7501557610720173 2.9843307564860155 1.7727816216177485 0.4738856800835581 1.466888401284648 0.19082984773380038
P 4.987568894758368 0.8005751723369634 8.039345001488563 -1.2478198704201284 1.081211357127538 1.0403683549692468
P 8.822251353562299 1.6468470098464347 12.699320638405245 -0.5867632795115959 -0.06870938955125586 -0.4400975278895195
P 6.238769811640941 7.999222850017152 1.2491142199473841 1.0660462193513254 -0.3759310205139397 1.2324711558782
P 2.0007319226321783 3.1719518708239773 6.089006174206783 -1.4174432592796429 1.409236040878502 0.022400993403019483
P 6.877854799885338 4.114089180717543 6.0844341467617555 2.5558827447917145 -0.45002558563650885 -1.3378215936912572
P 2.3871794777572855 8.525301122167466 10.34178260888789 0.9385030474913127 -1.3137473263508728 -2.065062750846663
