# total energy = -381167.74767262104 ev
CRYSTAL
PRIMVEC
9.28925306668757 0.00000000000000 0.00000000000000
0.00000000000000 9.28925306668757 0.00000000000000
0.00000000000000 0.00000000000000 13.59576083518496
PRIMCOORD
 96 1
Ni 8.26007800778067 6.430559645786174 13.068395036534845 1.4327611205836355 -0.6387782391263063 -0.44689809575112066
Ni 0.8331781751046655 7.001560733338547 8.884476507875583 0.5882259801000514 0.46222161348206847 -1.1014744782519483
Ni 0.27651969405607313 1.0038709842296083 9.377254654464851 0.758477489461868 -0.7209023594215713 0.6224165099388314
Ni 7.2330953622936764 5.220049230418878 1.591207223036448 -0.9534267586806807 -2.75618530790264 -2.097864884978348
Ni 4.609438768428604 1.1448911327619185 12.038678563914392 -0.8082177941097887 -0.7758555757289993 -1.124586381679063
Ni 9.143773927023618 5.313136833899694 10.171994829924445 1.2570876688752997 -2.326881528194515 0.182851200403698
Ni 4.370064010011563 6.853555066612684 1.012426386166125 -2.2786039241350498 1.2151002686999202 0.6264387437243469
Ni 2.484280643099063 3.183296925100007 10.493520954363168 -1.590471302945332 -0.5414031062092417 0.28249250364712
Ni 2.193378398751667 5.061936856519368 8.74450790277347 0.5276669875700719 -0.5135176926528834 -0.1704155457435065
Ni 1.277095780276037 4.839635744963693 3.9467406785570835 0.7725085136336373 -0.1563665238496081 -1.0192855661570188
Ni 6.830350512826128 4.582564959739851 10.869579638050887 -0.9407147104306508 1.4738537768588875 2.884754349924006
Ni 6.0404574695386035 2.610995342139261 5.7663975696549405 1.8528438959141251 -4.067041685858964 1.6479812242363423
Ni 5.1869144652640955 4.3632921446351025 0.4574158185850005 2.0725981399917597 -1.0204261075193652 1.3717254455275536
Ni 5.7818911145951315 8.602247638976747 2.3327329842359665 0.2855572586153728 0.3572861517192428 0.6162628316326096
Ni 2.353274309211231 0.6898450025960334 0.011239067104225148 0.6755033624614817 -1.601696225126874 1.53639766102938
Ni 7.778114409437322 8.706686709522085 9.348635395153002 -0.972522341859551 0.8043539402790084 0.31998921504099725
Ni 5.0746445545097645 6.688067025897113 5.423675227910304 0.40355083911373724 0.8921601985607153 -0.15654752951216264
Ni 1.9717925596705967 5.61740631319459 6.214676479070824 2.098124309287322 -0.12200681542281568 -1.600794796358527
Ni 0.09554182410147655 2.5582416748238668 2.8709485825432344 1.566123984449219 0.30468703746628817 -1.2754026651344035
Ni 4.533879985202084 2.6762523438808774 2.9031432753028206 -0.24220717376451187 -0.04587413682429519 -0.34888147259531527
Ni 1.2583779356483706 1.075407520943087 11.700892531169826 -0.4388055485509733 0.2470858420130519 -1.3388708608913782
Ni 6.216182266968661 6.426472374502714 3.285809404590368 -1.0010770135687919 -0.6072130627255156 0.30079850104515937
Ni 5.885679937436281 7.826344210582159 8.160705295776243 -0.6317087338740346 -0.056774842897199 -1.428241121226095
Ni 8.56229456218092 7.2323893790719875 10.877193109741624 -0.3568092120828242 1.2547047704654197 1.0067097863745371
P 4.559258224171208 8.900525550140207 6.023397756556614 0.5237049175985303 -0.43005839848596256 1.6002980592277665
Ni 7.589254608382689 8.262855494402842 3.83487485030464 0.9961466661467101 1.787375124787354 -0.606220359794943
P 8.646984681024808 5.488313565407652 3.241011982398347 -0.3004025511583214 0.059559604731187744 0.10281507298571324
Ni 6.765288585395769 9.19943513050202 5.773439752291285 -1.4739699907217776 0.5083798572056858 -0.39287947544282015
P 0.41716455677053815 6.996674586304227 6.741185760852143 -1.014065712518976 1.4218120777712997 -0.8249394777398438
P 3.083762580094823 8.728869445487776 1.8894572664411566 -0.194492127076736 -0.04144849695277378 0.41606645508224477
P 2.9318182701321724 0.4089770092495331 10.260557638309411 0.09674752663539467 -0.1958789801219336 0.563727737848371
Ni 6.4242429538026435 2.1874704338964825 1.6353256008402393 0.7411585385674462 -1.2393727680940396 -1.0003725313025997
Ni 3.412927257207161 8.701466149382755 8.227093728523144 0.10963029613533377 1.602986404693207 1.1485971427713637
Ni 8.602544895070091 2.6763452364100466 10.913290217651623 0.5562183168452033 0.8131090607638191 0.5671046247404039
Ni 0.20872858411871115 9.0115692795095 -0.009247451278829767 1.968465376635887 -1.669098980051564 -0.46375373385587865
Ni 2.3378262816103335 1.499554809131301 3.1874585104068034 -0.30796622243819216 -0.2583519018451744 0.5683025017032471
Ni 5.326253259018436 4.092621893140837 4.672455202366651 -1.6501502068632032 4.403164830347346 -2.452867897090369
Ni 3.5020669281982717 1.5874497202315392 6.132489813888054 0.37349849981304706 -1.1057785049439408 0.2491406676595516
Ni 4.815167852780431 3.35970912724592 7.804048145730881 0.1424591697398966 0.9159624431866354 -0.7924793003286094
Ni 5.977420599244139 2.421754681715032 10.339807041719839 0.07686441455822246 -1.0950066111394174 -0.7799387446594375
Ni 6.93032145271841 4.670450581587172 6.709494545600656 0.11063534036108043 -0.12062021948793421 -0.7414611574095294
Ni 8.475662989477387 4.076356411283246 4.922929689094163 0.4926560187125258 -0.3818275885040327 1.0956869250358936
Ni 2.4548058435935616 3.5468782842696673 1.8942161507105133 0.05602536632568416 0.7957248038491006 0.4790111742355814
Ni 0.1615094536912401 4.865487735831581 7.194536602360683 -2.4821697313782796 0.21249884806680178 0.21917188921160316
Ni 3.722584503193892 6.633074648628733 7.452380253427216 0.711896042157903 -1.2377665999491843 0.2247128736344904
Ni 3.247392770227004 5.108308807080813 0.05931280880005619 -3.649172373240025 0.8829931873494664 -1.0160218078040824
Ni 6.38146594412006 7.0310541113498815 0.40467329837310734 -0.9099548035399747 0.9459021681688613 -1.7214116734123515
Ni 4.649707679823608 -0.025300209244621546 0.4110225027418468 0.7084741609605476 0.17985329411763865 0.3574607296238941
Ni 0.9415772541685009 8.655019884797975 2.779245077747044 0.11539110987851095 1.8168507656489676 -1.5169706626530197
Ni 7.376354220778972 9.20563106219763 0.41439357262541016 -2.9714028404521855 0.4480242389357639 -0.3827655269372698
Ni 6.322516345109057 2.46909271457984 12.900921882470922 1.4476850888833197 0.561534329741478 -0.35352077113953956
Ni 8.115778752968675 7.153774431635789 1.792383644533674 1.6487083322103542 2.66511709104021 1.2814912945306445
Ni 8.106749599133394 1.6449130387758297 4.319876034351833 -1.5718295194744285 -1.2954927510160592 1.6811980773079431
Ni 7.603820156956476 3.8642084531658036 9.068603434569027 0.919916542738377 -1.1837726622312323 -3.3098124669819
Ni 2.444736293431581 8.21723597332767 6.175167428564425 -0.8070248022429521 -0.14895531898720152 -1.1713498630868473
Ni 4.922867451099619 5.74921152283328 12.00322148553037 -0.1862496845622857 0.6865143688600047 0.3287692752264725
P 7.903537902322063 4.147818633973389 12.74285781268658 -1.4006884084188072 -0.9101072699574391 0.7192026031216452
Ni 5.475485107129336 1.1541710964259575 7.709734360865026 0.6762073305070418 -1.331219000773075 0.3458431999896237
P 6.086123436878359 1.1913745543583667 3.6192592140732978 -0.6732287074946922 -0.35482303489073086 0.18202716184050588
Ni 2.2911199179438784 2.903708990805463 13.184203223725245 -3.2794708785755646 1.9468557687859118 -2.508276969988293
P 7.553946158045339 1.6603610663767276 8.901715503438869 -0.4516890893818608 -0.4104398529240867 0.13947026231490173
P 8.680630355090024 0.6563340226981144 1.8471196384215458 0.9206873594661306 0.865225064732768 0.6147818762117089
P 4.272350358578103 4.850123311506936 6.294320675730221 -1.008370976127044 -0.18089999021459816 0.6766282200945444
Ni 2.7517646808428133 6.983307351356728 3.3389151345913137 1.1159086513994072 -0.4590398733199772 -0.3883347934949312
Ni 3.041032016676825 3.4038888141189627 4.647683551613004 -0.5482949482330686 0.16928657434538588 0.20402860581226154
Ni 7.817398660023129 0.5761872774559091 11.626495833483217 -0.07203536860069529 -0.6439978356540328 0.15432841037365677
Ni 7.873412855112375 6.431284207513696 8.42945360084199 0.4568431227789745 0.4658409554022106 -0.5407094225763268
Ni 0.4138250703468925 -0.051953862639243585 5.192547468232938 -0.1073165604004926 0.49296609375377676 -0.7711257743534978
Ni 3.21548418645726 1.9417418264842436 8.664361157531268 -0.7503116658216239 -0.6265354172032113 -0.07569173440635997
Ni 0.08779087146756841 4.281946156841318 1.331935813796579 0.4295740026503763 0.4486701000498789 -0.12137715225861676
Ni 0.5740098765721746 4.6566653302584085 12.622698539429877 2.3171033657618287 0.4272535820473158 -0.866830975767307
Ni 9.16946800059192 2.12629141418541 13.570608277311868 -0.5318229187199744 0.40875552324312825 0.024043928323081172
Ni 6.22790530414986 7.018690115717413 10.476716695836396 1.0263694695869936 -0.6531666466374944 0.07581206203430814
Ni 4.502175764996513 4.364174623662213 9.941410491542719 -0.9006849482022746 -0.47099627435090496 -0.6036734250033732
Ni 1.5058250548502463 7.924420142879381 10.822334497715246 0.6004130090845466 0.7589557146498671 0.9272058773109386
Ni 8.258322338979367 2.0771977125192973 6.852589913234613 -0.21815630346289527 0.6707691902106061 -0.004490945891818072
Ni 1.7528077114062743 3.109085083546445 6.765644363782488 0.9582164667598401 1.7601746531131621 -0.19556427709499222
Ni 5.946069370649412 5.328222580636831 8.600623877566864 -1.6061522040156984 1.4846585807838755 -0.1950351440643996
Ni 1.0916172672831752 6.573028917773528 1.4815438766506148 0.6938486977378889 -0.34308054964282203 -0.4924025079408229
Ni 0.5664512114736474 3.2616146164428637 8.664224605513388 0.29232028837081914 -1.0933891301406524 1.9005748834415008
Ni 4.313715401817308 3.4216591549491 11.868487374446962 -0.04206838992495981 0.35857710261652437 2.13134270502082
Ni 8.476972774138678 8.956493298964867 7.1697380127735775 0.46957728251619124 -1.5223735788361459 1.0888364777729633
Ni 2.510225526496121 5.481095815891177 11.080612885818294 -0.8811445641765019 0.2576924138843046 1.5128391569831494
Ni 3.523924540311869 8.183646034779956 12.136595649986733 0.12930720573897087 -0.7410292120784334 -0.1966811643082548
Ni 3.975605174145941 9.101396355216465 3.928168675200213 0.41849871867282123 0.49334995945575677 0.25170894260736004
Ni 7.8559397703755804 6.648959271116728 5.386979892112453 -0.43543534652715976 -0.8870706998529497 1.2570889544268802
Ni 5.186542895147417 9.040979054244584 10.065294755219119 -0.744813361711214 1.1143053114680292 0.2290071301344701
Ni 6.979796013754118 3.6559526920205654 3.2390946805962875 0.5236776639050207 -0.22174222104194072 0.03661353745797565
P 6.137548741026629 8.439434903101258 12.121885189067442 -0.47803955435093154 0.34404856998304617 0.328252483491054
Ni 4.031507898200183 6.556707700398436 9.80852587071508 -0.1371668109927057 1.9729828048902667 -0.5980398808666797
P 3.870227889055991 2.2606418791233454 0.4900201673982246 3.9016706445179 -0.4986741998821476 1.887004600956234
Ni 0.5933398829670684 7.100556301674547 4.263794027716294 -0.19808267264147175 -1.6248274118276986 1.3262603712162193
P 4.263219022960735 5.421811803775163 2.5118715821130055 -0.32133570176656273 -1.5363593515922767 0.862425904721076
P 0.9752879530041345 2.1440245980038792 5.0864047487026305 0.04253838758284287 -0.37439684325760036 -1.2415674617525134
P 1.5475059326886282 7.033970936765805 12.973591708040267 0.07977850288122389 -0.4329246642901641 -0.9957149779259303
Ni 1.1266005937684318 0.9791429929646713 7.172184801991904 1.3798727572250367 -0.4877382696959342 0.2738461408260316
