# total energy = -340855.1267006698 ev
CRYSTAL
PRIMVEC
9.39216516457277 0.00000000000000 0.00000000000000

0.00000000000000 9.39216516457277 0.00000000000000

0.00000000000000 0.00000000000000 13.74638309295229

PRIMCOORD
 96 1
Ni 7.496206366749428 5.796863135727184 4.7707643933223265 -0.6591220928899809 0.7751081560400135 -2.522756908772023
Ni 6.074007145968625 9.252137393003633 0.767972927443947 1.7382184605570452 -0.4684413691395352 -0.8418542512173115
Ni 5.377944392037371 5.354633038051359 5.83502350286867 -1.0979816346073412 -1.1899451095905313 1.1268489524609948
Ni 1.7961764540664775 3.7526114226629033 4.991366629941208 0.5459609007832533 1.1636239551974994 -0.8475806121781273
Ni 8.921486217710493 3.444041227716709 7.3788935275220755 -1.1506116020982313 0.0719500079757406 -1.2881805336253622
Ni 0.9587616141201206 7.167687212952995 12.291149950120744 -0.21313905275396197 -0.010788348864755614 0.40172201343511454
Ni 8.166459450755797 0.4170271616218096 4.9362026869511 1.070082337093912 0.31867358155336734 -1.169025842939361
Ni 5.52583342502035 0.3085354439350143 6.523689926717738 -0.2588121293110446 0.024886735939350688 -0.39709839862017415
Ni 1.467028025202736 3.743820356050934 13.731798200971943 -0.7045943662901673 -1.7792326981858777 0.06703662983452326
Ni 3.876296845967415 1.4981630527867935 2.7795464801844836 -0.39273909321021394 2.305437499388127 0.2671332475822302
Ni 7.325250176075214 7.243172044534616 0.2678692471225096 1.4888970443452552 1.217487280874858 -1.035003748223224
Ni 1.0780139354579128 8.349982358445839 8.116757991036545 0.9250026990120328 0.7207943730887973 -0.6703575565944841
Ni 4.067596466429584 3.835741476704078 2.048499789376881 -0.7175640390769578 0.7444582923646405 -2.1942732831067695
Ni 5.5041187391155715 0.3273470115815028 10.978026639701165 0.19711336674966698 -1.2569621990410287 -0.16402918260118848
Ni 0.31935427901015045 5.289244784042245 10.53224536436937 1.465958690381527 -0.438209052617555 -0.040078870298756786
Ni 0.027436392934705737 5.237400032228068 6.005355114558166 1.6637454290491347 0.2125438423721243 0.209920031596032
Ni 0.9952877445196381 2.200490380895593 1.9032142645828318 0.08211794964767793 1.68793719580399 1.2175124776858386
Ni 3.4707995063251493 8.560526525369465 8.839281291939916 -0.5710787788968036 -0.09621736516353752 -2.4643974949965233
Ni 5.007789769981474 6.3323574336774255 11.852159210216787 0.9682715370029971 1.2980327438290935 0.7259345225288402
Ni 5.157566628166382 4.09482435329721 11.032118936643808 -0.03506290514140414 1.4093198588415599 -0.09449318338357919
Ni 5.982114201811031 2.7001347843395465 2.387636785913517 0.6021523603731566 0.41206633278391613 -0.24379611551818656
Ni 4.236561518084847 9.317074823083926 12.855026432039692 0.6499931340055194 2.2573946370472866 -0.5179351049942887
Ni 8.958519525029933 5.522311363076452 0.07167818703265567 0.8256827836637716 -1.5216099611972438 0.875360610504873
Ni 8.860127202565199 7.9916430801910705 10.529633403231777 1.6526405773852249 1.2217108320379024 -0.4781853359001764
P 4.740282121218538 7.727788983684605 10.058214334597963 2.241100270762637 -0.20769371336867457 2.138145586875266
P 2.9694926896436766 5.483888015309822 3.60298202147138 0.7061012898529968 0.23205722981470356 1.182088332550274
P 5.500803304805715 6.458494212094891 0.2627383072826391 -0.8631764097338553 0.48608505036322736 -0.14939369207620076
P 2.3034848643003527 8.860390183190344 11.825793524113024 0.2183959302775271 0.10441198515918791 0.7986898000146955
P 7.591527451199081 1.9694431173758884 6.150063021193416 0.5042779192221702 0.7134872979044228 1.4981067358689812
P 3.432347982062968 8.437151043516016 6.450848050418818 -0.4532412643603291 0.33352427341295465 -0.1736988444804686
P 6.403324633805673 1.9323628492305311 0.447843794806139 1.0866618387191478 0.6968057234836837 -0.20370978902026204
P 0.913107238378538 2.8305262135852396 10.084813885614798 -1.5417013326304805 -1.7409286603993566 -0.35665571722409545
Ni 6.405381517980911 2.424625010840074 12.02102000883851 0.12653478520015626 -0.5923865392356443 1.3350453164977008
Ni 1.5991288285118677 4.189055946585552 7.9577401815273685 -0.15511491083069415 -0.7203184618936433 -1.7026274508263126
Ni 4.840750112188874 6.766782642085573 4.175078526359128 -0.31120426975951565 1.1550889211432944 1.4048929334184577
Ni 0.8445181344748104 9.232460806943722 5.699264451220476 1.2603892224447066 -0.6987407357228675 -0.21854582559183008
Ni 3.1021100620379136 1.173391372898669 8.272243407220124 -0.8123120187838205 2.286476127794275 -0.6926857877780394
Ni 3.4274828404977966 1.4308587970802 10.888427262281438 -0.6203706831533962 -1.8030367425840108 -2.098794338771153
Ni 2.1959070042859343 7.310438731580475 10.18340344354839 -2.742454331469793 1.0635558488293038 0.4493938655897809
Ni 0.9901784066596903 8.982366232431417 2.906411151403687 -0.4936371516788724 1.8753783295712154 0.36504445550842296
Ni 7.662222278537001 1.0142693103559521 2.626329271892776 -0.4077918737782783 -2.1085653021149877 -1.651495150926872
Ni 7.63221431077499 0.9721078808461978 10.6444704677167 1.7989641151765339 -0.31796447130148464 -0.9301713876971658
Ni 3.074243507937793 5.749686290009319 6.855170430196599 0.06669467311407222 0.31142024242506366 0.027132594550733916
Ni 6.327567429433724 9.313815741765172 8.714011410368908 0.2597639517013526 -0.8329404936674493 0.113827622046133
Ni 5.170912894892459 7.358733244955204 7.1602711593239246 -0.6119744886699008 -0.20429420076882235 0.3659006328611311
Ni 2.288391654850102 7.222030280706045 2.1820591959390456 -1.5879572782742264 -0.6592149097141033 0.6323867337776656
Ni 3.8183471867838144 1.5637015814388464 5.581787249102408 -1.8366184351941983 -1.7733561848004427 -1.4495949043115228
Ni 7.783813249005542 6.208277539435198 11.872311039834992 -0.03257587705349228 0.8652734014722001 -1.2910974501618409
Ni 6.0487610059547645 1.6499874029817538 4.48248972812165 -0.13562594886814708 -0.11923593754589787 -0.6080052196095077
Ni 5.793716760390636 6.098379814620398 9.213210625183153 -0.389046217739659 -0.24108848677903644 0.06099402318486915
Ni 1.2685527905401992 2.0649990059551357 6.340848890220035 0.4771725783649459 -0.4524357377398982 0.33231842603031153
Ni 4.822782900192403 4.199781799225369 8.213051164582716 -0.3730398150090737 -0.4493812671842906 0.45392234958775374
Ni 1.5817721072523387 1.7587392836441385 12.198086742181257 -0.4056735418836949 0.5077152270384934 0.11582356943023922
Ni 8.370701474841143 2.86426287092519 3.526854765791193 0.8104505400950495 2.063065775021292 0.8627328944385336
Ni 7.096785757981034 2.2483716390022375 8.50219272662985 -1.346793201062248 0.08365984021350108 -0.25182232825677275
Ni 6.411871504122867 4.774291151348816 13.105389622476252 0.5355700444672324 -1.8330901103259656 0.3445188247512454
P 0.8091500580424464 0.6104916761588274 0.6850410480881486 -0.4498209258248705 -1.6825378791652894 -0.46832438394569664
P 7.440651709687677 4.535561096708823 8.409652662291098 -1.3626646208768662 -0.5941387460400607 0.051022513794454064
P 1.4759693664576448 1.818792787828894 3.873153288280421 0.36433251704306285 -0.8217757352998816 2.3076450485624065
P 3.7097174042688184 2.941748233690945 12.160380016618145 -0.5730706125158518 2.143917713472353 2.9641348460358627
P 4.273209746631753 9.221011757584758 1.6405210396930745 -2.418835747206325 -1.290359543554552 -0.491878774226869
P 8.484008555617635 4.903658834589484 2.265857972141302 -0.6613628092950417 -1.192446021635514 -1.2926082303794124
P 9.184898882453323 7.32231982053789 5.57518925306084 -0.12191039905426745 0.3664104826180141 -0.7893698081653502
P 6.338077262274317 4.065595935245449 4.481884872683818 -0.5709324831269265 -1.7071783034217891 -1.0631717260170077
Ni 3.596560598135265 5.788607422530687 10.223487326119503 2.193497067062377 0.515722413613686 -1.1724400108272326
Ni 8.008389310713657 6.352475451500972 9.347059310432977 0.46396584986668477 0.29207217691575504 -1.3121869238422885
Ni 4.067183211161499 3.465370834848955 4.138156046588857 0.9715484079820559 0.6027714820143941 2.3791620827657862
Ni 5.632068205413495 2.816503710965934 6.437390016927054 -0.20865402039941486 1.1317510177483026 0.14548998614642042
Ni 3.9351293686782864 5.1013639117069545 0.03512763700366046 -0.09690590659012989 -1.2104465719779927 0.14656933525352822
Ni 2.2560356457921595 7.255748153715627 4.81267786967123 -0.6167726813894926 -0.7902146726641488 0.771606056424026
Ni 2.436994492387044 4.84580309705772 12.068306742889025 0.3206556449804026 0.3784422169715676 -2.412812938051012
Ni 1.8302700136834096 4.646398038041995 2.0541773532304446 -1.248495042110282 0.5059360236508834 0.1618200907650116
Ni 7.282111961386351 8.210123626694948 6.410612014771728 0.7553546275621701 -0.36134592361091317 0.020412245107764848
Ni 3.2835291247268006 7.69023910728006 0.06967671663200328 -1.0515462259629376 -1.7757568238221353 0.4827019928236074
Ni 9.051605274165858 0.5530482546786295 12.59728193898524 -0.3348373357974233 -0.5413851084871127 0.2193868334358867
Ni 9.316764881632862 7.323700468819898 1.5241718366135726 0.22804013823551048 0.6739504161520651 -0.4139136704053001
Ni 2.584845956709287 4.0262521552908135 9.89356028676203 0.9857498962934185 -2.8583483491266515 0.4564104061169301
Ni 6.250683165239729 5.104810836329382 2.145920022745098 0.9078477844993009 -1.4149372050283373 0.16158303505354105
Ni 7.281999255404147 6.000381963093382 6.907351421524354 0.1579616362508699 -0.2054769082230139 2.5598144757459527
Ni 8.659463593414854 2.731551576879116 0.4400736565496409 -1.3090854020988294 -0.057101630108998436 -1.0210172041361447
Ni 4.389775908726999 6.580254241536738 2.019233802664385 -1.7008083953397033 -0.5810533736110122 -0.47727696515329415
Ni 0.003977581955308736 6.203741123651457 3.5050254954711724 2.200904415270042 1.071684391473709 1.493083828733093
Ni 2.8371195135442164 1.4611579219629058 0.5005892552614362 0.43635914389300984 0.3337479593879865 -0.0854380151598464
Ni 7.737246894024619 3.6647007565432106 10.38841656439532 -0.48940383032381524 -0.569701953153935 -1.3420315180075468
Ni 6.3739553332761565 7.354384672475137 2.4074730387815504 2.3331686467548076 2.517455036943135 1.2092877757832012
Ni 3.384025292192688 8.973631518810551 3.735675470403605 0.42446856310301095 -0.959388118470438 0.3493553269079403
Ni 1.3303720217794959 0.3605577076711644 10.140321581850628 -0.5601793583754804 0.57109960483241 -0.47116185339449174
Ni 0.022850198675491436 1.4734616583535893 8.252284116988184 0.49660394761668025 -1.889715572129494 1.3320304409307768
P 5.01612062049944 2.3850276424254777 9.870947709865685 1.616456157044868 -0.9583175111140785 -1.9422735487318679
P 8.425176032906764 8.554600069138534 8.352233660440378 -1.6036538630738768 0.6325098896190913 0.5932591716485847
P 8.603918328518288 4.092194547045767 12.1360496127097 0.5329400630435531 0.19849250648538072 2.885517453342276
P 3.33089381374834 2.94853876911878 6.993156364209855 -0.5802182793042265 2.0564390137333937 0.6553155746596971
P 7.57005696158908 8.454817706226608 12.042986404770213 -1.4618667797003404 0.5304874877380025 0.8702109479831336
P 1.8860782592051204 5.897894656608544 0.05384997908090351 -0.9017468138078857 1.227854225931479 1.9603165222765075
P 6.312323945340535 8.914977447238169 4.261680863868727 -0.40248897350812624 -1.0742737494674404 -0.3907236054420819
P 1.1763686892619107 6.224601122524517 8.351917144473687 0.28850579972073537 -0.31819715613758104 0.3454048269006245
