# total energy = -340859.7592406741 ev
CRYSTAL
PRIMVEC
9.36809792966832 0.00000000000000 0.00000000000000

0.00000000000000 9.36809792966832 0.00000000000000

0.00000000000000 0.00000000000000 13.71115826192396

PRIMCOORD
 96 1
Ni 0.2879191139469753 6.909318655011072 2.9641466700462975 0.7861795833628267 0.7068222271794213 1.6219629457957097
Ni 2.510697017419116 5.96909889994586 2.329223850115399 -0.24414270022432794 -1.7328291712206738 0.21579628787115096
Ni 3.306292080575907 8.808662986249878 7.974862010344666 -0.9926630784734841 1.2005030876120355 1.0994754455440485
Ni 6.8434890326480415 0.8876272547171181 1.087396316780334 0.21799380974310198 -0.2891835425140504 0.22670290748132568
Ni 6.659199815183185 6.1458655349776 9.286361959709094 0.260810390687996 -0.20553244405129764 0.40039532420389107
Ni 3.453436790758934 3.575503103465678 5.94214126207595 1.254287480422343 -0.06146299240148769 -1.3576229446879005
Ni 8.446923262622999 4.101484315532669 10.863227327867659 0.06426960861234739 1.2451510653387137 0.22932928936057925
Ni 1.0869241646575083 0.7082778351563496 8.430662118678535 0.24953610332575732 0.4642592127373875 -1.7266125008870006
Ni 5.028551261462019 1.5760700166659474 10.097445298752154 -0.7535941932276377 0.5808523133437996 -0.3289875618848657
Ni 4.462062395047833 3.950938985893575 3.237848758961519 -1.96643960445511 0.2918963134595231 0.33954733967858297
Ni 4.816691732539301 7.136082827334898 8.06347671987311 0.7888877263226092 -0.49555030954118523 0.01215823262908874
Ni 5.33195584086596 2.9606842211455757 7.400295970114996 1.6441991314860909 1.03681509040035 -0.28721330616155694
Ni 3.483349126635575 5.714155489815289 12.452116649392234 -0.45936408942861534 1.7526714027575814 0.3998538498781243
Ni 0.47464028956829146 4.661340568792873 1.360402356038294 0.7879400176973592 0.8014946164533423 -0.5205159783475876
Ni 6.240342800031132 3.7604668239631427 9.959730515688896 -1.4141951846559904 -1.3434152857289507 0.2327511705579346
Ni 3.0982172631139346 1.4152759881702788 3.7493984165599947 -3.2454927218579073 -0.5173344952958123 1.226051111284469
Ni 3.3129527980229136 4.07950675838685 0.8310074091784923 -0.2692639207719879 -0.47206045394936125 -0.684651347509337
Ni 7.728193440890523 1.0713824906144929 3.161464100947936 -1.4761734261309998 1.049226062470193 0.38365692840328763
Ni 6.595899579192435 2.827376191228693 12.236851816964611 1.4108722909303444 0.7530645459764127 -0.06562997929498374
Ni 5.333042540196272 5.367114311440665 0.19612674568713134 0.5303895287075575 -3.352622877279207 0.23003968516404252
Ni 8.246680174817422 5.897667155173111 6.480098650210807 -0.18672970952249776 -0.13298054082549998 0.45688451753987125
Ni 5.650368112745433 0.7130621226390307 12.832505445060962 -0.07904342448741226 -0.364008815155057 -1.5149307494048554
Ni 7.300951978319242 7.916642093723131 3.064704767300747 0.305226454909526 -0.385055351412711 -2.5022852711812327
Ni 8.607839076388444 8.711637598628714 1.1176168630704866 0.517364062982167 -1.1144204968896547 0.19734759424766013
P 6.955400327474962 1.1436386279826527 10.864543545591012 1.1343714860902852 -0.5649600675935753 0.8589055502726435
P 1.3699250273250483 9.166205802118306 0.08210294483447277 -1.1183056908766742 -1.2848522405830776 1.3397098118529056
P 0.799012545188673 2.640463906414805 10.838121762908118 0.036985576085413724 0.11190083733706535 -0.8757521895163369
P 4.489763859873148 5.3988908987546536 10.246251909462744 -0.9001555580613658 -0.5600536314308935 -0.5802067093400007
P 8.026361253694073 2.9612650432014327 0.5191471848129939 -1.8737989008992375 0.767883099046484 0.6829215093024238
P 8.965185162205694 6.194851317720775 10.037925090173312 -1.5491133088238354 -1.7718315206258 0.07397243772240808
P 2.1789914149386544 8.349972819783236 4.58756117874274 0.06737550123118075 1.5152030292296357 0.14750727368676533
P 5.346485760360062 8.87821174338993 2.3529719777218148 0.2093119656983879 0.3809487854435052 -0.20494726097178895
Ni 1.4026852648949244 2.750126857799698 4.971555755206621 -0.8655996744633672 0.3868224706154628 -0.4739203899762354
Ni 1.6899111396139412 5.106606251291075 10.987985095036464 -1.134717299465478 -0.4676463840420656 -0.15804082622823748
Ni 3.9074429083880173 7.337496927349865 5.922561937934961 0.408477072770761 1.04349353086179 -0.06325890795964588
Ni 0.5611874599398387 7.339201921126736 11.48072267569354 0.32894462446207223 0.3764439555946162 1.0728812399952876
Ni 3.883882142735104 7.498038017208305 3.4206325231299846 0.814548364313507 1.2435724079976842 -0.5356998851768774
Ni 2.8912572492753004 6.7890510170579494 9.520424816931603 1.7070446060574018 -0.530624270426183 1.3502901584719131
Ni 6.614176737756583 9.072552929660183 4.783905264295933 -3.131626276154039 -0.1359823037663013 1.3631991532240975
Ni 8.16815678010461 6.381566872483486 1.3900373962237522 -1.3343642312702761 -0.819491310141079 -0.6202040756685449
Ni 9.422057917723363 1.35741861692877 0.7945598883636911 -2.8150008353789517 1.8877908443029552 -0.3202103299128679
Ni 2.5507924754686067 8.226997801602005 12.337368694589289 0.9320279812899303 -0.3350918750103906 -1.4877624165201797
Ni 3.045025204514633 3.552363902208145 9.619378159054305 0.9582794587872915 0.8912587697923683 0.328608324168576
Ni 1.9066046069370195 2.824593866219184 7.711552888990217 -0.29666339583086326 -0.19717507322553784 -0.8755922668997049
Ni 6.247696756706096 3.904042288931951 4.943722200204088 -0.9150250189740305 -0.5686197758333498 -0.3787543488953477
Ni 5.443548620371925 2.619142116106244 0.5646349198842808 -1.219948340820841 1.8183839144640426 -0.8975985959674672
Ni 9.086736229540307 3.2263822074071786 2.862162748325697 -0.2681945989672091 -1.046512520193772 1.138358495762491
Ni 8.904245686829073 9.38570969874392 12.303213547275588 -0.4233416485874193 -0.047657196866646954 2.8354418768421232
Ni 4.3028328388639085 3.71404789998295 11.977834221155131 0.48929584399104115 -1.6314570013290741 -0.5022984268982962
Ni 3.40826382376953 4.938280272264614 7.773280221381316 0.8679668891439631 0.47161025378582005 0.48116138780936485
Ni 0.6969021541494578 4.974206926848679 8.45853689331084 0.03450857529983089 0.42353165311103835 0.04125489288472895
Ni 1.7963420973009194 1.587470991536562 12.789219212943328 -4.859537184137489 -0.8731067814736899 0.08148777226284676
Ni 2.081844242047715 6.245916818147825 4.6710215609303365 -0.6353316753386025 -0.9517115757617867 0.675009967764831
Ni 2.2237334494350023 0.6406692110448143 6.052132096879472 -0.42070549651615285 -0.15143052000057147 0.19979142780246237
Ni 2.0701996966375473 1.5733813726331893 1.3659960471601051 3.5738981859870576 1.179681008660362 1.8840720006904712
Ni 4.774956857396664 1.7072702246059286 2.513049346745337 2.322446632351613 -1.426033829162131 -0.8407594754912359
P 1.5166200688196696 4.781720623918098 6.386246237272205 -0.5781228302277786 -0.5283940955440835 -0.13003714192645993
P 3.90189699456435 1.6988670409913509 8.164473244098756 -1.7486180586238143 -1.0466449320065783 0.8093516506039159
P 5.215482282471258 8.216589845084954 11.807473491313635 -0.4818010782758928 -0.789295503283989 0.44651602982135363
P 3.468135336011189 6.922059267849229 0.6977612087062658 0.1248622825937398 -0.12026849257547029 -0.43769328932340107
P 3.679526460050152 1.7873299873374588 13.002935498825254 4.8632930516354955 1.6600109017073668 0.7928742217741829
P 4.77947228047607 1.9820646337100682 4.888055090199021 1.4899033741225824 0.36849821838497826 0.9872701895926868
P 4.2424179769570936 5.638339475330586 4.575399514340906 0.14453636398389946 -1.282829296615778 0.2688692564367305
P 6.693458948381079 7.809901988812874 6.809618675503664 -1.853307980034737 -1.0442316945793952 -2.627709854036346
Ni 7.597199331099395 8.166845246430094 8.525735194744204 2.457945311613276 0.7109745587848982 1.025348484521647
Ni 1.172838988435985 7.088446050656941 0.670371701533533 -0.03638239528377605 -0.5028046771107534 -1.1527008805270922
Ni 0.37301891322771724 8.210453741107752 6.904815410458645 -0.9617393923114341 1.0214987717582535 -1.6422870020650424
Ni 7.967004986824548 5.069293118251093 13.063100232524144 0.12286350699615614 -0.12484839863666887 0.7025223142524869
Ni 8.884628890297384 2.8440701412857474 8.936672420121715 1.1612613685025936 -0.10078595837082643 -1.1124721149140324
Ni 5.6754652464170645 8.592288034247753 9.752472596344194 -0.6060038729087627 0.6749675445626698 0.030347759053921928
Ni 7.587456509517276 7.783465217173701 11.025224220104812 -0.6315796644953381 -0.4365594328292739 0.27979284532776977
Ni 6.205418531898303 5.385878611083919 11.588190681793156 -0.5445969305561912 0.9285173970335105 0.987976214520776
Ni 7.319735014157848 1.2915983626634142 6.042767746443427 -0.6086683071148034 2.1002904637007056 0.6384036293957069
Ni 5.573062570730387 7.418812015169861 0.3262271389600543 1.3360020239840154 3.954309867980171 -0.05804805318266777
Ni 7.220910951783062 1.3582617457195305 8.752105906965676 -1.1219803115147837 -0.674621988297793 -1.084780562536035
Ni 8.443082342576202 3.42577279832432 5.456355746703575 0.7341743939401292 0.09132815539203626 0.19123736758486418
Ni 3.771792854052357 9.217542977377935 0.3694955716921066 0.40494694813031545 -0.02868502663951834 1.502406905906232
Ni 6.083876832661366 5.928338306961436 2.6564955319662285 -0.8349876060044652 -1.2746243922074822 -1.3503827181857195
Ni 5.225290680737103 0.4500078135413449 6.8078499786626026 -0.0806400795505708 -0.359644110428458 -0.24278695752738186
Ni 0.5196952185269881 0.8138647272427999 3.1064686835461752 1.9462299622764543 -0.6102587915303749 1.0177009952787184
Ni 2.1368068711076127 6.781312968378305 7.2306341003600645 -0.845364321253099 -0.2830679165346157 -0.45555551431580255
Ni 5.785624706978739 5.396005524670718 6.6961728862775605 0.11108708318651836 -0.16216641836083684 0.7377572261953811
Ni 2.810766554050715 1.7644062523264534 10.924940608112244 0.8899356801055707 -1.336647113767182 -2.132687391974172
Ni 0.8637582786506932 7.522160868721726 9.0745651970408 -2.6423666847175715 -0.3249784407254726 -2.5241962123217108
Ni 6.575336604795559 3.464790925141173 2.5757640766313923 2.016196364163263 -0.36944695545149275 -1.1162961166458127
Ni 9.12243804978017 0.6414767410644092 10.243976398537459 -0.7589616281871381 0.2179860964336181 -0.5582199206562644
Ni 5.968686703648155 6.8158718807018035 4.711812131827321 1.353430760983424 0.1855310612287063 1.8783392119717524
Ni 0.39712771259462487 3.391560505614801 12.883483822179636 -2.1899610288846607 -1.7339869389742009 -0.688726288909659
P 8.06353386526893 5.474097986890475 3.486706652842336 -0.23461110658480885 -1.222795837571965 0.752745214963781
P 8.637985614706963 8.85251505146709 4.454124805887709 2.1604383368351954 -0.16790434928587858 0.4310696133592963
P 2.1839565067064655 3.6517313142480865 2.681683536185309 -0.6204308469673702 -0.8035489278792097 0.4915992953132372
P -0.12387154512873919 1.4792413590959617 6.618348351651312 2.578832154499036 0.6216675475879486 0.8757056525491176
P 7.24237326355675 4.307638672971242 8.29717047404722 0.9886156478769876 -0.12028057676032833 -2.939713479768705
P 1.8220106849307336 8.914869109592653 10.08306245839155 2.1950073330593165 1.4556470240428736 2.651906248776891
P 7.786500480820438 7.43589942532927 13.274718064526844 0.08327366051867593 -0.2067858568424245 -1.0232756611530185
P 1.508900756335375 4.956997731419493 13.238973151037676 2.3623804924320733 3.1142929270819137 -0.2452421039360938
