# total energy = -340897.76666244736 ev
CRYSTAL
PRIMVEC
9.03136941441160 0.00000000000000 0.00000000000000
0.00000000000000 9.03136941441160 0.00000000000000
0.00000000000000 0.00000000000000 13.21832204280785
PRIMCOORD
 96 1
Ni 6.591698575400245 1.9820695110893007 11.430160867989848 0.022821625880205858 0.06106935650749482 0.02420847892540347
Ni 4.565077318482663 0.4148044799657067 6.1719385829804585 0.063203115021046 -0.3579811209037383 -0.6590225911976392
Ni 2.791704694196505 1.7361995073534198 4.750823689068732 0.10980513115030122 -1.2655525118132012 0.5774828826509345
Ni 3.585715608038977 4.379274953405589 4.97474204605614 -0.8122503123079495 -0.46129627345432167 -0.2760840290176148
Ni 4.8729567053235465 4.6612072156235955 2.4647275733745806 0.2518814636294824 -0.5164767752812074 0.4117539437498199
Ni 7.126698842859329 6.062053910064852 2.576144869697253 0.9333413007847151 -0.17708241624072085 0.06574387916502872
Ni 5.2757738485290915 4.4232125661067005 11.627153099898718 0.36035064957717944 0.13716064034511863 -0.3346190491390301
Ni 5.68525614243832 7.724738069548375 12.396829891714082 -0.4820386482079956 0.4954605780408563 0.15490716569526225
Ni 1.8692044862330233 6.495695117432554 0.3719036684851682 0.4674265547217757 0.1938547506030532 -0.3264357419972894
Ni 2.7104584940198966 1.5891688116136262 0.4497179482452457 0.7251269390258802 -0.14579594742261343 -0.039094909118932666
Ni 0.4756217222944396 -0.10163000117689792 4.748391541257754 -0.5558869016477136 0.535641006914484 -0.9347525793099449
Ni 8.660360857420327 2.3366320469645196 1.4344388733604312 0.20773433679862288 -0.08001915813712025 0.24410876166259898
Ni 6.759907832657841 0.8707992300253969 4.795514517987577 0.3527327280206054 -1.1534678406001038 0.7793332498649546
Ni 0.8484095618553403 7.392772020205157 2.482771346532967 0.4979728029397488 -0.10320870887970612 -0.27936758486489305
Ni 7.521171000630995 3.6726606023809296 3.9080758927637156 0.5887430289457861 0.5615183889018781 -0.270759788591224
Ni 7.633548331533344 3.931201617549423 12.828011857162256 0.2042705466197385 -0.45297566940376827 -0.5189838579737772
Ni 7.73694848113561 8.85290965552674 6.994025315241007 0.2886196995907803 -0.5327575147191018 -0.8463611379487296
Ni 6.937843874885446 0.7565659526872655 0.40206934580952225 -0.6929755511043162 -0.34727941821551805 -0.03336571994463931
Ni 1.848947124405974 6.252335834422451 9.172603879970007 0.3786594751886962 1.2933080846599145 -0.6345310338141781
Ni 9.173071704910997 4.78444928405512 1.4437845345368157 -0.14911524160383352 0.32855407389187286 0.3381481453382112
Ni 6.27792170426464 2.1479125495333937 7.190092734911316 0.3142517983365878 -0.21336890937658093 -0.17109920207409243
Ni 3.4772217660290172 4.344386772960698 0.3721619656533597 -0.49075905880012893 -0.3305564490338823 0.30380000687564457
Ni 5.887269815798745 5.54123289274775 4.588026931562786 -0.18782577080015395 0.5025460241327281 1.3718604284435212
Ni 5.146200790066019 2.8818016364999557 9.597823335262934 0.2953649887344139 -0.18261645868507262 -0.7574619037131599
P 0.33784185835109987 5.3365730281187895 12.286496359733471 -0.12827465070939845 0.5225034410912615 1.4555822322432093
P 4.028577843683726 6.069152566505361 12.531114615654271 0.3757119625245981 1.181498264374759 -0.06543740366820343
P 2.6263945065539263 8.521476456985036 1.2903343413442059 -1.3437703550755244 -0.05531214230874345 0.030803101423785662
P 6.193776434473015 7.691954198200989 5.86769251609634 -0.4953947577999274 0.9907116111740679 -1.0674446423607487
P 4.738886024840915 1.1261485592065168 12.616465573276441 0.5840955028714456 -0.5923960523173412 -0.33839240013853333
P 4.027448922494078 6.255840005795119 8.230665455394686 -1.4235689125614062 -0.624149433469538 0.9228131475598816
P 4.748992127330647 1.009598735587227 3.8659490696508 0.003750468181367735 -0.2613575214407176 -0.17802986775565469
P 0.17182361133837362 5.665233596218718 3.5774600331633164 -0.15963311041602185 -0.7461822170342827 -1.0586676674990672
Ni 1.498096481402319 1.0676343161046664 2.633710818999799 -0.4859714076034985 0.2606440403134608 -0.25254737934825533
Ni 1.8312275774132545 6.5602965035889875 4.731035958456577 0.3963900596992399 -0.44523510622640095 0.30550361983031254
Ni 5.741756390137838 5.489636678696064 9.33524168537245 0.5207566336034839 0.1525486927654147 0.37192781289181753
Ni 8.786339430815561 2.2300528552922034 10.169555988822317 -0.12517852828257797 0.12113264034797847 -0.2273017174075892
Ni 2.3453202244400524 5.168806307967536 6.871095732194776 -0.8613475840552326 0.7316194887287594 0.3340071265866441
Ni 0.5234988183789478 -0.0538946975938095 8.962061884374503 0.06888216768369428 -0.32015068031952604 0.5207748884359289
Ni 1.6121175215567967 1.1465413915763236 11.490568086142503 -0.6907947414029135 -0.10025399712675637 -0.2824693637186684
Ni 4.1440077774828845 6.8632176685649355 1.5949226971330257 0.13073236822127163 0.405395862742276 -0.3427334507160485
Ni 5.704240081163446 7.840240254303671 8.170019809086778 -1.3491023088113991 0.015186735042767394 -0.7215471920944219
Ni 5.339679819232702 2.8946171498448434 4.913739660652305 -0.060077682018186855 -0.23189730719807158 -0.0019509530787837368
Ni 0.8080628216742619 7.550848080864468 6.826562952242482 -0.699229502433828 -1.0295908047377687 0.6993961099186793
Ni 5.056600573086013 4.5964252020768175 7.10241619963847 -0.24485900956506218 -0.13971117468111421 -0.29487802179566636
Ni 8.119860485925278 7.077532067207767 9.078885358490165 0.27836999683831415 -0.2506223944114006 0.3969623872629422
Ni 4.750536491518085 0.4390744792692416 10.434517404580578 -0.20726922423674624 -0.24250002241458238 0.18680709972765247
Ni 7.9390163427131375 7.178755656756392 4.600570600685207 -0.11936269293174927 0.3914373436796549 0.3920976029714731
Ni 7.250166695528784 6.191870815504888 6.939896705176702 -0.1115820205450659 -0.2640265836324485 -0.19738410391255037
Ni 2.3359908197287993 5.208417894669916 2.6113319884731627 -0.32412586291719014 0.3283746108912151 0.00048336739432174817
Ni 2.3875689710414503 5.189849398942581 11.348894798800304 0.006876672515175254 -0.8515498812385205 -0.10159457031505084
Ni 1.093021495817477 3.287716539449896 3.846069219069569 -0.5026007886300634 0.5141049326149211 -0.768442828204696
Ni 3.6811862152051535 2.5645928449478204 2.6992740460098132 0.4005447052975618 0.38733052060013295 -0.3738075464130336
Ni 1.0362774011409954 3.458517799758924 8.208670458072529 -0.5485541154317263 -0.7208072286046038 -0.915897394276655
Ni 3.5547199478559928 2.613877028403106 7.035028635985984 0.2656538348232263 0.032735285449492 0.09293432353689156
Ni 4.068586810644861 6.913287581168216 6.231249392873725 0.24426199941101157 0.20943332176760063 -1.60244030238175
Ni 0.852948728174678 7.2011986100066 11.28505024140941 -0.41889955365566567 0.6958988953986982 -0.08935020573005903
P 0.20188813732413521 5.565698872769808 7.783238765595949 0.8764849539173034 0.6772856511728852 0.7891499788450602
P 8.507224955886917 1.5989768789092906 7.947833668772767 -0.47436981880882817 1.0441687025519437 0.2846686853628323
P 1.8204531535792512 3.165531141251882 10.319716054099816 0.06157894915406169 0.508412510215834 0.3249804976080016
P 3.873879515223841 6.132507623668423 3.84778788868869 0.6674383260651603 1.2839590393448468 -0.755680386332705
P 7.080738203386368 3.8611001273570227 10.232792735044704 -0.923639757226235 -0.15758856918216732 1.7482048823457956
P 6.30122263761898 7.587416096039557 10.230082421052597 0.4875189545962766 0.4636511468397434 0.5418098547293572
P 2.3670226053898515 8.487265629253935 5.649233621982071 1.2770558844671103 0.745305213745968 0.8353712145961292
P 6.884414292821772 3.9145568035292486 1.7447260233145954 0.14878742595076955 0.3618370043147187 -0.42033217233713416
Ni 5.342434386935444 2.9232194971057726 0.395239824180626 0.42865997547653917 -0.25061133866780716 0.6328533890014392
Ni 1.27456105448244 1.0389506865180826 6.738476392793557 0.933718738728792 0.7656356977732041 1.0729385755957843
Ni 6.944996719543057 0.5836739303350087 9.161975764322182 -0.11522270262144671 0.5670550024493912 0.8631949216766166
Ni 2.5110187609718704 1.471977760758616 9.114244976423853 0.4380121061154005 0.4153198067242073 0.28119769609509637
Ni 6.411604035858032 1.933173676523254 2.6200698384810406 -0.24143609992644227 -0.0604566626241604 -0.45474381704778455
Ni 4.13031622129483 7.0097516389812835 10.468567473934275 -0.3307564808598304 -0.3137576323089887 -0.9070044626623992
Ni 8.31240928403169 7.076809557646392 0.250845385202899 0.10436724796418156 -0.1904629513126849 0.3631783488339616
Ni 7.510866208011885 4.141731872364554 8.175241746941616 0.9866230429269911 -0.600565732612327 -0.21656787592985283
Ni 3.2197464524635517 8.424542767957076 12.20413297914759 -0.11475167652229915 -0.1385516071553743 1.4906785617257101
Ni 0.11296075737315991 4.760886440984781 10.162232451280833 -0.25873242511304473 -0.025459834834001313 -0.26386203303012623
Ni 8.594431859944867 2.39549851347754 5.790431859287666 -0.2833779915758668 0.5040444630551255 0.3173499776459373
Ni 3.587585101529034 2.682127087844483 11.492300302815897 0.02514513180705992 0.33827181540026907 0.10164342127511526
Ni 1.0900321125072885 3.2554745502735405 12.755641686947138 0.11615935550310318 0.3753489227582245 -0.6235092287823778
Ni 3.0044024776957605 8.503269216038388 7.934628000264738 0.2894797335982305 -1.0184057346552267 0.2682753316064735
Ni 5.600876057039248 7.932558913508349 3.5207927051277306 -0.08953146850292967 -0.12005997610909003 0.36928034796664144
Ni 2.9817879284247257 8.378564065745081 3.50660893930099 1.2410105608077788 -0.258141071385949 0.2899828984868941
Ni 3.2701144002609 4.238394620306999 8.912559141776901 0.5450515015951065 -0.14614947410729023 1.0830954615241282
Ni 7.382322725673772 6.077714304807653 11.446948377648397 -0.22755548528960812 -0.8450269925183381 -0.5900110970249323
Ni 0.6346596238073324 0.03630429918518566 0.3756968436823864 0.16664245185431947 -0.33420253042690184 0.1578197113563669
Ni 4.650730826983659 0.3774019662472312 1.6097269180455973 0.38702738753741733 -0.37609659955752645 -0.3501569968736292
Ni 6.023498993595983 5.595276607938593 0.5167000034064099 -0.27797841782685034 0.1721592679074906 -1.1087113623200195
Ni 7.879924091962188 8.697832009547135 11.418476082108512 0.4629458932426027 0.09213316779183486 -0.17352940878213985
Ni -0.0453257341959031 4.962764643802447 5.585323135593702 0.2971099964499786 -0.4911511520322251 0.773121721737604
Ni 8.049614493820602 8.755614711718092 2.4768756685121476 -0.6483062332213996 0.5357875597946773 0.12946172903896414
P 8.498310994173453 1.5824314099538053 3.624027580667833 0.2793004790723835 0.09250083554389875 -0.1057643854220243
P 1.9636184231656892 3.3469623234826384 1.627334476056304 -1.1745354599036806 -1.1222119679096156 -0.08877119329813743
P 4.634347922679483 1.0721138753851909 8.334733926341222 0.42887183437702914 0.4747084330951695 -0.5639509096027707
P 8.602668468944543 1.556204312875896 12.424826234080408 -0.192602623363507 0.5351357851432913 -0.1629287504481581
P 6.475013281238197 7.752852722855375 1.2515726065133939 -0.7065849143576347 -0.05948350007761369 0.970921315921018
P 1.7547047834941345 3.2821712785663437 5.9457199361770225 -0.15825319934935972 -0.3845017929020862 0.024275327607596903
P 6.894664897223778 4.091851618521134 6.076449913075247 -0.25828890981772296 -0.534381680586086 -1.2366227161527283
P 2.2935975712151264 8.502447361412326 10.215317938165901 0.15904972710872609 -0.3789446105292828 -0.7104906771699441
