# total energy = -381166.70599880547 ev
CRYSTAL
PRIMVEC
9.32087130793773 0.00000000000000 0.00000000000000
0.00000000000000 9.32087130793773 0.00000000000000
0.00000000000000 0.00000000000000 13.64203732727540
PRIMCOORD
 96 1
Ni 0.9052905527440733 7.594347630820284 7.3043147404092466 0.8356368095526898 -0.07147281122900594 -0.8498256994585622
Ni 0.5635081851244153 5.483580409862859 12.831822552323402 -0.6674105581510182 0.3080220153767921 0.3132089588943703
Ni 3.4486850809223997 4.915864783453867 4.553207392571164 0.34126097993558 0.8664080292972756 -0.5313860882928719
Ni 1.0369376062647597 5.35719871651421 4.807303663857949 -0.16577521875801773 -0.035436486430738975 0.0980302500025602
Ni 3.679003809637284 3.408568051040212 6.325744429944269 -0.5693653957501227 0.6766770710546087 -0.007946251430270185
Ni 8.577820719565473 8.010738912401832 8.844733188828098 -0.32063996125111877 0.8110300667476031 -0.6026465264007557
Ni 4.503611968709609 1.7404117225050872 8.171962022502251 0.765285770632953 -0.9706585491779347 -0.01851014298904554
Ni 1.3332760660799088 6.109160005023856 1.7834508455257665 1.2061836829365808 -0.6605886501331784 0.22575288486323059
Ni 4.009372770405005 6.0141430434488035 2.3095282758637294 -0.14153280127088527 -0.26238596270523196 0.6909775468376809
Ni 1.694273409792069 0.1515592307830744 5.838205073897871 -1.7408949789479438 -1.4274510212246319 -0.8057544201709608
Ni 6.571204914013154 1.69973544034759 9.09372721518981 0.8802737315357743 0.4151987077653107 0.3134987222206472
Ni 2.58110770536381 1.6079248584843113 7.28288326113227 -2.482199556174951 0.8101078120436499 -0.8299060777164998
Ni 5.826868098190225 5.157396520288704 4.805107666590235 -1.7851511205528419 -0.3200030989980682 0.5982687090480342
Ni 1.492038466168967 1.0167299573835833 12.442138363149251 -0.12039576218195394 1.5455788133080157 1.8951133461062974
Ni 1.2728861412177581 4.823923709393017 10.002082470402579 -0.5170527023893353 -0.9684605130853515 -0.47744871484446805
Ni 5.419350286043585 4.311033447706847 0.6098674024861805 -0.4151688829686398 0.05432561002575805 -0.7946315707849217
Ni 7.440282949843824 8.353989317244176 1.506217375522309 -1.0484372480203106 2.1718319233841177 -0.12089507041587565
Ni 8.884691763898948 9.010094765765805 11.254830869273574 0.28427942034421366 0.22340623900792492 -1.186627358071208
Ni 7.4012284992847235 6.813193373539493 4.808668239409704 2.0409211206034525 -0.7908422789458186 1.0953814779803328
Ni 4.282213313785908 0.6259123502648047 12.096776780967613 -0.3543705207343445 0.2598218015224816 0.04766131063170502
Ni 4.278009600849833 0.11144872551076508 9.76000453051219 0.6729230033288154 0.3383458631713141 1.3344989570759276
Ni 5.951944869563153 5.376427673913596 11.980382401168862 0.9625603455508326 -0.6872342777451648 0.26139608798813696
Ni 2.341598597591342 2.9639811339118194 3.724044123716445 -0.5282580841868515 0.2701735770704508 0.7544179746805136
Ni 6.319056704818695 6.245254046220377 2.8554833962404365 -0.24231850253139556 0.3749560581951801 -1.5925798646479021
P 5.864524418061053 0.1279662414620256 13.624902864375166 0.23556241475448464 0.5886926353238249 -0.0736487358344022
Ni 2.4377993098157984 7.994185045052676 3.7047955924874243 -0.435579842524824 0.06292415032804648 -0.7308011065925221
P 4.087220687128061 5.722828533240183 7.118919814882834 -0.20230056737756127 -0.6323036871455562 -0.05498381243504724
Ni 0.7772124608269859 3.193675364252609 5.917670161783697 -0.06462544928986934 -0.6044457843930235 -0.1621057403262305
P 1.8207949162095456 9.154717404160793 1.8553445896910294 0.8446559823321648 0.39612857850773714 -0.6795009136566491
P 5.468806828923439 7.575622000468677 10.138843885980968 -0.025220465129685597 1.101250278056284 -1.04397304160137
P 7.691499071912767 1.5893763246865527 6.94469688564285 -0.23357366645923 -0.4954855177415209 -0.15343238092194866
Ni 1.3867778670844995 1.9742350988119104 1.0661370996457844 -0.10166604698293458 -1.4898779202012855 1.4852057115365969
Ni 6.536279609420087 4.134850339241904 9.558593551908043 -0.4669920382875184 -0.33047340240177275 0.13196958306248238
Ni 1.4656231170318572 5.084516627944646 7.518645378660164 0.4716953573004586 1.0750607641451098 -0.8053453576580002
Ni 2.6312353509740345 6.81696832639783 5.861983548556897 0.366050271065118 -0.1848605175242429 0.453636957136851
Ni 3.4390100165595485 3.7195589204684647 8.820777617615223 -1.1048184550235165 1.0743467687972206 -0.3345030923864562
Ni 8.411452488532209 0.49661788464891954 13.276621985316412 -0.7394035035495524 0.1439766348256875 0.8610249106084913
Ni 4.707077267338391 5.617223061919275 9.928688065965236 0.5012877262455947 -0.5617521021792389 -0.4263796640827947
Ni 8.462670676079286 6.467715280467165 1.2412585608747657 0.05934723161006553 -1.862901023039811 -0.5231081645547959
Ni 1.0632411049468078 8.141212468231494 13.614521277971173 -1.687667229972055 -0.5665556942154695 0.5065242920541857
Ni 3.9570733617923293 1.8962287272775167 0.4458759936229802 -0.005544326856996903 -0.14948162380431676 -0.14895711875941442
Ni 8.066608214705232 3.6610890950848765 7.674123103718906 0.5374857734327066 -0.6965177599296198 -0.8908941873640978
Ni 3.3171116622846286 8.41583329802213 0.04538891466410371 -0.23251540039804472 0.9578554838759955 0.3462810588579907
Ni 2.3738767747479446 1.4687083254173134 9.471325030607403 -0.5389261054236589 -0.9914574882011571 1.49218548528854
Ni 4.434833259717819 3.0456692495919993 2.3998120990154135 -0.3231809825054176 0.6199950449815322 0.040375061382936915
Ni 0.4740912029994605 6.850309082877521 10.587229990232961 -1.7085137344037606 0.29578407854970346 0.8139518683800886
Ni 3.8840536563794434 0.7796200418721925 3.248483019320047 -1.0973573707597812 -0.030801815872205023 -0.252580546579036
Ni 8.5350192787618 1.2022246162324268 2.010481170861832 0.40834157563416124 -0.10721628737720243 -0.2950099193878403
Ni 6.271557544902424 5.658700939004715 7.60010140464609 -0.7786665628152332 -1.0967642172604726 0.7741131391165958
Ni 5.968741079564943 6.748450601801184 0.49495038078137227 -0.40853980768789644 -0.30642227498984004 -0.7515532515382088
Ni 7.669762800145745 4.0621661851942035 5.335400926996905 0.875616435269421 -1.163945085982344 0.19858763730234832
Ni 8.954188179977384 2.877688507831593 12.683807116791538 -0.46016241696019455 -0.8256814981121909 0.2819911385306692
Ni 6.206171633047511 8.928639671867003 7.896543326132172 0.5355299352579165 1.0640471866434256 3.111208117509003
Ni 6.203421976027241 2.756321443218217 11.932894426298098 0.31032186715456234 0.012735959509429679 -0.6194116616742364
Ni 0.18078948303924108 8.10112340096307 2.8438462884783755 -1.5576717399168076 -0.16449660915591025 -1.1110487522039445
Ni 8.612904478969877 3.4490392740300955 1.2733409997350098 0.9067249837487674 1.4183475162614672 0.6164217258079772
P 3.421542703827388 1.323200204253086 5.245622295067251 0.4485508008631952 1.1627271544148428 0.07101232665281963
Ni 4.530819591903407 7.517096249857557 4.412435206091681 0.39073183297219805 -0.7146733477927241 -0.5131708508364258
P 7.449958014206675 4.944535783434724 -0.026266215197027327 0.12961213857389936 -0.18190657710224156 -0.6008840351836942
Ni 1.8807374392514489 3.6249613980998943 13.362853093646356 0.8961104414577147 0.946955292023724 0.3610073093245718
P 2.5639852648680894 4.125333729690391 1.9418077877152253 0.25378073753472424 0.9565051404956882 -1.092534238339525
P 4.841912990915466 2.8152107078082875 10.125597063753142 -0.1084848696769809 -0.4610517615436834 1.0107294490568914
P 8.361557864703363 1.4701996648181386 10.185308429187918 0.8908170542692594 0.0279607468789841 0.6017952341440539
Ni 3.8679658325930455 8.850167256769852 6.448004434023889 0.2431343135644716 1.614531172108013 -1.3680120012317085
Ni 8.199980561495247 7.204996196749941 12.514236234395002 -0.8333978929198421 -0.3825066168489284 0.7756977099948963
Ni 7.396623988884676 6.644923684770176 10.119363265057695 -1.1791570178360917 -0.4767378048203725 1.3785362978018
Ni 8.338386178763047 6.302745180122174 6.831590909222918 0.8872401355512785 -0.8400935597724628 0.6926346228251298
Ni 0.901576185548894 3.18414943382984 8.510912709434594 0.00946217385416435 -2.1153797539336603 0.1318572258543342
Ni 3.352782636578108 6.038498480038524 0.0890227092708617 -0.3234946570910945 -0.8001609852435831 -0.541517520299919
Ni 0.17795314191629735 0.71151523187215 8.024641923966021 0.42527434683375787 0.880655283244909 0.012999240473145355
Ni 1.8707920696221982 8.587383933473262 11.321840476901135 2.012146105353289 -1.0663089860944088 -1.288969862295877
Ni 3.732980975075888 7.834415990868061 8.3805221093591 0.2213077046076834 -2.0812840978015315 -0.6590418744713488
Ni 6.6457625631831405 3.8885556371956835 2.5812102349476165 -0.6114476696321534 -0.8926985875626884 0.8760146991491042
Ni 8.33741680815251 4.35473901302227 11.020133195243018 0.21640743909258858 0.7032705052724211 0.35067558838126056
Ni 5.866575009737187 3.2466085921106353 7.166994072555547 0.5594424802094559 0.2681742872522349 -1.3054200374321003
Ni 7.753687924927162 1.1181503575109268 4.1610391912075135 1.7506109206841272 0.8526282019043637 1.9086363202933967
Ni 5.682441198091596 7.5236022179936555 6.46097815472394 0.2160174027430215 -2.326937321133115 -2.082736513977342
Ni 6.367898070195708 0.1156906540189862 11.044224851176217 1.2142952563001215 -0.45316027461074854 0.5282989647271159
Ni 5.227685210423829 2.603477796376182 4.542770813026767 0.37120276180033496 -0.20113457209391813 0.6924628731339558
Ni 4.546515939097088 7.304543101754999 12.022126855172202 -0.6490261421065597 0.38075852380957004 -0.20004468146384904
Ni 3.8904664158029902 3.5365902177297683 12.114320524844066 -0.05516970319360821 0.2966209726287021 -0.6689010266536157
Ni 8.466865068144106 8.712507309202465 6.0867088224315635 -0.8430986651473737 0.6373793018962507 -0.1389634978818123
Ni 2.638244646157911 6.532802924441914 9.992819388549206 1.57016113063307 1.375819155980953 -1.2191806094168811
Ni 6.138791054743995 1.0934314069422553 2.7198535344324224 -0.7294039691346793 0.7565902997414841 -1.474232757464861
Ni 6.723265607669755 2.165145183859999 0.6074877840547395 -0.6815943058505681 -0.4779567648291382 -0.23855080795884723
Ni 1.4055967061486576 2.882255734746619 11.141015574551124 -0.0903501077494831 0.0006677154909859468 -0.7382102545723996
Ni 1.1076923399626428 0.9779551329621377 3.653815087157353 -0.4395609386597591 0.05381730293077183 -0.2820209633273401
Ni 4.857385637199024 8.536939378240362 1.729483000958418 0.5011450300201433 -0.6453450937105466 0.7885717377440871
P 0.5006025571104984 7.532941730991321 4.828885209162136 0.3642052474365792 -0.550464959301194 1.5376181637000423
Ni 6.13370185903868 0.5047307709894067 5.8328987018923115 -0.5191460945832543 0.9668047226494834 -1.0844859141137515
P 8.425023677079714 5.267522614168362 8.888237423324409 1.598347620369615 0.8675897083102027 0.3601729863487345
Ni 8.411443167660954 5.159335261509777 3.3882998164958766 1.0031891748157884 0.11411687115177765 -0.7642825261794192
P 1.6654159923861087 8.321934840997697 9.081176662044744 -0.043196075771499795 1.5160206400349245 1.372274118942172
P 2.424638239603519 5.6631376737221695 11.810716445885525 0.5303039109722867 -1.1221590031844932 1.4507578142713726
P 9.106295477990262 3.0453523399693245 3.7427334026701566 0.1697480873628367 -0.27345584736614836 0.2625443426599672
Ni 6.538600506362621 8.379556467097068 3.745543645353586 -0.5367640647753337 2.2027689792826064 -0.7694242182813588
