# total energy = -340853.5475693692 ev
CRYSTAL
PRIMVEC
9.43534565966441 0.00000000000000 0.00000000000000

0.00000000000000 9.43534565966441 0.00000000000000

0.00000000000000 0.00000000000000 13.80958211227004

PRIMCOORD
 96 1
Ni 6.380595792278134 5.1537272503404115 3.8975062920408456 -0.7326682417082478 -0.41332077401630746 -1.4299025680889181
Ni 9.053855624899807 0.039494469255650054 4.186084447540441 1.190706156126272 0.16811132309036209 -0.05724329789318528
Ni 8.370793221704831 2.8832528823979993 4.140637218799534 0.9761514539717059 -0.8521450916203582 -0.9098943826156846
Ni 5.166861251296947 1.9047509404451 13.368365503776092 -0.09999405859715037 -0.8656878633017995 -0.004116336161218717
Ni 6.205702227816686 6.435207572117521 9.22027153141625 0.0019774354413449814 0.3837227486442166 -0.023294708861882462
Ni 9.31272376444255 2.4958470309077856 0.4195954762483423 0.04724016393388638 1.0330327405397823 0.23680425758138574
Ni 2.6881582431894664 5.486691158210505 9.917723780055775 -2.354320084021442 3.645052694644697 0.23431851504505452
Ni 7.785943329972911 4.300111541620774 5.85743041538346 -0.19418770846243977 -1.0317302196782747 0.24432936231383728
Ni 7.902469847080103 6.4448882366156575 4.913905299253747 1.1164521826077032 2.3199958568182755 1.6744059940867744
Ni 4.623583491903026 1.8363163794266015 11.122112611304601 -0.6726448099667641 0.5187218625616421 -0.10911504706181209
Ni 7.4719161605509266 5.980876814891169 1.4285877372321631 -0.6030134228218712 2.2429530077006596 -0.515844541013847
Ni 4.665929322573234 4.186075955729478 13.719709464708922 -0.09614794537818279 0.9194473164114422 -0.2681154089898415
Ni 1.5910917494981902 3.882257830154455 13.79048304788053 2.378025398058182 1.3270131902218438 -1.1669339934073386
Ni 7.6513764322415145 9.058931840786745 8.10391824795827 -0.17486226866095048 -0.37813702702632296 0.7785452067460205
Ni 3.1371863362365264 5.839261714060252 12.419661326493332 -0.3190741594258957 0.49214411207311376 -0.8642467599798987
Ni 4.675477892234164 3.380438978952355 3.5835310170191916 0.9132571284403304 0.35075966345463466 0.812139240651382
Ni 2.3802829190431 7.885184294097076 4.984389217318049 1.160004356167041 -0.06316686246647185 -0.5358101855024966
Ni 8.895945682364912 3.5740617042605862 10.122450963500318 0.7389211645964952 0.2903816765872096 -0.4772188582218491
Ni 9.207123377441443 5.246542744169029 13.590341442356154 -0.7453702626559485 0.14149989115042083 -0.21432793085574053
Ni 0.5576940238059109 2.316122569542784 11.69351241800524 0.5979748319566992 -0.7547681589310807 0.7618692887522363
Ni 2.0544238263456154 0.5146631870513317 12.70894430230288 -2.5681240240529126 0.8578100032156194 0.7644229084120254
Ni 0.8411072711707308 4.855560896728726 6.87876033416237 -0.17285577975388294 1.1798419597182583 0.5496026113008986
Ni 3.191241430690543 4.3494395279718985 7.992902916166246 -0.36966755610273105 0.08396451593811345 -2.0046271712684254
Ni 3.019036939700799 0.8949264819868777 3.687048079730642 -0.14808937144248044 -0.8071456440915326 -0.36509510624070024
P 8.87155531420928 4.936572773318388 4.088326719731196 0.991783246971692 -0.9675462288011981 -2.1451299886128994
P 5.2049139997579426 4.773756451115823 1.9808045429667607 -0.032184298042028436 1.6169665210223831 -0.08214571756181982
P 6.940413712359416 5.008960744107568 13.306001644061785 -0.46529331042885674 0.3216614605370976 -0.9915557043419182
P 6.568812064606413 3.380552203098532 9.076043783412299 0.8745473705749583 -0.2623738785203739 0.6987983284336804
P 8.814867758356646 0.7305344570833491 6.362585604759576 0.4882211228696237 -0.04098235594963264 0.4961159522366682
P 8.501180261373193 6.736657425968341 7.639820021055047 -0.7122246291419153 1.5401720404701473 0.09090829424579827
P 3.8687369800318145 0.25156140797611914 6.043003847433056 -1.931104419488926 0.17726007946916567 0.0025333079448149917
P 5.78660305074242 0.3518355424341489 9.855442951381997 -0.351110361925834 -0.9649211324735253 -0.64202888485312
Ni 1.0856308549273963 2.740439492686708 6.384086870118593 -3.181932994828391 -1.112906888458606 0.266830885850463
Ni 2.9380061924201066 2.015163353658731 7.4685392503911965 0.38367055525004246 -2.167274128810106 3.7796602295506587
Ni 1.0527109344264256 7.194130153251105 6.860531246627869 -3.416169491682601 0.8159419022269239 -0.5020605998558773
Ni 2.0814089145178065 2.0733888708302675 1.2733687552380766 0.262675983141825 -1.1780090202745777 0.05416183075438414
Ni 7.680399555044893 0.9163371680289536 0.8484196639446638 -0.4019495560648884 0.6623159172369304 -1.975901006978326
Ni 4.690121548473059 7.554447127768465 6.6504872459857625 -1.0392692083677972 0.28794992721726537 -0.04669020496768733
Ni 4.007483735826247 5.254666576657232 4.737059561805297 -2.948271396641045 2.441266308295699 -0.8622469559410505
Ni 5.507269646778179 0.2209106880714464 1.2156687868117122 -0.46177706974548216 -0.7036224892952011 0.08452835886138346
Ni 5.396064664541309 7.218105366204091 1.91171611250409 0.20064426272106092 -0.9253135453842323 1.1004388378985823
Ni 6.156562948375856 3.528526726806392 11.688071054246883 -0.27295602491159443 -2.0280018414386234 1.3359050933948347
Ni 6.364319821265187 6.9423479581899405 12.05728367251555 1.1255667433144616 -1.8808406382373672 -2.866287144357754
Ni 7.225917832290306 1.14623407916865 3.0131124862520857 -0.574634614568862 -0.1416148194617303 -1.4786026043977827
Ni 2.8293393181267046 3.470433304472062 10.199743426888066 -1.2242418259898722 -5.011524347972479 1.2795190012956221
Ni 3.0806308752211016 9.289484508439715 1.2039161204385367 0.0070612777221555805 -0.8709663380919194 0.1368711341291578
Ni 7.438496166737674 5.060194670252672 11.032778759970926 1.667298950728348 2.358592743254867 -0.5228515684592995
Ni 7.102012874990579 1.141705113321569 5.141859472751957 -0.3298704787104512 0.5052302558331105 2.3709286391124005
Ni 2.6140436041710875 0.7946221544232008 9.775029275697971 0.037098704624510294 0.2255448826174825 0.02716447622993386
Ni 8.029837576183743 8.495235993698898 12.36184058564438 2.973999140424452 -1.8268510713947892 1.1806102053428507
Ni 1.6866906702536602 0.7428315428927256 5.7895563138885375 -0.9010279333639901 -2.8384495533201957 -0.24789573950885693
Ni 5.200970025332776 9.296126991682101 4.3617979435271215 0.1677379989113434 -0.5414049059814547 -0.03155052111277147
Ni 1.1511593295273508 7.766676354431787 2.1424735271547317 0.3884039561699698 0.13270131902218435 -0.32982265619165135
Ni 7.852481386542944 3.919895423412801 1.8455120671652794 1.0707605941078593 -1.614608819423484 0.8683461268602528
Ni 3.132902689372829 2.5497039831059913 5.47527816427586 2.193454900970532 1.6896220397055803 -3.2101529089060326
Ni 4.263643931206256 8.185247152157228 9.13479013165625 1.1654437820150574 0.2893712330448242 1.3672555826816581
P 7.985265003972054 2.0932314024477914 12.633958780893488 -0.8767299800485739 0.04277955705937149 -1.105843039633289
P 1.099283799887243 5.411095169946309 1.6053504436400838 -0.9677586019223203 -0.3328560437013365 -2.4001749375720274
P 5.6259945993903075 7.162229250065728 4.710268841750709 0.9152762157528881 -1.2916854614548272 -0.718566255089227
P 7.489296066989101 8.261824416354957 0.9310506458246584 -0.4435705740397845 -1.225559259249715 -0.2408354902279659
P 2.830603654425681 6.231932488347698 6.816050197267673 1.2715799489542037 -0.3811393041877565 -0.12236085632812474
P 5.33092303910746 4.5156431392142595 5.943395848368367 1.279078057103462 -4.500532249954926 0.7603034869270131
P 0.23433529766983593 1.7624753654281504 2.6322585386873167 -0.13514026748098018 -0.5899303643856679 -0.6238025916530805
P 1.546226681575543 4.089844866824519 4.891229333378143 0.6179600168293744 1.495667016079237 -0.7737153894575449
Ni 1.889663822967011 5.9157729308393785 3.3858190129648666 0.6290836375463617 -0.6927274396492521 2.078186175602498
Ni 6.6726952187238355 2.479561624549323 7.04979201170463 -0.7871961975527991 1.273108726893904 -0.28468282643021936
Ni 1.7440481356378392 7.987784241224492 10.329981388097295 1.2783365509517468 0.7979701482398516 -2.0474450377649
Ni 2.465116110566237 8.50244459767217 7.793796368044839 2.6730808259719767 0.8997639790499019 -0.48299021348798754
Ni 8.233291931518346 7.265376447232999 10.087002370401393 0.6387581845216483 0.9797468846324483 0.28453627355002614
Ni 4.812054518560203 4.523757536356946 9.65745449170409 1.587924368153762 -1.0472781947152028 0.15754923130379964
Ni 7.373250752503162 7.963667498088785 3.175485347215458 -0.300335959586444 0.698431689122881 -0.1445844436130155
Ni 0.5594282403115225 0.09314384385253147 8.224393457163384 -0.35677450219014684 0.5242865011336132 0.8335722137141772
Ni 0.33199301081662486 5.60588787809837 9.21663892339307 1.5961159028256189 1.1271217465064072 0.3816208718098653
Ni 3.8893343392905186 9.244213720659934 11.915887471700577 2.1534156256604593 -2.027878942707514 -0.8839511803873615
Ni 5.184392123263357 7.698053086502994 13.501366134152041 -2.684646162212073 1.6731934618359119 1.6564393823060244
Ni 6.402372569726183 5.8551791419436405 6.8772129374979505 0.9115296042262625 3.297397895367631 1.2398833891818712
Ni 6.603034062788419 0.46045052232721967 11.956695341051882 -3.3664335579100535 1.1588026225494559 0.6477858419415553
Ni 0.44774205545339985 0.24596341748221662 0.7686457046865364 0.6933113371771801 -1.2270111612048933 0.6808746540757242
Ni 8.75533072815856 2.2967234991644534 8.06313868464351 -0.14580237518051664 -0.5353949523419489 -0.18400459728185084
Ni 0.7107985448701417 7.2009707787493 12.0566760362644 -0.47039283643895113 0.41853214301391795 2.1934644140522286
Ni 7.046967069257514 8.350733677140468 5.82611072948179 0.2771330391074195 0.5818982381098108 0.6199449084698871
Ni 5.824438786256576 2.813355842824714 1.5546967912441363 0.985598972537851 -0.8833639404253238 -0.5145949848774621
Ni 5.594405062606916 0.4880602303724878 7.194861392528499 -0.3046716108473205 -0.9127830170173893 0.6159296166629069
Ni 2.502461208113627 3.228624269619991 3.196904525068497 -1.5855183298154307 0.47337711587825576 -0.49262927923964833
Ni 7.635308038829892 1.5413957846719901 10.26815628661188 0.8278327401272388 0.4768470767047272 -0.8199687639981297
Ni 8.043594309944252 4.7460637120300255 8.106238399420347 -1.2675070644364106 -1.7525991547587496 1.1222772739299125
Ni 4.713379675166923 2.0583678007707817 8.905080983892296 0.6029663716340197 0.5213796118994632 -0.9112462686578887
Ni 3.171153580089635 6.105678130014797 1.0001192620617478 0.22973629499101078 0.12584058734660908 0.3333620368034775
P 4.387020509157157 6.381152477663505 10.539776295617811 1.9475332544689101 2.3510478410280733 1.205016659211673
P 4.974984064908945 1.438022139212364 2.9018622143567447 -0.43259941974026145 -1.0470820195439967 0.03271523084483398
P 3.475811451415471 7.474152337437922 2.7840949493143645 -2.073936913407841 1.1625641464744172 0.6722498885211906
P 0.8250737885375122 5.260639150368069 11.33451827892905 -0.12778845510159928 -1.5648548879288082 0.33754136499214765
P 3.1574628937477294 2.3926903983949988 12.672141737122589 -0.8813841909911337 0.7718192008760966 0.14854368537107968
P 2.597909163340861 7.860510865575999 13.325431851080316 0.32786501824464825 -0.2736191124168901 -0.24203259585986056
P 1.2534384749072653 3.168757002328888 8.54325624116168 0.3698531897509759 0.4036426274965952 0.9882644351851559
P 0.025544310912088825 9.257394898344042 10.697440919169322 -0.2298229411675461 0.25534088293299245 -0.31293796462117074
