# total energy = -340891.25802120136 ev
CRYSTAL
PRIMVEC
9.07839317702047 0.00000000000000 0.00000000000000
0.00000000000000 9.07839317702047 0.00000000000000
0.00000000000000 0.00000000000000 13.28714607261416
PRIMCOORD
 96 1
Ni 6.432858681715483 1.8971663103771923 11.406417393361844 -0.31326732293613146 0.14869358068538263 0.07535080612717346
Ni 4.658159896446381 0.30351792193764193 6.191969871376298 -0.5900118683558807 0.22382352905100164 -1.416290119511806
Ni 2.814274676125481 1.8764131033796316 4.917041174392069 1.0334636574296137 -1.7231661942096128 -0.6383758614815651
Ni 3.311970351549924 4.310030750017919 4.878043120455314 0.41752864145006796 1.1397774875972049 0.02035182418347463
Ni 5.033061224605292 4.6668206836185915 2.651716058531857 1.525621139239166 -0.42314315942336805 0.47901734488316855
Ni 7.48794954665709 6.01940141737169 2.4918319355933 0.26113537812758253 0.7461847881374439 0.3248367729412857
Ni 4.836350599398315 4.537980126440384 11.560867190093605 1.0239138089576494 -0.025194496987756613 -0.07882976581470941
Ni 5.750717290381397 7.896577105785352 12.164714702255177 -0.8375977899338026 -0.49525386134668903 0.6675493977217277
Ni 1.994386823822896 6.443335147540148 0.4810994647016781 -0.2527795499637195 -0.6399997702382333 -0.6464357556715642
Ni 3.011493691355144 1.5688008260807034 0.33058696712776753 -0.7192362845730581 -0.38919945548807167 0.019134406836605757
Ni 0.6806289310165904 0.07738967120358996 4.758751217310367 -0.5547859552740511 0.2294622153940177 -1.1692150761320315
Ni 8.599135803566295 2.410494978999273 1.5817148404962897 0.6665440963856649 -0.6836031087504807 -0.33378035528781874
Ni 6.887214107705825 1.0512053126253535 4.903887490394359 -0.42472130254376533 -1.0335587882465813 -0.9321835330311881
Ni 1.0252411078952468 7.403175510373965 2.4183005815261773 -1.1355271969612832 -0.05698567335642444 0.5818979809994946
Ni 7.66840076953133 3.9149027616706595 3.7607806949356686 0.45728792362587695 -0.2589226867469799 0.728755536917403
Ni 7.799901295935386 3.8856340217930847 12.68971636893389 -0.8561830091351577 -0.3678690694414116 -0.3613058144015971
Ni 8.247411613405971 -0.047952073211336856 6.698861051336099 -1.197680530561576 0.3259798854067934 0.8217847341609459
Ni 6.6825417316078335 0.6549325388877208 0.5027659580614238 0.5044118736968732 -0.8213404475346757 0.44453268084273767
Ni 1.9568476676833884 6.112436791523484 9.180408075202568 -1.3998214324328215 2.1981525635565173 0.525499804715424
Ni 0.21082752672981364 4.867661977759902 1.3888924911235463 0.7479310814045894 -0.3068909870961424 -0.34230999002538465
Ni 6.488046234356853 2.0013317946685363 6.982395614024821 -0.03290986335414332 0.32960796907768397 1.3541858939818936
Ni 3.6438491740389134 4.488112512250707 0.7679467330918045 -0.23574779129241333 -0.6552201867324136 -1.084861038064983
Ni 6.30331908825608 5.887964439720471 4.620365637456204 -0.586329534408287 -0.307264054164845 1.019485855093283
Ni 5.119451214889101 2.895499060643056 9.239735375171534 0.6621835054241241 -0.39524848989562894 -0.08147260275419517
P 0.21755643181581194 5.4739987853539915 12.300561963353209 0.2641294277588999 0.29745323872201035 2.1036856054251833
P 4.095063475960508 6.229911200337324 12.786326814352371 0.2613948024365563 0.10242323686393329 -0.9495263951850098
P 2.5663891480990606 8.424249635761829 1.389769463912682 -0.06896444298485542 1.4271825980545936 0.6724632900835773
P 6.315393351294905 7.9853183999240915 5.805140442310083 1.6250297576464916 -1.000103079691297 1.2109096276573403
P 4.853762957675359 0.8062974975889592 12.50138419286867 -0.9436853630232007 0.24347652739523878 0.31080883409330984
P 3.835366958299868 5.991213006292326 8.094742089592945 -0.6396128192124597 1.5034525735619269 -0.09877201326459119
P 4.871729097941402 1.197676109518899 3.8803649223436603 -1.088791226357325 0.5126260340765495 0.6740460611896649
P 0.33839438533332405 5.649520440686817 3.698702641808232 -0.18512148449511345 -0.7179142233275249 -1.756051374973408
Ni 1.5830629818957376 1.3088137998356704 2.7281034751192923 -0.2793393027301189 -0.6910989029068936 -1.3295565254689874
Ni 1.9531527616256426 6.751700931479845 4.571455793755697 0.37712349816014407 0.19814643599987164 1.6739113138385429
Ni 5.773031981020068 5.676356171170102 9.366786581037749 0.04951533312130828 -1.3353471640088357 0.619346612764256
Ni 8.62150496456454 2.084753150355582 10.498094188773461 0.42730140456611565 0.7872846435015473 -0.8794746326732467
Ni 2.0080951976489314 5.343079276118722 6.811495768701819 1.6552679877057428 -0.21097624077468827 0.7553150325734863
Ni 0.6427874643814493 8.993401344553638 9.162617147926488 -0.24588565105736362 0.0468490991430548 -0.3118092503333662
Ni 1.5125783366074341 0.9677022513989474 11.400411128379524 -0.6268292942945463 -0.034289260200173206 1.2641402048467067
Ni 4.239872926887058 6.912878725458276 1.6570537026619319 0.5245850062106384 0.3296033410919937 0.22397291014467235
Ni 5.367037155937867 7.630389536942186 8.12984642065951 0.2869726509056606 1.0450385067514067 -0.961389465171183
Ni 5.196998850135455 3.0106494007817526 5.0011751839502026 0.9393916207438532 0.33507182040573263 0.11472647971131854
Ni 0.570236576786652 7.19736833511819 6.835200361348947 0.8938548126543185 0.5589362299969987 0.3108119194171034
Ni 5.310052081430565 4.79231131368302 7.248044834147536 0.1293339452118482 -0.8492729122788857 -1.5672311014704685
Ni 8.183935487716145 7.244131138812168 9.083119473807397 0.8001111058422543 0.9799564295400931 0.1056430293528116
Ni 4.618278514845207 0.21865673307919967 10.187148325468625 -0.5275672287674139 -0.587931074567452 0.898066536742821
Ni 8.375426036797313 7.2614981051229 4.7454640809317015 -0.6620248683590728 -0.9464690964159246 1.2113788539842751
Ni 7.3376204326270775 6.299951004355775 7.040912213475467 -0.5197652162244919 0.10997662373115898 -0.9473075331568203
Ni 2.5433572643926685 5.230743237891331 2.8134203993195004 -1.1175487581059915 -0.27123904222048767 -1.2706942039151408
Ni 2.4681700113945064 5.3235153386385194 11.560919844774526 -1.103519533706435 -0.9999274733453811 -0.06148638944025539
Ni 1.1394745303144536 3.385841237525056 3.794968108282744 -0.47832109014709234 0.7359962776402164 -0.15725715398467754
Ni 3.748250696555077 2.644853701064904 2.6241050332639744 -0.4355793283041917 0.4640679226621879 0.06251020271907944
Ni 1.0989304260051334 3.5303511014739506 8.36920098253737 -0.7248688002684872 -1.1814478707527976 -0.583542458581453
Ni 3.711165460078683 2.967436248853323 7.156085249597321 -0.4005362206571295 -0.7541639496881786 -0.05363295483410763
Ni 4.108735536213494 6.871926093452154 5.89165389874226 0.029875961623825963 0.23075573739446065 0.9055934412474855
Ni 0.7905628263867841 7.24848876757806 11.285636633721886 -0.8243563515428641 0.04884530363747717 0.15709286049267138
P 0.07334978620187754 5.608967257984234 8.288176322671566 0.43191344941683035 -1.158320540706715 -1.9774974049311684
P 8.639552810369942 1.6486906867887239 8.208745828662616 -0.6410112422218832 -0.1265119023820208 -0.5383519780877438
P 1.7153351717270853 3.2415583334077187 10.672780631926157 1.2094803514099817 -0.7779754502854795 -1.4313837806201348
P 4.1867370911229616 6.222330741963324 3.8464425980798436 -0.4106537687071057 0.10749602340115036 0.014628548546452225
P 6.782930604302071 3.8169468983707118 10.326398168361358 0.18837958642109492 0.483211071249542 1.368863036378094
P 6.464024805784873 7.592959321521826 10.094564147461965 -2.6140819788402654 2.0525293942663425 0.29391205833797124
P 2.374898599017893 8.622367411924456 5.78998043340141 1.9636872385209538 -1.6000329784918381 0.5875724056764526
P 7.102408341594792 3.97037174450316 1.6150261888935555 -1.1595829523589063 0.965426611355034 -1.0136764475003575
Ni 5.250089293933239 2.7095100178788263 0.2401080685186294 0.46211748380403644 0.7994310490560941 0.5286746028989798
Ni 1.4272414399420486 1.0728300453760926 6.810672358432931 -0.25959425889270776 1.6243725836784673 2.404770784472826
Ni 6.6505222385717895 0.6384252964189262 9.127365746889073 1.7038867771547108 -0.12071200787079212 -0.34997727676265533
Ni 2.6149131600859206 1.4212769355687338 9.38176139072387 0.3508956748118667 0.8998274852979858 -1.5451625517062035
Ni 6.267123534319389 2.2576693068221347 2.631147142917521 0.3824389968357865 -0.6245749510427308 -0.494096093593162
Ni 3.917317614278425 6.934076773725689 10.401510070695442 1.0550174723409895 -0.3916738851704932 0.30956287750135075
Ni 8.044028369151224 7.3384919583802555 -0.010574512471897985 -0.278235785253295 -1.066717277276421 1.4239049557445864
Ni 7.391990929874842 4.170604786295899 8.243279128792985 1.3906945304308886 -0.8665764365543398 0.10142333484450922
Ni 2.912303166571527 8.336497886488676 12.53442954434335 1.6428819553365641 -0.28907375640906346 -0.5485443452397134
Ni -0.032056714448419454 4.637706276426476 10.266832106649591 -0.38232586829668996 -0.14410133332900987 0.561900197721329
Ni 8.742047870301029 2.4980197684408667 5.797274922387649 0.20250137053445771 -0.43830469765515484 0.7238113055382502
Ni 3.8004786929929444 2.3734732912757157 11.270316845091795 -0.4235586496942318 0.2351908903476788 0.43861888646146396
Ni 1.0142744088344184 2.9750439424071096 12.672496472594007 -0.2627294620875798 0.472839755317547 1.0331764652064979
Ni 2.9985206673833527 8.369461532423998 7.975676238440228 -0.2438915034454703 -0.21848514755722373 0.08235757646230978
Ni 5.429886872492596 8.225069687587512 3.8284782734924536 1.179681008660362 -1.4765943157185022 -0.021995530434484697
Ni 3.122322716300998 8.716147214323758 3.627869386218657 -0.650444362610325 -0.20676708778934716 0.5152290189170352
Ni 3.238834815429036 4.287761451345559 9.24151564809027 1.021319565867912 -1.4015569270666894 1.1605599715601949
Ni 7.254298939265917 6.097266796382223 11.319174034111382 0.512241397043621 -1.6337769077115025 0.8224280241718998
Ni 0.61284601556314 8.891687026443108 0.41327024944259005 0.26353396026674614 1.0776313530857635 -0.08159293038214335
Ni 4.544571039948796 0.39462050616389843 1.8490263144253263 0.5513874711154633 -0.37217669567783 -1.2655666528805882
Ni 6.15427910606931 5.569149425135896 0.44894833496333103 -0.6068389672155484 0.632181302635079 -0.5480260108423982
Ni 7.9786457808763185 8.694331835314511 11.380241662068727 0.07862793421654846 1.2547464223366327 -0.6358479528533889
Ni 0.055463535796543235 4.856813297811483 5.6529366400714105 -1.0336978849276068 0.33998057056125963 0.573838601030128
Ni 8.116092654867163 8.585164156335653 3.010522303276081 -1.0238356474215464 1.6318812333506862 -1.650967817668492
P 8.634459831749806 1.6724579203493601 3.754549285800443 -0.14952456122711025 -0.015287008066057543 -1.3397198391552347
P 1.921550874679663 3.2214224571519927 1.4507971469396737 -0.3182976862711873 0.09489273281484303 0.4902733774129622
P 4.561801830360594 1.0616636216634943 8.138005172684316 0.3357076542175186 0.4525838332819883 0.8144470628489522
P 8.385639229217372 1.4433011176230133 12.651608905376166 0.5223748859331971 -0.02370711380895272 0.03409565613212837
P 6.3709985100263395 7.744986095091883 1.7980829106340699 0.4449949651911369 0.6616469161943637 -1.3882041599088673
P 1.8112211613632343 3.2926515306878024 6.066060727382478 -1.285217080121664 0.3671149648842064 0.8014645345463552
P 7.01161533057878 3.94375389545817 6.038968078369871 -0.39576708140326033 0.6870591856198812 -0.8855442359060942
P 2.3366785633837144 8.339557305018063 10.386468988738503 0.6905335173217269 0.9770999339279043 -1.693372250776632
