# total energy = -340871.3921974823 ev
CRYSTAL
PRIMVEC
9.28293323866463 0.00000000000000 0.00000000000000
0.00000000000000 9.28293323866463 0.00000000000000
0.00000000000000 0.00000000000000 13.58651112805299
PRIMCOORD
 96 1
Ni 0.9508044077680451 6.217801321621814 5.093202771390575 -0.9999159033811553 0.41976807230354807 0.45490116856125534
Ni 4.093123627211756 4.93710004255027 1.8037722719653746 0.0838642429148233 -1.065544082903926 -0.5493462723157184
Ni 6.68416659027555 4.176725721391488 10.477291816640621 0.2855919685080501 -1.1078844955433502 0.2893254674085533
Ni 5.018520647485917 2.1079312833618413 12.202466423581528 1.0475990683897314 -0.5019528706334194 0.8625742573734821
Ni 1.2213833374983158 5.432465193750917 7.569262685425138 -0.6075771309331537 -1.4093802797658501 0.2750674148276424
Ni 7.524262739639477 2.7099109195340865 3.8670610024602663 -0.0034355080441102123 0.774603191379137 -1.5778322740250825
Ni 7.814642165359684 6.4511556902083225 11.39641914399795 -1.2735494139757484 0.2693685646706522 0.0695506545056286
Ni 7.731829120481004 0.13170068298529033 10.65034332446753 -1.1491409310899758 -1.0812450385789507 -1.2671514808692046
Ni 9.225703671898025 4.605105228399268 10.540129846389839 -0.31688537930469296 -0.7859224730466982 -0.6845122508283115
Ni 4.1044116736832805 3.9787021956262163 13.17712239928044 -0.32242533528631573 0.9681506951544165 -1.032846592670905
Ni 3.5156973487016683 7.283797644410544 11.389666738567534 1.1485809448214477 0.10494497484452249 0.9178059241532774
Ni 1.5584466330419597 2.2767507020552236 6.619850717600126 0.18067167625387592 0.6593876878465418 0.8509891236390441
Ni 3.2814889502834332 2.4758139163112935 10.648740161946451 0.09171639196939042 -0.7373754173759302 1.7633034285501308
Ni 8.913778558792611 4.127024898358145 1.655692782076829 -0.26903380703905283 -0.10436544819196865 1.3188576509942447
Ni 2.9973755043068766 7.713430347367056 4.615174425773992 0.7273329455382636 -0.92919616826809 -0.6061828216887882
Ni 5.220712210147335 6.236181528869856 5.170238118798961 0.17722665512806896 0.8827353057023893 -0.21136807689646825
Ni 6.245789364476788 1.965818862775842 5.60628347183979 -0.6295906590897673 -0.11782131658655837 0.6712438158541795
Ni 2.770454208257183 2.6573416702180945 4.35036019740788 0.8604124738354731 0.8302701459241378 0.2777351914677927
Ni 5.693891151588981 5.640922736155987 7.334093503446209 -1.1527211922420664 -1.2016528849457626 0.06393922185612215
Ni 8.555225273461485 8.458998390464915 1.434314325293704 0.09923892559868071 -0.14521333544626605 -0.06646327382955651
Ni 8.990112116469708 4.891734349206239 13.192664813924582 0.9897330493108826 0.11883561678368568 -2.1901469196432215
Ni 4.233973568916071 8.036829165603063 9.09069362331479 -0.8911189017803943 0.501174340596182 -0.7245029322886362
Ni 7.807893473102449 5.395268481406015 8.667215504906487 0.940686942516509 0.31726281724876976 -0.007660087648419065
Ni 9.244882211380073 1.7475863919706776 0.7474060638226643 -0.05978637603001317 -0.06382763597892234 -0.44575883994035487
P 3.4751587804934867 5.128170651533328 7.732898514357254 -0.8554810979721266 1.7825041698482977 -0.05981568660605182
P 3.3597719238807766 2.606554744029186 1.8453338193850386 -0.5634667708775005 0.5806337695750903 0.16229420218795276
P 6.780263512210768 2.0738722023552416 9.648311051195282 -0.4650822228593151 -0.4401903447136419 0.43499157412152184
P 8.102970062897155 8.751949188613258 12.850488478910117 -0.27636993568914986 -0.8171876017085667 -0.13407505944125941
P 0.05972917550306988 3.4317425030697017 8.41960162301002 0.5128798019585683 0.49035308161096197 0.4062080742309262
P 7.316399304943435 2.915797089511021 0.6619603791583561 2.1193382243607757 0.609267631261699 -0.8458397182276207
P 1.8974593445058503 0.12686984467625945 8.31843621968216 0.4155913152180391 0.825379907711372 -0.9519373186193476
P 7.59171253048002 0.17494058468295748 5.456125533262942 0.964640625118629 0.2341367380515516 0.7098502153724677
Ni 7.563251058044415 6.414738744231519 6.346693917388653 0.4415052068703235 0.37429862711683926 -0.8103235275988818
Ni 3.132897042495851 6.246856901766446 0.17468716061332537 -0.23948154730323276 -0.3950942237059518 -2.8407828294390622
Ni 7.073864115665859 0.49387616875489576 3.33695540297423 0.5881120802300065 -0.046841900054203196 -1.1038118681358733
Ni 0.5580221637572679 9.203452481608348 6.425577496748092 -0.4634832538033114 -0.15469864922888196 0.6475804107989686
Ni 1.0544762029933663 7.198366812438962 11.84981522702227 -0.14720851149942388 -1.4436561702295847 2.748983905058195
Ni 1.8224068315763444 4.199747395116308 0.5359195003948494 0.17230016436072904 -0.9028112505166581 0.8221441743828938
Ni 0.9931438649692171 1.8418081614492778 9.721597021983728 -0.28869811823719954 -0.39418251052495984 -0.3635143920171417
Ni 5.449508658653647 2.280389611773018 1.033308330979371 -2.2124167867850155 2.28554204601578 0.7884565523224615
Ni 2.654658902594517 6.057809972167264 9.536249341166538 -0.41989071392434135 1.9661387853852395 0.036959350833168605
Ni 7.1534188510778405 7.587052498137335 4.173300319131625 -0.46002100628632386 0.25553345855977283 2.0439089995871833
Ni 7.55073766442302 6.624616575378482 0.2044194665702721 -0.1450464708510986 0.8891399236771526 0.12536981835777763
Ni 8.074025877947966 4.940144844559037 4.070695132902668 0.640357153577652 0.9735363849463622 0.313568399116318
Ni 6.534145110813118 4.583986555929927 12.889726508211508 -0.011727058628941094 -0.7304930884338 -0.26597547982870323
Ni 7.806965179807093 1.225820579450116 7.475244212178221 1.1350474291113872 -0.8230720855138018 0.13494434942009018
Ni 8.338385242599353 4.080443140797198 6.530397590779768 3.258053332131737 -0.2939763359170034 -0.07773884674337579
Ni 9.038773251012252 8.615341547268718 8.712309208314979 0.36170844915665445 0.33686387930914885 0.4390593164329922
Ni 6.521835941716703 3.1236141095422942 7.677859076582322 -0.18734574583994187 0.7426736896603919 0.8102121988319981
Ni 2.164018764267231 8.611117812774848 0.19955613799590377 -0.8665083023205656 0.6246723958525435 -1.2488187439982879
Ni 2.1651884138193793 0.48202279166649914 4.849107121083507 0.5391893863873747 0.08816235606954494 0.1756048032539298
Ni 3.620427398283695 1.7480226898194946 8.28415713316456 -2.0382908820694574 -1.6693653463390734 0.36910705561357077
Ni 5.719966910255521 8.576817375511457 12.540322481599405 -0.5300776538940937 -0.8361008936733019 -0.027065745868540485
Ni 1.9119221540474918 4.7216060369664055 11.68392364538244 1.7780703024466604 -0.05145111669144042 0.5394336411876968
Ni 5.438434119640053 4.321196006947691 3.6690913177061257 -0.41441529263206694 -0.5409482780600102 1.0271210030410376
Ni 4.3038833369893075 0.3226496855466563 0.880966118278552 -0.11816327330700939 -0.40628932109082283 -0.18944942244650598
P 3.5461732175881955 0.15354806569148605 12.106953398129088 -0.20773330835735834 0.28673225276008035 0.2706402322942242
P 4.025516026511003 4.862001114955997 10.776833497185988 0.015553374353566763 -0.9399927446629618 1.14227891386282
P 6.607990842458663 4.077992446497459 5.469114213051558 -2.2641005883125525 1.2887837144269998 0.33335586615589036
P 5.3242354784454 6.269507258173125 0.11097189369999823 0.10042189016318835 -0.39734702429587054 0.1360401535874302
P 0.09428860659586612 6.87830056713328 10.038365969504305 0.2635812685649138 -0.4685244157716447 -1.4720444915642907
P 0.7142715629382389 2.919435999228815 12.300384656962235 -0.18749229872013515 0.15592095167175726 -0.12758842327565123
P 4.895818839705804 9.045624055531977 3.006993551140057 -0.6723115949970615 -0.6833783943341843 -0.9963937491605098
P 0.06424625067827057 7.171613399666811 7.145471732176301 0.0721091592614242 -0.17835048431986705 -0.8429863079392257
Ni 0.09125772898652985 1.6643184833772737 4.771596487507899 -0.6162741444865193 0.014210487172427141 0.5259101527799652
Ni 2.3692922606692304 7.496469638376528 6.926416793511451 0.7259589480088723 0.435771646820656 0.6887676836705557
Ni 6.717826505165145 7.994248352145099 8.350975684564263 0.1415194315344466 -0.6101952852822911 0.4554716963527446
Ni 2.3006913861424465 0.6555532988338113 2.334652068059738 1.3710746993174323 0.03235347663004105 -0.2813475914093993
Ni 6.771481857636703 0.563385842417833 0.5620806620445629 0.6926536489885231 -0.017710272795569502 1.528678180897935
Ni 5.323520692607976 9.080063736789672 5.114560015236823 -0.6681608060534816 -1.0237554290029143 0.13027188364508532
Ni 5.099495671639791 1.910260509048805 3.442821683549772 -1.0451256671485742 -0.1297232102304669 -0.3655201095932608
Ni 5.537297355595433 6.010142111450751 9.526466986420079 -0.21709546629854873 -0.0007715880587018969 1.799247707855224
Ni 4.704636835527303 3.6255144455422443 9.007516687464332 0.6479367656971228 0.838406401878027 1.9799304398526933
Ni 6.7474390612869914 4.787245655881005 1.8205381771727935 -1.3594684825370715 0.5560193134605198 -0.551220863630612
Ni 5.39201945487227 0.5135596997896174 7.467893985865595 0.3635092498108191 0.9638515535584302 0.4360408413216425
Ni 7.575690188202182 1.724973167295813 12.241962518419026 -0.6148608090787604 2.710341767205964 0.2535760777230859
Ni 1.0571311218180834 2.759491064439033 2.7638364053545925 0.8393944768229094 0.9808938537526979 -0.013541229019544422
Ni 1.7899908297025244 8.558038002146413 10.270804112608298 0.5891898866752175 1.2998682543759355 -0.8760792338384525
Ni 2.538520128412569 1.9120242663099807 13.096771188221046 0.23533744322787212 -0.2831085399645641 0.5188550457053968
Ni 0.3744540211872749 0.6511680413065511 12.082089990506281 2.2308981334186546 -0.06478845723029487 -0.5365763742445597
Ni 2.3364121121477326 3.8468288500879897 9.266258021092227 -2.159739768106274 -0.3087192985541328 -1.8152476828279058
Ni 4.906494212602394 0.7075200858011171 10.378328325009345 1.0584488666200416 -0.5697955413090058 -1.1632403466058354
Ni 0.7860629815211604 8.159001846204823 3.14761420440042 1.2920328174919167 -2.0817119293675694 1.373177861703364
Ni 2.9417893017809793 4.96546868565634 5.356196616604495 -0.4973937905078273 0.31932047110874684 -0.01805840016360761
Ni 6.016974350104568 7.641626860971294 1.7541540670353188 -0.41260086513114747 0.2083917678769637 0.292721894684612
Ni 4.130478149416868 3.4478298258782156 6.8004019069602135 1.0387935542829594 -0.9804469960232662 -2.640801654223297
Ni 1.4791239709538178 5.457677639652776 2.786702125805794 0.49608252789557145 0.378125199951781 -0.2412358109901781
Ni 3.3167826613728555 7.525088920672344 1.9379115814375643 0.5087115295134917 0.604640931122965 2.858511614177393
P 0.7091232483221964 3.9577320500841315 4.7140710802880035 1.0826822852461095 -0.2737636084145543 0.10346556208551858
P 4.028765053044748 1.5047634317715413 5.833218692288913 -1.0726141023768303 -0.34963943380726237 -0.012504817335230078
P 0.21939933547742657 0.812673437125826 2.7823270795047823 -1.8634977760835454 0.2064503278798767 -0.5192507384819187
P 5.983472245075182 7.810696918854423 10.606907552884543 0.10194398323466959 0.31328814887173784 -1.5904427637002414
P 3.771748488359623 5.92437709389284 3.5994201210097962 -0.642126586773249 0.29759233540303587 0.1898461436642924
P 7.902913574815055 6.526236051936689 2.674151205210395 1.1136034003049984 -0.021551758028846756 -3.058122550537933
P 1.0957945375696472 6.741525832995576 0.6820022314050852 -0.9527927246411074 -0.7562277741957428 0.5318895102918517
P 4.872509395059423 7.7985548425511695 6.975165187623759 -0.7091416193412174 -1.4590581066069517 -0.6946457397178876
