# total energy = -381174.8987883819 ev
CRYSTAL
PRIMVEC
9.18057348199684 0.00000000000000 0.00000000000000

0.00000000000000 9.18057348199684 0.00000000000000

0.00000000000000 0.00000000000000 13.43669727749242

PRIMCOORD
 96 1
Ni 9.198934824321602 7.8174880002798925 8.658164148568234 0.28667620271116434 -1.3279688692668936 0.31847637794089667
Ni 1.253579793868904 1.1122265009646328 0.5669481635358736 -0.6131086022743442 0.2909971986840214 0.6605009755153786
Ni 2.9345520146953605 0.9600768534162477 5.726962125207598 0.30342128337998714 0.12048189413785702 -0.39270335487627206
Ni 2.830122989119854 3.601667581505893 11.909899475458621 0.4187815400205626 -0.5543699507825549 -1.3336216966772967
Ni 0.3739715867886456 5.371085449136257 8.833768325746536 1.68143539012973 0.3971925009958773 0.1542906151571859
Ni 8.801379261814194 5.479719177455815 13.076418971091472 0.20245303379502552 2.0615028014095467 -1.0714301093710579
Ni 3.4542918322695315 2.194744665510598 0.17410223532475022 -0.17637150621662528 0.11411841381367442 1.5201315768795047
Ni 8.016825796527892 -0.08879359054626358 1.1133483670679583 -0.5499643655156915 1.9808889471112208 -0.9446646962173344
Ni 1.9550123450839416 1.3342494947684187 11.745702161073952 -0.24991894058647277 0.8433606605595088 0.1283805801596434
Ni 2.572965939854312 4.72847283346955 7.905494815662039 0.5678029363590091 -0.2098611533336386 -0.6471608067630468
Ni 6.189983440548095 6.135147873975567 -0.04084529034619685 -0.36233245589389856 0.25179533167357926 0.014868946692032457
Ni 2.3266878703959777 5.469886783047782 12.996511257807146 0.022675330110328688 1.6632389217263615 0.1917641866226117
Ni 3.7491718587737326 8.955961761386975 7.850861221710406 0.7126540033698501 -1.0564032969449226 0.5380228768830992
Ni 4.1910787727145715 1.490925165139549 10.020161927275288 -1.0553234336171826 0.017966097560117446 -0.5161949823747304
Ni 0.38059812486868083 1.1659236764012166 3.229483452412153 1.2481037202091343 1.434041015737324 -1.0346952158438698
Ni 3.265621862634169 1.9918723483969667 8.014331434659859 -0.434607965529858 1.3103365008971108 -1.9130645312680796
Ni 5.13695327865255 6.4427429950223685 8.860090866593138 -1.7070852294873502 -1.3417330129305216 1.20632252250729
Ni 7.7885049291817054 8.672943036073416 10.054962727912569 -2.5480215968760827 0.48741688180077347 -1.250758127112846
Ni 5.72578609371958 3.0806057613222393 2.6986938963603846 0.12319672196585879 -0.11558805638066545 -0.6059403666606791
Ni 8.162695931681231 8.54089884487759 3.3651401993498657 -0.83107824364773 -0.2646428770602087 1.7058351591303331
Ni 0.02735719149999595 3.8837682494517556 11.297897646603028 0.6820627608465544 -0.46054885376533594 -0.05884638071424704
Ni 4.148306479953579 4.217243407693929 4.199048428723547 -0.6839098413576222 -0.6211975499300656 0.13855623514106458
Ni 1.5584666456810001 6.6793814621198875 6.40285523851068 -0.39816386377021107 -0.16448015409567804 0.4158749078967289
Ni 7.248668835828653 6.071719290441398 3.4707122063481557 -0.7105269297245183 -0.4199912440579476 0.8853465180729914
P 8.337503235064371 5.131059350351936 5.502677038049808 -1.6140927990190135 0.5207178099457483 -1.4585156038399203
Ni 6.2426615723065355 1.9011131970264643 8.694470563288538 -0.38565287578739393 -0.08508166026169219 -0.13456022660779407
P 4.9107347626783895 2.5658234535336315 11.639109274282783 -0.2523100665264687 1.8194084990738149 1.8911888142409108
Ni 7.430829778727046 2.816012447378354 6.623714135572227 1.773900744450003 0.07535260589938636 -0.01852531249769713
P 3.663517106367624 6.184309846015728 6.645481275760317 -0.3093816147284801 -1.6709671436085545 1.2172939339171291
P 9.186449244120926 1.4112102439024388 10.079095701937215 0.2560139977406171 1.0762673828587013 -0.49612469398741654
P 5.6631929423900145 5.1279012330070595 2.2553226809180695 -0.8821516652847775 1.3012664202750428 -0.7425847294910114
Ni 5.327615432775814 4.924441359178103 10.907077871002413 0.07369064481593114 -0.04839947434931019 0.911886730455365
Ni 6.199714848645681 4.2398551606603005 5.198039897841725 2.3007051269094636 0.5922613265116897 -2.183256106060659
Ni 3.4250241633873584 7.554969495987002 10.791118962946001 -0.4837021519533476 0.5871548585230597 0.059251586572465695
Ni 7.741702364576524 4.641890843122068 1.4815573077595714 -0.8941564030551374 -0.8678535034945506 0.18766404841130907
Ni 4.799567196023989 6.700946629687085 3.70015769396977 0.10499588268711596 -1.5977590948559968 -0.18672713841933647
Ni 5.858197507862484 7.370127825574935 10.906312211157752 -0.48806917067279165 0.4639650785357365 0.18187058165798356
Ni 6.110846895452634 7.94967908065455 2.2018311503318495 -0.6717168988358561 0.7424392050520826 -0.15113098648228165
Ni 3.2824406736103735 1.722055288030887 2.9839811414295223 -0.6704866259731806 1.5242291439876459 -0.3628721304474525
Ni 7.750176034080365 7.915022415023997 12.272568857993551 1.1307819689668137 -1.8696280573509994 0.5093514770903357
Ni 1.789073475872751 3.024797053939953 9.621145735495874 0.3122669066960751 0.5142766823060949 1.175917942073504
Ni 2.5394017624913188 5.88573004831971 4.3064216642772575 -0.38132648049789813 0.7786398233423557 -0.3017726920329706
Ni 4.057198466783352 9.084278639669954 1.3824612774330147 0.026148633370909804 1.4170023150874822 -0.15004880916169644
Ni 8.183150249833515 7.030409877232423 6.609417228185086 0.40463764442001277 0.19835083870119388 -0.957546694386325
Ni 2.3751153965419824 8.192771491046976 13.126927733290048 1.4342022239055363 0.9781674559604703 -0.6160969954787067
Ni 5.219853858955568 2.0834669319720733 4.706337552277014 -1.451198758463533 0.953461468573358 0.6385599524679131
Ni 0.6293944256866078 4.224863283845813 6.590552067336284 0.7246592553608423 -0.6148572095343346 -0.09070517709605667
Ni 8.076517886575536 6.9604722669612835 1.5121258639317705 1.1595533846725514 -1.6668904024360194 -1.0221027238908398
Ni 7.948155105424173 1.115825285846004 12.517707618258576 1.432441532460688 0.009185780264326116 -0.5848097553296508
Ni 8.062829651223176 0.8147805041177189 7.75791892991952 0.2699416635653028 -1.280472366347827 -0.1079505944400657
Ni 2.292260719107349 7.249238031396625 8.76236641397392 0.26920555673022667 -0.7976379617114134 -0.2378512107886613
Ni 0.8704386500917031 8.34295649582849 1.9612606435284858 2.202104349115414 -1.2105800122320634 0.5947380701869563
Ni 0.24973455544771297 6.638555450978412 4.039219231294378 0.039446121810764324 -1.0442725751196595 0.47849901048585325
Ni 8.596560663081046 3.3898350244835416 8.957090971949242 -0.27350598387779346 -1.9943553570287718 0.4173952011959973
Ni 5.6345403719441975 0.6889102487196537 6.479377156222941 0.18448873600712098 0.3451744560573733 0.018865212335619122
Ni 1.5767359872981659 3.438143203171745 3.9832149776927723 1.5146574411388107 0.5418391653053959 -0.23579278559773584
P 7.639237981767888 6.1746886048022676 8.616645004114147 -1.1542695105657927 1.0231784734535216 -0.04761863031922767
Ni 0.5195782394774558 1.9121482465861794 5.425537267729086 -0.3643656842738434 -0.7698703046798419 0.250577142995762
P 2.9589447989550637 3.078631937981691 5.969575309654088 -0.3281105585965511 0.8500463001098005 -0.17992374234425787
Ni 7.686270060714993 5.744183963368223 10.843751191836057 -0.17191141356274264 -0.14875862959536315 -0.7434023402963004
P 8.29303253617314 0.16333709463113794 5.646382393930118 -0.22100662842749683 -0.33731690768616746 -0.4383298944661354
P 7.960934463982512 3.0979478649980314 13.101828044857218 -0.42015656599121837 1.9062320817272782 -0.4184714649793116
P 5.4880000549124395 9.07801748842226 9.24415190385277 0.20671078063011497 -0.9908406805527645 0.10265566458971354
Ni 4.093755511165037 0.4715904628105782 12.193117419220972 -0.9972195874959149 -0.3754872481083017 -0.19189274178067597
Ni 7.354227071966427 1.6827440715461117 4.187506611496863 0.8978233103837635 -0.18598691781920226 0.12637614813510495
Ni 4.568997088126945 3.8465685649126824 8.943519329882582 -2.500291123569339 -0.7968206080164406 0.9474114057245361
Ni 5.839010108877622 8.630207465607132 13.052663318644951 0.06786606771435408 -0.9179982426697415 2.137884105683763
Ni 5.206900069497367 3.0910073512982437 6.798310285760798 -2.069681994786229 0.13620624685164928 0.9541507813308987
Ni 3.0908512815457354 5.2388117435985055 10.203049053551528 -1.0915412782986362 0.4545779808938817 0.06133469435373952
Ni 0.8051317211832258 2.116122232541047 7.675229502811073 1.2429401737303238 -0.08331094151451458 0.3166393247321579
Ni 1.0514602837967837 5.599149260419487 2.0046608875289826 -0.05572968946213628 -0.2729639953313944 -0.10907236674933475
Ni 3.4510786314825923 6.865490051699377 1.4191973430014007 -0.05401476365355859 -1.256174155922095 0.5120624482635955
Ni 2.0966410551985217 0.5505452325472355 9.535151301863719 -1.1337258820864862 -1.0379240071938125 -0.4012607575279799
Ni 3.2513368899928072 4.408107534438087 1.8764348969254074 1.5712715900884293 0.9504604769635049 -0.04261269246420404
Ni 8.005561232626253 2.2750012405946496 1.6645646995509802 0.6106621976163806 0.039127562129080994 0.1806505932079534
Ni 5.846418831834934 5.903779056168628 6.636640383309397 -0.3066786139750202 -1.0658245902588224 -0.6230052925627657
Ni 0.919966927021576 6.484881828199652 10.896839695237857 0.3698099952178663 -0.3703766663546138 0.5785840861349133
Ni 8.522335724902762 3.8429238771629266 3.684490126932657 -0.4186115901016017 0.01551892157120553 0.41421217548232536
Ni 6.9273028542664 3.0274594203062737 10.792852255256213 0.4400875005871904 0.6204069357079702 0.7780515549390535
Ni 6.380810844997546 7.9183182409740285 4.960116150429432 0.9166928935947567 0.5702634820843598 0.6551034586488911
Ni 5.869452891190446 1.7583644569232941 0.3185383648697471 0.45652661997982025 -0.9086566535538415 -0.387396597951378
Ni 5.290066886437017 3.918957388355573 0.19353659174152307 -0.09264147488682109 1.2000845120173784 -0.17615167689633532
Ni 4.0286193409269515 7.929683791186115 5.729394059174628 -0.033293471945807174 0.8291434885188624 -0.8112334410076609
Ni 0.405520628229545 8.781549222671945 11.184479003283036 2.8314813495324787 -0.020980973127041287 1.2378748433922746
Ni 0.8219569585610046 3.6453212093398744 0.21213184372422111 0.4627430332031773 -0.7060220998756292 0.06024454661335431
Ni 6.206471750871929 0.7876840409101489 11.113774815109869 -0.6801539738596156 -0.24693003316147796 -0.2194238573214092
Ni 1.2945435136155337 9.002470547634495 7.317558024585884 0.5270699774160212 0.56510122115713 -1.635564081518912
Ni 6.588411157554815 4.310839356330614 8.66038125711122 1.06716696321933 1.3451520659143994 -0.6060002733643369
P 4.2757787454582745 7.049321859006977 12.679888878663784 0.3890619014689429 -0.45819886547592054 0.45112678912048754
Ni 4.554941629827508 9.36996891192351 3.8620561927057273 1.7344178558640322 -2.0769541029676106 -0.1074417731244472
P 1.9387260073810009 2.8744559794059303 1.7939869189046642 -1.3473660428465828 -1.7644822793495805 0.7734395100883389
Ni 1.340134242495355 8.583762943375353 4.730254782820251 0.19263270527049403 0.2590921224453086 -0.1067113227163259
P 3.0768325455410057 7.924919073447768 3.407130307233581 -1.544081917047515 0.2359676206127033 -0.6644756438924104
P 6.304364207989435 1.0251395790649176 2.3000807317653895 -0.5639568231400416 -1.9863913649866887 0.7581291049835137
P 0.4761109772891171 7.6579755326425785 13.32701374629272 -2.446675652236728 -1.2074676918553269 0.0614298251707071
Ni 6.140270634087315 7.861141628113874 7.529132607487912 1.225579056744057 2.8582200510789035 0.1992504676973278
