# total energy = -340871.26101248915 ev
CRYSTAL
PRIMVEC
9.24188752844058 0.00000000000000 0.00000000000000

0.00000000000000 9.24188752844058 0.00000000000000

0.00000000000000 0.00000000000000 13.52643658217917

PRIMCOORD
 96 1
Ni 8.12782401599262 4.363825114471325 11.023098447757434 1.2008399021261642 -0.6147983312719412 1.982045686423483
Ni 3.214688844680918 3.6031623364323253 7.127660500534145 1.5019176249746393 -0.5808957649872253 -1.4504122580064955
Ni 8.716781769450341 0.110351831396215 6.887025783540091 0.912802557401415 0.641424675610218 1.0153083266768255
Ni 6.651146017573921 2.9540953478232685 9.615185636157157 0.07606274459253352 0.9984688865219836 -0.752647255933336
Ni 4.964593999928341 4.845040945512959 8.800854294242496 0.17837593824116374 -0.9636492077396371 -0.15205658362034455
Ni 8.052964728673153 7.3639265773904325 3.5100835924435274 -1.7477490257552997 0.8913487584030133 -0.21701601921086494
Ni 3.715053866256617 2.336044133071512 5.083694201864877 1.0923712303990993 -0.6551170854956458 0.30690487105321335
Ni 3.6983168083139564 9.151621809903201 5.848939107638815 0.8173554947449987 0.6037991519479601 2.384218157132455
Ni 2.1656884240394496 4.177185199975448 12.80040487472998 3.259915325041141 -2.437877337218808 0.6913662976356674
Ni 1.2095782128853823 7.552100645181992 2.9544714926373303 0.28043536400777513 -0.23340140254742384 1.036561579628647
Ni 6.290315010806775 0.8150023029343404 10.06924140873281 0.19573911210995965 -2.103596645255803 0.804321544379176
Ni 6.803489288212694 5.9465537699259325 5.334042142435815 1.2779215749015154 -0.14131708571565338 -0.6868157021505075
Ni 7.794607768547766 3.1411049378120803 3.2411640792962353 0.057439987285023655 0.9386264604430544 -0.7646864464860572
Ni 7.616072989234502 4.957671826323121 0.26776150466567106 0.7981670947420061 0.16286010199375175 -0.2691708468375493
Ni 1.6205372164945993 8.202267418382531 5.8017047457176965 -3.854998180162025 0.4751066969748527 1.3730014840264997
Ni 0.844827721704387 7.976700674480533 11.810296532679354 1.3048983606006752 1.6470785099164151 -1.1232576355653108
Ni 8.92697925473354 -0.014833229154042168 4.240686207774466 2.0828871806225937 0.04570547245691483 0.6661669155519043
Ni 2.3102130580026343 5.650221894788731 1.6931442558733543 -0.8881703606750315 -1.4016834253422248 0.5962113122983732
Ni 5.3223567001041205 0.2876620606391284 0.9488433151516853 0.266882822134321 -0.5228168585666222 -0.08507163295936317
Ni 3.5671559434203948 1.9216194217160234 11.97184287471476 0.02186594683515589 0.00878057440610746 -2.171687170276137
Ni 6.735256434104099 8.78679830781235 5.506477276115641 -0.18976643946629254 -2.1065241033152433 -0.1262249672692213
Ni 6.99285555946897 5.48259254251707 2.6169189516603417 -1.2595135047079729 0.19267564269328752 -0.7526999635481424
Ni 7.3435851833916495 8.206259913706237 0.88270005176691 0.11614701420792901 -1.555910791361643 0.9764903253683636
Ni 8.730857163843867 6.402511522912739 9.614306732672702 1.0133938832629321 0.9322987184528138 1.2659430623834005
P 1.2015654965760025 5.032974724234109 10.894191679182049 0.208278382227551 -0.5753619796531897 -1.9806395501045762
P 7.313946450745535 4.9411473317888985 9.019035845984373 -0.816314197964678 0.1766646119770119 -1.2565197121869716
P 5.79227894483657 1.2391152847709392 12.424274847687691 -0.3951829267650162 -0.9018216329098792 0.14067430992533192
P 8.258125385365105 3.0724654406612575 12.831677573054868 -0.979904750366551 0.32780768264415155 -0.45831199401501715
P 5.328899956329081 4.111124189387851 2.4462157476649202 -0.7683698088749155 -0.47139993754722687 0.6348956162424485
P 5.654916773549013 1.3445744610181511 5.2913529407003415 -1.3063644036232405 1.006146200561583 -0.4512442885349584
P 2.927238423261495 7.484154289580423 4.505087362209353 2.8748075231239394 0.0346381588991597 -3.265729874840388
P 1.2029702634491581 1.1255786990030838 12.227235961575538 0.4713436303879947 -1.1079953100896014 0.4645698019992709
Ni 7.099497697293576 7.653770647626613 8.354197576657949 -0.44805354951180254 0.40590442694757833 -0.4639157133550397
Ni 2.243468147753106 0.43916894047513483 3.8887690013307314 0.7529082229042066 -0.05550523215615603 -0.2215730424539281
Ni 3.2149938269625897 6.552128436791112 13.32843641019698 1.6847932508583694 0.44884030707915606 -1.4837723215241803
Ni 3.1970183561185945 2.8734876065886543 2.801784423790127 -0.2332599918735531 0.05822648774206101 -0.7350467692427534
Ni 1.5475078228651655 3.020137874636219 5.030819516110294 -0.622403911533341 0.3752877305029859 0.25048329773037503
Ni 5.834791626524168 3.636756596852851 4.788155280660024 -0.421585585128261 0.005954160700905874 -0.5730636705373162
Ni 0.5933947835616827 1.84758266236834 3.0506176190287615 -0.1852533820872874 1.1312470815286904 -1.1098413621594048
Ni 7.222553427004525 0.701376070859448 2.3870639720402904 0.2120447912485187 -0.7968974840009629 2.2590841089345677
Ni 3.698205905666075 0.12027669419280433 10.200528887482703 0.19855961227789026 0.858076883723761 -0.7447899646724464
Ni 8.85826582248413 1.9790485095435735 10.819376752921734 -1.8725352036954654 -0.8356818038580124 0.08057168820648059
Ni 1.8542645469031516 5.823692119848775 5.192284529537255 -0.7275836280964889 -1.0967799009897563 -0.053822959357726664
Ni 6.696098557514893 1.2423591872214492 7.276668374037906 -0.614910174259457 0.12308230787518157 0.8374491801710802
Ni 1.6341135489726604 1.6643899718440884 8.430649241163234 -0.0197625273389079 0.9448053355602568 0.44971653903652226
Ni 3.1684886499512874 6.232590182584876 7.51601846869401 1.0956409022893068 0.0554196144208852 -1.0268957744041087
Ni 8.785578378685662 5.575066867074917 7.195739015124438 -2.7792293342062973 -1.3976179970235996 -1.1910457988538778
Ni 4.817694200923045 8.941821725774906 3.9645441596839444 0.11429941947622897 0.16596496617132062 -1.1780123627086874
Ni 0.21079173863809342 3.533626376211133 1.1135087941587354 0.627900415871538 2.088344347082423 0.6733487780123242
Ni 4.306146495686043 2.433703156417782 0.422137066326858 0.5774831397612507 1.4501682603164896 1.7020093576263395
Ni 7.968179654368367 0.08756780657785977 12.500455724894403 -0.5159751530544404 1.3225297005291934 -1.886163078891545
Ni 2.4779163453728836 4.52623280040527 9.046128438672891 1.0401932628439634 -1.3172921062793377 2.123379998530317
Ni 5.940675929588256 3.4392297390900195 12.121715788871992 -0.007079532554600711 0.1729506534605344 -0.2072579113828366
Ni 5.379138855819033 1.8959824262809373 2.9780068828950776 -0.7608773571526121 0.3539540020222162 1.1210871102765532
Ni 0.9738453929276543 7.077261716393498 7.7963674238941385 -0.12781853700858634 0.6845420756249824 -0.917447255262278
Ni 4.175087291553039 5.212258096420566 11.163300651019469 -1.039784457441319 -0.08410386972945515 -0.0017249531109067066
P 7.496270403861389 8.068426406165187 10.508864125875522 -0.19562675490181147 -0.13022149002312414 0.7068880474203503
P 4.7256542450693955 8.875529668004225 7.962539330534902 1.082994674280206 0.06578733080845443 0.5957598265832513
P 1.429054553041266 4.040830394406141 3.0499817771809123 -0.09883500529204269 0.25441065780923927 0.2612647046165952
P 5.97611856747346 7.615333638248631 2.7992281177564773 0.7716173692779357 -0.4439004465753774 -1.2928565989447929
P 4.269613315096679 3.069711358238887 10.206886381772462 -0.012038676332088943 0.599081948977949 -0.025373959988414366
P 8.498895033914081 7.512037063635093 5.91724774522346 0.10470380536799387 -1.5742093325605144 -0.6250493195759881
P 3.430477671794769 0.8717197654379893 2.017197172037066 0.22128765000302533 -0.8717690364988728 -0.5932591716485847
P 0.08705210926521458 9.225778713786088 1.974738093295944 0.4354741701848952 -1.3535585448105398 0.6331068997731418
Ni 6.560862020311716 2.735986806991247 1.1875427809402217 0.6145666748771094 0.9749651469730886 -1.4901496858054337
Ni 3.238246415468241 9.25020502198181 13.295986295427092 -0.6939901084117596 -0.9465416015250729 -0.11947067926452329
Ni 0.6530613323102258 8.790032968375536 9.258047687564439 -1.798852272189018 0.8892620510773136 1.4545589331850175
Ni 0.8684666211001559 5.788249481963573 12.747976572133117 -2.7613056598483414 1.7364014619529642 1.554835041798961
Ni 1.3628456722564948 7.660628128020569 0.6184504642841274 -1.044592934573556 1.2654735789461495 0.2634550273996947
Ni 6.473415282457793 3.905584615315641 7.1337749331873 0.6875219841889127 0.1489532621046725 0.03634897094267934
Ni 0.23229853462835603 4.063935112714618 9.101776614813225 -0.8591518619554945 -1.0498189588591855 -0.5593784597407399
Ni 8.505549192786923 1.5126012144447187 0.7621202236698984 1.2196246389328351 -0.34811425541198754 -0.7807884942542423
Ni 4.801631800754992 7.07116207076006 9.52738585820748 -0.4710800923139629 1.3929211057685622 -0.945417772333275
Ni 4.721153445942905 1.9948983463031886 8.371051082380884 -1.051977399963085 -0.3787486924683929 -0.04409724742953051
Ni 5.934058738264707 6.366311050267017 13.076979443147236 -1.442461378590535 -0.5166464680898522 1.7679843789655678
Ni 2.305971031721198 6.6967454896275305 9.638803279212082 -0.28692868504160257 1.2545808432930459 2.0729131001290173
Ni 2.595389975140503 8.741115658772829 8.0557095692082 0.761400576645934 0.03151838232325539 -0.49815535126420013
Ni 5.439479138153452 8.123008992697132 11.696687860190377 0.002331219236337921 1.2853340653155025 0.07443986427712986
Ni 1.920685991096361 1.9509531720804656 0.6130679891069847 -0.3406683406569036 -0.35767001742122273 0.17444677839008665
Ni 8.111123925599252 7.086614506364769 12.493516915892002 -0.9348621083046158 -1.5293335550937468 -0.5813935305592502
Ni 3.605177067868824 5.008123289221511 3.7764726768416748 0.8247515300987538 0.019172716273708916 0.4213752688896678
Ni 3.7522524627332645 7.666635354780773 2.188198888993033 -0.39739587525593495 0.24543647933508697 -0.10764900403924685
Ni 1.6511925567462862 2.7610785310742525 10.879299301949136 1.8964665177000823 1.116586137082406 -1.2677688027382297
Ni 6.44135517533295 5.8346714819889645 10.90310547950546 0.0381086339462634 1.2150974404864427 -1.067238954107846
Ni 9.037013165205831 5.417954782577274 3.670073600653674 1.6735187063858146 -1.8938522200056869 0.6722064368777648
Ni 9.197230523844134 2.9002890798264875 6.871037318470624 -0.7046614720826767 -0.047234507506931554 0.1333497512394607
Ni 5.313447520724371 7.009694278172188 6.679963146436985 -0.31814213452992945 2.1864283331410537 1.358263663595693
Ni 7.760976540577946 1.686801548603311 4.995461903588466 -0.27838825167075926 1.6817184685877875 0.8394147885378834
P 4.4440724221003265 4.68382546304373 13.281567102825136 -0.6319897554495632 -0.2286806000329868 0.5482052167327398
P 4.652855898623048 5.198718731491799 5.899744534821691 -0.3800121325618488 -1.2881915893689555 -0.002498340941821504
P 3.076855337139868 7.750366853930694 11.383997844490773 0.696497962435278 -0.7449856256230202 0.9599337065612629
P 9.293364635782044 6.051227385750656 1.4466520306937345 -0.7980195134205482 -0.22122337242399318 -0.01681707155733878
P 8.290398055898386 1.3620139023973896 8.819277072432943 0.4753787196893168 0.14881853629902111 -0.3771672069138859
P 1.3719766569320049 1.0614215172041053 6.37663239002978 1.291519368190608 1.09126874136354 -0.8449665715940481
P 1.5415005961049615 4.851815248921004 7.093263120105217 -1.3886466467629246 -0.8387565861285943 0.3731228616411832
P 7.9848612609870875 4.079128775474272 5.286604458993583 0.36063732757966277 -0.6104439109579874 0.2603787024672161
