# total energy = -340868.00186721975 ev
CRYSTAL
PRIMVEC
9.26027111500833 0.00000000000000 0.00000000000000
0.00000000000000 9.26027111500833 0.00000000000000
0.00000000000000 0.00000000000000 13.55334281936348
PRIMCOORD
 96 1
Ni 0.5195206462810359 7.081042119119846 11.538164242851236 -0.001093490174494891 0.7807524988099844 0.43719758063390507
Ni 8.081855161189024 6.692184821823786 2.4274309364563615 -0.1484020175868928 -0.22625270731778452 0.24356934421936116
Ni 7.498532174161175 3.7977852766686686 7.360874542535512 -0.5768254515725937 0.5373456483104164 0.3137486334479242
Ni 4.1175609527552455 6.386864428673939 12.107281974257724 -0.9560287150799018 0.24732752571021274 0.4189628027934333
Ni 8.13353673330298 1.9571953041701122 1.2756393630148928 -0.2590936651072054 -0.7534934059837152 -0.06958639283957047
Ni 6.424998224403248 6.177063730266158 6.992142592072505 -0.02636280626424492 -0.8020931692692895 1.1713244091655504
Ni 2.278915637154007 0.5961484622792061 6.465134090709701 0.8931881256045971 -1.1486246535751896 -0.5661733711753862
Ni 7.553843772483459 3.0854574551811287 12.46038721751014 -0.6747664842954572 -0.7172501073809647 -0.19667962164635805
Ni 5.575368365694126 1.2381723067932349 8.491670303675606 0.525597763745869 1.3808266364978734 -1.0477769887284925
Ni 5.384986455446706 3.914770279448749 8.289969564258701 -0.5170375328806837 0.10275619472331979 1.0382826760848118
Ni 7.014914524340098 2.9657128916610453 9.755465780158739 -0.33187053985961557 1.2881753914190395 0.7921738532730487
Ni 2.465787904715316 5.54780053910691 8.144230494184042 -0.48105648680038443 0.33786609532141815 1.0380121960322446
Ni 1.6612463052111497 7.884203938254009 2.571543902954026 -1.2599469927009657 -0.4817321727111704 1.0240251377245333
Ni 4.687456546920661 6.132095854583416 8.9458291795836 0.6222884690013992 1.3461465686171847 -0.48479564212784243
Ni 2.750235647167284 0.3612709501669644 3.873978785959771 -1.6009521478719977 0.9082887286914615 1.8340853843596994
Ni 2.43680325667434 2.6444926133078894 0.4199884761408369 -0.11138713092544042 -0.5037948089381646 0.9883297412054527
Ni 7.574707162910399 7.275748575896063 9.75699742897215 1.5571045545594282 0.5363190068181152 -1.1810573201825982
Ni 4.236648037038617 8.324770588476845 2.8542933117156704 -0.08123040483640204 0.04646883298550062 -1.5157843556544024
Ni 7.542731447355929 4.186438848004057 3.4696966553596056 -4.267935345586669 0.6795196827097264 -0.4556619579866798
Ni 7.056845031154646 0.6788084187674376 4.414811945808317 0.38873948513251766 -1.446729924058902 -0.058222631087319086
Ni 4.6579533237070665 7.997808942141132 5.267628263747759 0.056645773518502446 0.052000818547323344 0.3662724143782531
Ni 0.905003500846702 1.348980708856596 8.207565191248403 0.7196499750717089 -2.189970284856041 -1.325650248436046
Ni 1.1415506398093551 1.4137748246210398 10.713050025427636 -0.3203861933690998 0.021261480481937576 0.6604562383203723
Ni 6.1592469689783504 7.204842681311478 11.587335355513463 0.007994331059386232 0.19580544657152085 0.7828497476586453
P 8.651556289664706 7.030332875454547 7.5666683217077235 -1.6259317006354708 0.5147381953235457 0.9271349148636872
P 4.1873833956398965 3.4776206692026284 12.812408083035528 1.087703649720101 1.5618053024692071 0.3385659496019201
P 5.761694277269998 4.666407951074929 2.036118741334212 -0.22766809960807244 0.5355127088667359 0.058975964313575845
P 7.6167950943309215 1.5630966935222343 7.062009484257667 -0.472183866901103 -0.8099358052421599 0.44255395984981205
P 4.262289727270394 8.599050553437124 11.463972804137276 0.06420533103331522 0.1760174653113162 -0.4335545845646791
P 8.231297413612433 1.5002564949260477 10.972013502253798 -0.04310942959496447 1.1686440341199098 0.3068269666274264
P 6.623066159530544 5.356548163391166 9.565501508130694 0.07500345009008373 -0.737720973640807 -0.06035664671118638
P 6.907902833361976 7.788434216196573 0.007879564542513266 1.4943410981789618 1.273843805287716 -0.5320304067450902
Ni 9.050220213885812 3.024904543507026 8.877941207298232 1.001826490140307 0.5302972261040673 0.508748296288698
Ni 6.662764941048648 2.9637034128671504 5.398960204294575 0.6614404566105124 -1.237803623834707 -1.0661400646167123
Ni 0.8438255208841753 5.405822065060825 1.616384922644214 0.6504173660271315 -0.06513118528169429 0.12534642131900992
Ni 5.7372656825313095 6.825977216359256 1.4698466911874661 -0.38195074434545834 -0.8523782906770869 0.6620778330841952
Ni 7.696507506579075 4.155759570381132 1.138617912002781 -0.2601953828118164 1.8393186077341808 -0.3815460527078719
Ni 6.4095798732887985 1.0479107800680294 13.460705761111145 0.5477347048542245 0.3635213339956772 -1.0104792807192986
Ni 3.403658885207972 4.733424531864879 10.241339231980705 -0.43127504450188303 0.3239551416672808 1.7924412264563516
Ni 8.944291974607625 5.28637383021081 9.321324831940897 -0.2593101519933857 0.5355782719973485 -0.5996324221647802
Ni 2.3052148066224962 5.182242083494907 5.895582052596146 1.15626340106737 -0.936140203686091 -2.0435755275071643
Ni 6.013832934413671 4.9371227117234575 12.987775389981469 -1.276361686613563 -0.23926943129242664 0.8331274128672749
Ni 0.12737595280141523 3.5040217016514537 2.985137235983969 3.3848295439187384 -1.6819683798150646 -2.5146119110673855
Ni 2.591153452695742 4.913036747009534 13.19416553060219 -1.627350178249552 0.5106735383358689 -1.4867229195120717
Ni 8.12713788608371 8.809277224308126 11.82880155039924 -0.25755074610011774 -0.1553509381009002 0.3497368786170751
Ni 1.0552541749231392 1.1767211488379898 13.023664496035016 -2.365133629697178 1.1567148867824917 1.058189442311068
Ni 7.7911011742271805 5.358696546249155 11.494563183159181 -0.22343220714985393 -0.06719680956147138 -0.7752320832123875
Ni 5.81207941145241 5.806032454528845 4.660357290042989 1.4061792563300493 -0.5444850875686752 -0.01597812059581119
Ni 4.305553713100247 8.435366004308595 7.586401959080031 -0.05464956902408008 -0.8766117093031549 0.3699742887098725
Ni 2.296232343811076 2.7917216609767324 9.318207824742625 1.0036751133132715 1.1738044952749267 -0.265395181845201
Ni 2.6352416026392205 7.306353771351471 10.205327890350754 0.9225169564757015 -0.49100665603456084 -0.3142551407706975
Ni 5.56036672677196 8.440496194409139 9.613534533494446 -0.05773257882477799 -0.2469853118794456 0.7102127409182091
Ni 6.699954189142118 8.638036294092878 6.94593939624642 0.3760230660071137 1.1085815216103747 0.5079666809276672
Ni 0.6765220578724481 1.0306218542237795 2.3757651068030015 0.441264294504111 -0.8182306982611006 -0.876152253168233
Ni 3.502049263941317 0.5402062395059345 9.50921480327847 -0.7823170150836268 0.2321788429942324 0.9217805925303092
Ni 4.857771450041948 4.027828927350435 6.142293264942114 -1.3517829409673559 -0.12913365627558407 -0.415709071742826
P 8.829409053330835 8.28869257289613 3.7111221050532444 0.5948820519639884 1.1854582774637712 -1.237845789926552
P 2.081273674489933 4.760214495693168 3.0881429337536153 2.179324632216737 -1.3274376793537719 1.450825177174198
P 4.465460071685414 2.8997056804035126 9.93927567612032 0.161480962258038 -2.1524622606082544 0.3423197602173976
P 4.782726214347357 0.905425769201548 6.4194457659478585 -0.05551551656880116 0.3002500847408571 -0.19146928109001218
P 1.6938609794604524 6.991671244281679 13.67789800778292 -2.3079073010848576 0.5325875648001408 -1.4483584608012605
P 6.032242353041613 7.683709812140536 3.5730134982328225 2.393155054610769 0.281780822292076 -0.2248547985289934
P 1.8497391201868902 3.459924291437036 7.251309794859341 -0.1806127979914825 -0.39571745911224754 0.6452052256985726
P 2.656623568238777 0.31180906499723104 1.610042563077676 0.9085746353629964 0.9199329977986092 -0.9132617564260207
Ni 2.8561824069873505 2.5127096975663146 2.869907054546945 -1.6034895695818707 -0.3272515530303654 -0.005614260862983879
Ni 7.048770074895308 9.18382740300249 1.846141504926852 -0.9245674112468271 -1.0862766874655871 1.3821427842061358
Ni 0.3770791586879709 3.8007670839112233 11.798780678040119 0.9210709680577944 -0.5577401528063685 -0.30093374107144305
Ni 9.21365473569897 8.543692653760141 0.9773651100229942 -0.18003301422861254 -1.1100791892018236 -1.7159277674796447
Ni 7.900816864319668 0.39440975575144904 9.118986985883348 -0.29322891622801756 0.5823214416901584 -0.31562373898345
Ni 0.23594985148704842 4.955485828996702 6.993294569777392 -0.5190288522790996 0.10112662953969681 -0.4163575039601023
Ni 7.780090712079986 7.2335217404114465 5.235547907131672 0.17483655762933759 -0.41886638642488505 -0.12326999840595544
Ni 0.062329957667413956 2.492753813691457 6.145912178825313 0.7351897225785209 0.31720933830301495 -0.40673617882025437
Ni 4.740777186990928 8.793451421272334 0.22230206417625273 -1.174638561140448 -1.4907875764997487 -0.8870128500318207
Ni 8.838808228334539 6.034816708362825 13.539043949151859 -1.5946490884721052 1.472471037578748 -1.5127949340087754
Ni 2.645381599318092 2.6630316757289867 5.358205751889356 -0.13646489982967464 0.10864813472772257 -0.3146297505012968
Ni 9.158037548435678 9.22122037705663 5.712489827632385 -0.13812120448617501 1.0904395605940251 -0.022219987740464957
Ni 1.1006295025272232 7.175691348393588 6.268000516920212 -0.2774212597717996 0.3704247459837298 0.8677460313824088
Ni 3.6520656531629823 4.3064519593813895 1.5547985647332505 1.5541979224355944 0.42868234407404243 0.26670490179556
Ni 4.400008476684258 3.8548841072822975 3.8402037997617353 1.2917862486987495 0.04545658967090236 -0.5055043354301035
Ni 4.766168849907336 1.3086614891855384 1.703275896924753 -0.4617634428987273 0.8261178143186612 0.617934820018394
Ni 0.4765020576310825 5.262084139536215 4.404267275289385 -0.5164209823426072 1.6468437681977894 0.540501677440895
Ni 5.889865687345126 1.4669658208981537 11.103521387948467 -1.0389190241172301 -0.9344445611512229 0.12150776429921009
Ni 3.7494281418220305 6.043521363046057 3.8325057365296384 -1.9853649806047036 0.9802042838848409 -1.0621337716707968
Ni 3.510402028328844 1.6418367773217293 12.104395547805845 0.3712798948951735 -1.4440451781378874 -1.23534282099904
Ni 3.239770610118772 6.6584959561454875 1.3587225138850645 1.7555389541133635 -0.569167935027336 0.01974401539614664
Ni 2.216010616661243 8.757030775666852 12.428306860894054 1.0732031421110808 -2.0178079316247572 -0.7092403497026109
Ni 4.793134758883478 1.5622169677829714 4.377499536111351 -0.5497265384732726 -0.5403841780264242 0.18129619721175227
Ni 0.8918918832233096 8.754984255789198 9.587241846215615 -1.1081516331618075 -1.0269852487941218 0.563605353337894
P 0.3305231465390868 3.363228542285639 0.42741150932602745 0.46857660916581884 0.19935125494125022 -0.3941326311236309
P 2.5218403247127688 7.556140319676483 4.791323449887691 -0.10331772365374464 1.259136066763896 -1.1547166254055403
P 1.3031053266217731 5.374948321748169 10.679207439251739 1.9801446127460285 -0.3007529925192046 -0.6318411456868408
P 2.249773564507058 8.298165830067349 8.028675277237037 -0.7168497866187525 -0.3822623620486062 0.4950108920979475
P 7.793657009006513 4.991036009133861 5.320825742214531 -0.43318743103324747 -0.1821562312192024 2.8521216514906493
P 4.1544723927205265 5.9936733245781415 6.436807847932531 1.4161638783465869 1.4578592012028442 1.4550469285650296
P 0.7674403239846229 1.9462311433776154 4.169184185162283 1.4512290974808362 -0.7639086877797683 2.7467899827306694
P 6.348573208338656 2.1817568744556297 2.9604697262550386 1.1364224550820428 -0.38452467572022164 -0.14887021547256296
