# total energy = -340858.88956824713 ev
CRYSTAL
PRIMVEC
9.40691612238294 0.00000000000000 0.00000000000000

0.00000000000000 9.40691612238294 0.00000000000000

0.00000000000000 0.00000000000000 13.76797261075932

PRIMCOORD
 96 1
Ni 4.548780079443476 7.568607067085272 12.977291211083864 2.791186506568174 -2.070541771683363 -1.8181057211019913
Ni 2.1072150320559824 6.362753319081001 12.673707455216755 0.40785332314383305 1.0311324381932758 -1.2650673446466663
Ni 0.4114359291720872 8.79014214405889 13.819464179673579 -1.0962214573831248 1.2759829631179056 -1.4650678031361415
Ni 6.051036343641667 7.377703113813524 2.8479052501632416 0.45032409071353413 0.48422460011572094 -0.9720639141658936
Ni 8.487192414330075 3.669976579955951 5.174458520479367 0.9163262542839573 -0.1323033122528173 -0.4908423625425547
Ni 3.52100865820512 3.7206986710193815 7.365465656791192 -0.5035492685862618 1.4613954964908766 1.2555416645444184
Ni 2.4815256265487418 6.167098873230057 3.202981523514051 -1.593054747401792 -1.4418702819737554 -0.055928178626187555
Ni 4.968610740452545 2.8316604469255857 3.6839242143067947 -0.5341402539992414 2.190925449680459 0.7575020129224761
Ni 3.0102413402394146 8.666648150831755 13.567772735220101 -3.5027081961057935 2.932059562767873 1.371314069021748
Ni 3.8920080182664387 5.857272687906404 10.396760615726649 -1.195359338627567 0.7340316977146778 0.049609178386695214
Ni 7.496503055957453 5.71115506170309 4.459515031459757 -0.09023363677627684 0.1366009111869067 -1.6696018878299117
Ni 3.669007667608115 7.821860059594484 3.9123899831601947 1.8404144119015207 0.4849216261827455 0.8358666661753088
Ni 0.07092532455321704 8.471275912460763 9.842833426468637 1.089835351351123 -0.09793409074432811 -0.4002022343564785
Ni 5.534888269724871 0.7689918655800775 10.825673654132183 -1.842352509464498 1.4190057186707563 -0.467495203176182
Ni 4.884569352922743 5.413190997453432 3.696300893685904 0.21069084832378554 0.0638883140135287 0.9514236122077228
Ni 1.0154389543644398 4.619002707371612 11.57992488234275 0.43306067564739614 1.316670670645255 -0.27931873390482864
Ni 8.978797844407017 7.551825128944106 4.327810681949209 1.2480085893921669 -1.0981554411810441 -1.1372369805635383
Ni 4.676761171601853 0.6697338507312474 5.9998072198059225 -1.7732044897139267 -1.3069583284534974 1.2675620860440622
Ni 7.702683840810618 1.97517955910229 9.404667745487066 -0.05669719558172815 -0.8682371120862145 1.364553867479779
Ni 5.454816600746399 3.854662561752748 0.5693357176634097 -1.511000561112514 -0.5764896654997298 -0.15796677845719245
Ni 6.296697954940162 1.8703394803000029 2.017475875505944 0.5300827961004161 -1.157935389453154 -0.3041093105859472
Ni 8.670006419843187 2.0953999455619785 7.002500743684116 -0.8466190195958064 -1.9389010327152092 -1.1249203679797142
Ni 7.381748087692841 9.001365035887204 10.479932804218198 -2.012938519347598 -2.226506432108862 -2.874229539133282
Ni 6.073932777181799 6.101429192645154 11.280609044264121 1.2257536346487083 0.6316963925788605 -0.42597034445951804
P 5.217875200578431 9.089338514304341 1.4419475850407806 -1.53440659874128 0.5733796591158382 -0.10502030816714815
P 5.90162629683891 2.9384195365915486 8.860516223334601 -1.3783051556276005 -0.36661128577491053 -0.4632469694227893
P 8.76315370205945 0.5792675395745317 11.425998575169157 1.9751260764855145 1.7571662053041415 1.6582095868325701
P 2.3213634747598015 9.474928001079196 4.652666296963524 0.309785277924802 0.1566855977519237 -0.020275205309268306
P 3.660296863393586 8.197186601015071 11.017943491606898 1.395639790251306 0.7001954658915231 0.46964644519122983
P 2.5002736101335743 0.7188116128781555 8.082378013329269 1.815120156111106 -0.6190051702644372 0.6115392009046952
P 4.56858163762013 5.419427782760379 12.558882875773755 -1.0478093846283245 -0.8472373699060958 1.561881407122781
P 8.305902329208703 2.0739521770856024 3.244078458127907 -2.136754105844378 2.0554396259346017 1.3796390439476756
Ni 0.20291752569331672 0.6189383857230293 4.033093885102201 2.121360139886811 -0.41118187329643374 1.3958192532519638
Ni 8.35108374674907 8.806322039576157 6.0674899804144875 -1.0185592295139556 1.3144142705109103 0.985297125026716
Ni 5.421939429331953 7.194249438012519 9.076026787474989 1.5309618347257892 0.5147132556228813 1.585724789399282
Ni 6.32518209658335 1.2550895463399505 4.691973095462883 1.7729602349136049 -0.2167087723830913 -0.624965244502614
Ni 2.952031344041249 3.7674134158674892 12.840547576672968 -0.042353268155230286 2.4532759311620653 1.5363215563758057
Ni 6.414227963424305 8.847213903421249 12.471345878258946 0.5683397826990858 0.27314063011857476 1.8560965985234679
Ni 6.596167125749567 2.941994164670945 6.168946391532146 -1.6666808575283747 0.6439528413487103 1.3491336762699668
Ni 2.16387288711441 4.502131183007357 9.324194401195461 -0.687846457407867 -0.5149058312496616 -0.3968379458699359
Ni 6.5150889167592645 0.8889253411018145 7.672671075317689 -0.27212787258334425 0.1456949030683749 0.14325389772705005
Ni 4.964076606941311 3.661265775741423 11.269264303570038 -0.7737161607884933 -0.7433827999122746 -1.3042890091514503
Ni 6.692851408381231 6.738484357889521 0.017628560581021625 0.8006325255633631 -0.6963755779248008 0.21624597381405986
Ni 8.23407111864484 6.409336367105132 6.5669652364157 -0.5589861093983276 -1.2779578274560894 0.3018806783657446
Ni 0.5973297589830802 0.3630702705662587 7.664547262661462 -1.1317903556266702 -0.7487934294048846 -0.9873318960685578
Ni 4.409266108271047 9.030902752122213 8.366135753038128 -0.8381454349071567 2.1083048493647496 -0.1827614689033691
Ni 3.6104025809380165 5.871326620408029 5.723043522141882 2.5649723657978085 -1.5571729459035184 0.01946556492377938
Ni 7.266071241660385 9.050732531046863 1.2108158961934308 1.066805466114853 -0.5432956952462643 -1.472908639336799
Ni 7.763809980968291 1.6017908423773748 13.444287208217364 0.2472169682742775 0.1278013106174057 -0.8444572360577971
Ni 6.883868244644958 4.1017916519469955 12.462424359126052 1.4921250643642494 -0.16006685551933078 -0.41790839338698993
Ni 2.788934234460805 7.791249954935655 6.220150116694695 -0.698673629930358 2.625766100046413 0.9380744445943263
Ni 1.2274238063886247 4.916722191805311 0.5984425971456921 -0.9474898243709552 -2.503781910331417 2.5453921296730357e-05
Ni 0.6265448179993443 2.1058228084882176 9.087770381407406 1.447266256178346 0.06701040458227814 2.2298146705464887
Ni 2.141569089282178 4.027618119299527 4.959966725341605 1.454767706761714 1.6173832968448272 -0.5271761639765824
Ni 1.3927785758086877 1.6689750364380238 13.25591371534919 -0.3546728824661118 -0.3044839203165466 0.29309778996679203
Ni 2.338568724120895 9.136034445320451 2.3621161162481163 -0.385954980408845 0.17597375655757436 -0.4978858996528973
P 7.873419366181772 7.5811370791951544 8.385341853432083 -0.5141470987067661 0.5541169542314844 0.1181308774071772
P 1.645410711862005 2.8469654992550004 1.3341753705217887 1.2277266992146791 0.3407855829610582 0.4961941137727713
P 1.292848907157571 6.712239062253956 10.51946066524352 -0.9418007444059779 -2.0967114881001954 1.2179716767104443
P 5.88499486935372 5.420368474360219 1.8143024816974707 0.3756713390946498 1.73020278934142 0.17930744891649764
P 2.047471708550076 2.5354742897996276 11.299966596005651 -0.9693457439037821 1.0918852919016164 -2.000968234359599
P 9.095565892695289 6.56725967288645 13.382125366608266 -0.062091370014105966 0.34066885487753584 1.2360930689015035
P 0.868851923052806 5.795996037092756 4.889763851937066 -1.0538386215415398 0.5641630256135767 -1.7966709482669831
P 5.793305659117211 8.257691884716849 4.787647075316318 0.1012526135945998 1.3026003085951179 -0.3339904144160958
Ni 6.1649164687184275 5.203783640412811 8.284698199856686 -0.5735480663729026 -1.0170944720429709 -0.4044196148719358
Ni 1.4149977113969336 2.128531103708381 5.731193674162905 -0.28386932938998855 -2.429972223439118 1.431003771572897
Ni 8.520285944812482 6.641527274693903 11.346819622518936 -0.09680640489778812 -0.21389058620800583 -0.18114835877997834
Ni 3.630373463602642 1.7027364579563198 12.401211675341195 1.8480960968164946 -2.7605857509631813 -0.24097304424709465
Ni 1.979986493177478 2.1913881164097613 3.5197274362461357 0.9249386785433168 -0.07228476560734003 -2.253473190505693
Ni 0.6185404731762966 7.560883989050575 7.462048344730074 -0.5793327913754797 1.2295935772200888 0.8150870104257963
Ni 1.5766743766616182 5.766006788889824 6.813108481813313 0.42816735211083684 -2.888371377851303 1.5308723603357763
Ni 3.6772481260227226 2.0347817788682203 9.295129852835172 0.2783522562265012 0.6824905924125924 0.817247765522541
Ni 2.4253098965422395 7.8234027938182225 9.21453233725239 0.6846801438647434 0.6363405762190912 -1.2809593332865747
Ni 2.1109966122873436 0.3094894177309112 10.93099912979999 -0.40306258662340905 0.38249813220849616 -0.28245650820286194
Ni 9.244157537806183 2.800184905994904 11.21456402773088 -1.7164584431721341 -1.3774548918121632 0.4374896579530272
Ni 1.2687201676216475 7.036363759895194 1.1193364601836862 1.0315322447348556 1.6361060700653112 1.5549774809140962
Ni 7.327394927054024 4.043148937612903 2.6101322786210135 0.4846902268982297 -0.017918789261949786 -0.13285481388091314
Ni 0.3498714267288886 4.32035193825407 3.2387089904760145 0.39205826509310543 0.21348358057757427 -0.5855875140359399
Ni 7.621737328644294 9.293224011653894 3.4537924806300757 -1.1692870670205477 -1.3091972450863454 0.08072466884457712
Ni 8.59008526152069 6.290875073937145 1.941779363158333 -0.8768973588643736 -0.11938480441893633 -0.039170499551874474
Ni 9.325941265496366 1.4272737367748596 1.53789624684137 0.49060119306602606 -0.4363357468542421 -0.6902221567288952
Ni 8.066073005829223 3.952701440288184 8.068857452964753 0.41337373874143 0.49193405294483666 0.31990873951204907
Ni 9.269499769505902 5.733562335611304 9.052579108657351 -0.07480521803634858 0.7258859286790919 0.47472180283160814
Ni 3.481160962035852 4.118479520928176 2.394773165828199 -1.2918494978365171 -0.8356026138806447 -1.1879741019070895
Ni 3.444069492254118 6.203908135531839 0.8582719646293935 1.2827400793360813 -0.9334037785915346 0.4208916443850299
Ni 3.930773919095889 1.7140623848184064 1.140520835012107 -0.3661955383937306 -0.12181783934046117 -0.016224175168346254
Ni 4.230252496821292 0.7525720937048517 3.5388921462096983 0.0093924969584935 -1.1201424869750964 -0.5759481911739629
Ni 5.9821118701213125 7.954318843768104 6.876262753060244 0.6257509736287029 -0.303119178758536 -0.20919138096012357
P 3.7560592682574074 6.387295962920856 8.085159638389998 -0.6332845630015868 -1.0645853185350829 -1.3445445142373877
P 7.529163868303935 4.675726410842028 10.314497135320549 0.722355289818014 0.19974926171061727 -0.43769328932340107
P 5.674750296789242 2.1512393989285443 12.931237772430446 0.26278036993017323 -0.914377872308335 -0.5675784790530289
P 8.445952494593042 3.96592756418195 13.897391071804412 0.6374662051831023 -0.646021550952281 1.0793552777554059
P 9.628825146813194 8.684154421504797 2.2251109695724636 -1.026196177233923 -1.1548948028546175 0.4692440675464887
P 0.9586305886500377 3.2690255993556927 7.454172874656205 0.9261141869086568 3.1876210463521035 -0.18940005726580927
P 3.883729932187837 2.6622983312902004 5.696223463938813 0.4918546058571529 -0.6681862599747783 -2.2195845081780488
P 5.970785943259226 4.97331419845175 5.671661065575363 -0.6810420328915239 0.14518839574560155 0.6604634374092238
