# total energy = -381166.27754658676 ev
CRYSTAL
PRIMVEC
9.18414119331665 0.00000000000000 0.00000000000000

0.00000000000000 9.18414119331665 0.00000000000000

0.00000000000000 0.00000000000000 13.44191898363609

PRIMCOORD
 96 1
Ni 0.24425683232993622 4.189750197135715 6.118546630125235 0.620520578467699 -1.7913652197833536 -1.4657918257863596
Ni 6.604215047782576 0.9932097864484075 13.011777423300481 0.6326366450049428 0.019621116665037176 1.1377193195165956
Ni 4.013359577605014 4.52337331725819 10.103860595168502 -2.9130961342914925 0.043997745737188745 0.13580438342754028
Ni 7.347689661562088 6.428531607138883 9.384341895789902 1.4982761715673099 -0.9989088022728798 1.417817869010242
Ni 2.5911585468434217 0.11697289839585642 0.2158962037185229 -0.5212834526412312 0.12714465087001328 0.5260947579869455
Ni 5.102690587838089 8.411277523479814 0.1221536725537898 2.0452434021278902 0.11125523333326647 0.603984785596205
Ni 0.7104925252207978 4.358251639212658 12.26837260899553 -0.15377768007650935 0.35943559396207775 -1.3532518122033983
Ni 4.593126871113009 3.9557107221018275 4.119303240605973 -0.3219450532157875 1.2841076491075691 -0.32145525806356257
Ni 5.985442705792498 4.57869858498978 10.779007952251016 2.0998176378293447 -0.541061406599107 0.6188915275047083
Ni 5.003143679315062 4.396182143152146 1.746253357141854 -1.2384924223716156 0.09794951736329582 -0.1795128800590844
Ni 0.9335128674153159 8.871531585083561 11.863622905880476 -1.108895967527 -0.7107647567669373 1.9270665019741262
Ni 1.95623130014885 1.2035909132624116 2.089828412874214 -0.6561141593015927 0.49424727445904554 0.5682693344724665
Ni 4.184946891188899 5.040697633457571 12.620779135088233 -0.38764239541359696 0.9730427331393952 -0.9980801357239973
Ni 8.27942998968919 2.793338235396418 13.346078333057514 -0.3680809283419016 0.31759037579151755 0.10012621329964047
Ni 0.9905831220109514 7.188014179360652 4.089018534373416 -0.4105576094488736 -0.48897985541251915 1.769539896378146
Ni 0.3280226307030312 2.169762587459523 10.792140356024156 -2.5713864968542683 1.013727612453267 0.32084410684212483
Ni 7.763051640052948 5.095380011291883 12.151548493690187 -1.3208962786908283 0.4113045149172271 0.8440322327052366
Ni 5.039163881845489 8.379702445382005 2.7569506672104014 -0.43196769969353344 0.17857751272900857 -0.4742348358928607
Ni 1.912560707840796 5.011418590707187 4.6613218761739965 0.23609334755729017 0.1796306365838713 0.12191039905426745
Ni 2.285363375131758 5.950386838107988 11.099302127974608 1.2184604434214048 0.03316465967742676 -1.2823610987301077
Ni 7.231271485306169 8.487221188631297 1.7455810779921275 -0.39789338371764377 1.7203850319200502 -0.5846588315740835
Ni 4.857033173946223 4.822050779392831 6.549507872766513 1.1804042599796316 -0.194348145299704 -2.37607830163414
Ni 0.6635138051841717 6.372701211630857 6.605681755162512 1.000113364103942 1.0260267415355941 -0.9764844118310925
Ni 5.30318039437538 5.782482365221376 8.778460414654415 0.4006853446404841 -0.11059060316607407 -0.9980922199088552
P 2.2163996574364524 4.430484911242699 6.896053998238442 0.2379741095197708 0.8968971990250681 -0.3416312187908052
Ni 8.467521205350376 8.049872375653479 8.176356370872515 2.632895512002343 0.6520358754671609 0.9134283639108721
P 2.842289709003553 8.388225328591652 3.025453632809162 -0.43731610848964036 -0.6611000425519582 -0.26856998002875687
Ni 0.1815282282241026 8.943562806003028 5.630457272797567 -0.8206663042857866 -0.5051250977138139 -0.12949798159353829
P 5.591130779366844 1.584778701642175 8.053766451602714 -0.8129098002688193 -0.2052542506892465 0.1658981174891272
P 0.3728495064120491 3.120403878566642 2.940366236490089 0.3219591942831746 0.020313771856687597 0.29348114144813975
P 6.565531444249133 3.7880542210327373 4.738384169746745 1.3534976096656173 2.4892556916907838 0.9919719659437304
Ni 0.6595526850027913 6.401778203270667 8.88588823490395 0.5993344313083871 0.1418243643693751 1.3274011696888814
Ni 5.418202581140062 7.047349869835909 10.919690630058538 0.35743784680575863 -1.3132739862588803 1.6773630198325693
Ni 8.660893302310644 2.8321228644851484 8.53918046854356 -0.008675930507443122 1.216077802121841 0.5062031612693412
Ni 2.7807467775511308 7.676638053717201 5.477071090619803 0.5575928285952267 0.45490271122315207 0.5003346183037061
Ni 9.024759800029422 5.329162330366859 3.0115277192199508 -0.27075361794363695 0.15211726165495093 2.5630892898424826
Ni 6.151868531915367 8.419295278913028 9.03724472183459 0.0746334683451747 0.08980554809992275 -0.02289978741630895
Ni 0.5538524017486606 2.09136675655699 5.1814299056285975 -0.9560634249725793 0.9662136260327036 0.09420779093267646
Ni 2.567472646199369 3.687175612008202 2.683921130121873 -0.3096490094572538 -0.9337686181301209 0.9903187466110235
Ni 5.8710083040767564 5.958918905459026 3.5309634695248255 3.083218831384929 -1.7055076005875853 -1.9182651016324128
Ni 4.048158289330612 7.763979238333309 9.157173076929654 -1.352865118287941 0.7597506997473367 0.4425112795373346
Ni 7.669832604947429 8.468531460903243 11.284464520946617 1.5760558988509503 -0.3148182123630191 -0.28500858520075434
Ni 2.880486553043342 6.08232621331251 8.367917355150734 -0.5010786955585822 -1.7959950052458813 -1.3331882086843039
Ni 1.5930260606101316 2.6890155733507433 8.020564862064786 0.9959695171388977 -1.5737555328525479 -1.5927464721327538
Ni 7.50716309265295 1.0332893794730862 9.277949128274987 -0.9232828881074487 0.7196744005517411 0.5611777177330077
Ni 0.30036826256448634 4.682157937744823 0.9913527530594088 -1.5102765384622958 -0.4400805586086549 -0.05386589678052014
Ni 1.942657139174864 6.088488772185004 2.2587394676571377 0.43244232533710686 0.47289220582203717 -0.908557408971816
Ni 1.7367211367934776 8.421839286077978 7.364451638012441 -0.858694976923734 -2.0596418369414073 3.131118226169369
Ni 4.193093224601569 6.632832832352901 1.1775566276650111 -0.7500843803021662 -0.7996647623334551 0.27344324896065814
Ni 7.519497394539325 6.02321707932836 1.4034708928114255 -1.5241908345505428 -0.0039417582565674045 -0.4211600675550682
Ni 4.398165917692323 1.8467195982179911 3.130797571377373 -1.8174423764863796 -0.6277016695971707 0.9678568180630814
Ni 5.177477051174469 7.281628132545929 5.053462671575123 1.5547885048317416 0.8280754522656643 2.2348206084015123
Ni 6.948363193937654 9.03046315183243 4.540760733737182 1.604423651360366 -2.9513405224846716 1.169601770047489
Ni 1.7197855800708592 6.767150900177357 13.144476326997932 -0.6709599660651735 -0.4607411722818 2.148430256630726
Ni 5.6639059157388765 3.3986282578264073 13.146936758476233 1.344569196827736 -1.002460267069564 -0.25363804130927287
Ni 1.5635908874561226 2.4606794501198634 0.18151996249685187 -0.9570813247141323 -1.401809666507444 -0.7909068136351669
P 8.85623080552831 4.785856078175998 9.834135220350772 -0.8869087203537886 -0.6644589317218621 0.6961326086760591
Ni 2.436304738871582 4.439641500208237 0.594281910560287 2.5352072187202337 1.501503677365672 -0.9059112295982206
P 4.624757054059158 6.793481833541645 6.980388294963559 -0.6785935713510313 1.7338087615251236 1.2001662730979072
Ni 3.1055623060808766 0.8507380378981703 9.15482101831975 -0.49906140801823734 -0.0019270418193837783 -0.41473950874070514
P 2.292361690870714 8.11116733528838 10.328206208965556 -0.8968110670691651 0.2067858568424245 -0.5213371886973022
P 7.730356096705593 7.395722721030252 3.462785914332479 1.1519213220485904 -0.8452342234331378 -0.5808623406461286
P 2.5665174954948395 3.5564209910429527 11.838782558663738 2.4773820801816497 -0.2097248848660904 0.2948631093973309
Ni 6.499359705536298 3.512566715907105 8.479579064580921 -1.8705063461908948 0.12715133573823262 0.5022837716102769
Ni 0.5219457761466816 8.279007519185264 2.2642646471171854 0.07828983415083936 0.25895302576428303 -2.28660596850392
Ni 3.7237560471634032 6.370680700525122 3.751572056190407 -2.076987270198391 -0.8677239198952218 -1.6049887798352165
Ni 4.582096717303973 2.298248725501516 10.355963439487665 1.137282489089493 0.15296264037438173 -1.244348109821444
Ni 3.879675215536448 2.160679471625104 1.0044043363883206 0.42263382388711723 0.6053492700438994 -1.6634320115737742
Ni 2.48954520650771 0.9910239607976574 6.550852431065965 0.6387008489211516 1.9852068577602842 -0.7852889532277573
Ni 1.704585826070895 3.8143116812659077 9.898172564604637 -0.19547377426371498 1.2243061035689045 -0.0826797356884189
Ni 8.748675325713458 1.016124219215725 3.108618788335371 -0.3569411096749982 1.1485706604088026 0.12457971835631448
Ni 5.153304391036761 2.349009474962423 5.968091107464925 -0.23971500347027747 -0.23113780332422776 1.3682300307797854
Ni 7.501955684484985 2.364245965527946 6.342219964772561 1.2281324192935301 1.5395223227012906 0.1210321102143722
Ni 6.501426137348982 1.834679188856086 4.164561770960306 0.7588299877052803 1.3127301979402681 -1.2052236330161565
Ni 7.116938109145715 0.20551353187745983 7.040339614713146 -1.488770803180036 1.7500344793553666 -1.642881698226248
Ni 2.043471459209671 0.8016965597054161 4.295984079004588 1.5490225488822418 -1.4197724216334517 -0.2466538966819559
Ni 7.95973002791351 6.12892654672388 5.136708647545561 -0.10720651718518956 -0.8492492581298018 -0.001161624408268967
Ni 4.295230060996493 1.0824153517666257 12.198326999444518 0.8061259445777665 -0.30578592695742174 1.3296287734678198
Ni 4.75261867048665 0.26027121967116723 4.86815241392674 -1.9347253040709649 1.4644867338216907 0.026884225985353703
Ni 0.3989168549184528 0.18661256889744407 9.64648576189043 2.280854924952756 -0.4334733377047825 -0.3675335404788638
Ni 3.459160933725962 7.878679980149352 12.222186480360836 0.0028868346294918024 -1.0135206386487834 -2.397483249672477
Ni 7.229912232380492 2.3970792709961466 11.223424880442352 -0.9115553152578753 0.7027334018220284 -0.3224908984169284
Ni 3.0215917013547906 2.928078773724801 5.386903027283942 -1.611022644734122 0.09194573437137712 0.10480022173654209
Ni 8.041174993757426 4.986051992188818 7.4499284419264376 -1.8904066846592475 1.090337230688206 1.8506687426396773
Ni 0.11717862316298586 6.652936917854968 11.294667183616443 -0.7470759324931456 0.030494054823799095 -0.5801879402869233
Ni 7.038918828040159 7.207218219006529 6.977270278961755 -3.158448795663522 -2.8979579930984736 -1.8283873055336575
Ni 2.2174650178376583 1.452416855933727 11.412324300545833 2.4373124658542733 0.14853160118622163 -0.37232427699928783
Ni 4.3663153153528205 9.000559587467546 7.127859890086354 1.0462806066886239 0.014073961594562858 0.6714926986401919
P -0.06329985770027333 0.8468843721710495 0.3911461528886222 0.2994676980488778 -1.4881573379657531 0.40385757172087866
Ni 8.565828254785794 7.536368662272215 13.446220373942596 0.5069942897120687 0.9671525929072051 -0.8044837809886533
P 6.188742859595038 1.7151843252346162 2.095608911464895 0.6098870100132529 -0.5623241726326251 -2.712520520024838
Ni 7.177847334842247 3.7933534706145977 2.3542315777566105 0.6784393051613541 -1.3499852256369846 0.6227288989729275
P 5.784153878954303 -0.04525210145536131 11.12787950232282 -1.6256229111458003 1.7612465460211022 0.2032585604154564
P 0.08905219015701003 0.9180081999212136 7.50668000681585 0.25430087170425236 0.22560890308619852 -0.24177162888899006
P 5.9555850621345625 6.195245231698951 13.224281005189646 0.16826198973561343 0.08119980870878274 -0.035940936870983264
Ni 3.904573422843942 3.4278613798698423 7.922720693355411 -0.26740552740701046 -1.6433087584613377 1.6138102347815881
