# total energy = -381173.57595648 ev
CRYSTAL
PRIMVEC
9.15802610478637 0.00000000000000 0.00000000000000

0.00000000000000 9.15802610478637 0.00000000000000

0.00000000000000 0.00000000000000 13.40369691181568

PRIMCOORD
 96 1
Ni 8.01526916929525 0.5768374972787543 9.425077665655376 0.08535573985868525 2.2047770108515703 1.866053966846496
Ni 5.987618114396752 2.028228010534311 8.21225739200619 0.7409788184564723 -0.9628218267423353 -1.1968989152005451
Ni 6.116215115001451 2.7231481788070075 13.062478902998746 -0.7923103788509129 -1.3438297475585501 -1.0737908962937506
Ni 3.151826216216592 7.1468959892398285 3.967427187449585 -0.7547763864611969 -0.205361208580756 0.9041055438480493
Ni 5.666446143793788 7.372275008245786 12.957541662475393 -1.0019699576967065 -0.30296516967917503 -0.3270209250767981
Ni 0.21243506510660679 7.599018573120573 3.886039810695991 0.25680744017619 -0.7827996111470003 0.8244890204659866
Ni 4.894067391906611 8.097105289321142 6.8470640507412 -0.18326951888803922 0.6645322081619588 -0.47038460890883504
Ni 4.570578440734427 8.84183596081909 4.000400659937637 1.830351371238564 0.3683688918959656 1.213492300782852
Ni 8.616347045501549 3.982486645346919 6.4917985810746295 -0.056201486892232234 0.5385671794223433 -0.6540390219401188
Ni 6.884399490996523 3.6678809793610734 2.7382277843614653 -0.4719812639719935 -1.334527753431334 -0.812001429521937
Ni 0.7695800591521831 0.17004805772882647 11.855918140096842 -1.1358146462947147 3.140427419385437 -0.9452912740577397
Ni 2.683951827675537 6.711972178121912 6.282339874406744 -1.1591124404803907 2.193815883854377 -0.7938610111674843
Ni 5.93019729159434 5.081925978532746 12.031480245259376 -0.5077849039341642 -0.4621804758314879 -1.4909960929661288
Ni 8.044007054774351 -0.008690050838470258 4.984244641981696 -0.48673425391145203 1.267085917738592 -0.16026791578654334
Ni 1.8881560033950946 3.1014295993295624 3.960658490458634 0.8304130992599054 -0.22442619563200703 1.6196751782027976
Ni 0.07784688391541003 4.089168489816664 3.1674278292510714 -1.497882535673317 -1.2703738444612445 -0.6277350939382673
Ni 6.443129167884655 7.637583020460438 5.042805639016787 -0.2068452493254502 -0.7879567298679075 -0.3798398686500426
Ni 6.241286275609511 1.252726371792967 2.9751514108992763 -0.49271052609954497 0.6670722009749931 -0.5530193502919314
Ni 7.716195515346548 8.056828291125766 11.722028716286797 -0.030167267611999657 0.9255840254367995 0.8453329537945313
Ni 6.46070341971206 2.2771614723230127 10.530252670503268 0.0653875242668745 0.022247498544290718 0.2453675737703645
Ni 4.202325058643872 0.9256291583904567 9.483517776747725 -0.6579000475574218 -0.2414263297344294 1.7546568086187266
Ni 1.0427236783827432 0.8121319109973388 3.5417795408319175 -0.6606236171361719 -0.33454448714735285 -1.45877862769332
Ni 5.989294033148401 4.395550248485672 9.63993869184019 0.06732253650605825 0.6358569517144533 -0.012470621663184975
Ni 8.569091631520616 7.160990191200421 6.207654341054555 -0.11661598342454753 -0.5609141796589758 0.6871134358965844
P 7.8236466339973765 4.2789411038695455 11.414427108559211 -0.6323774778062851 -1.6085284175573589 -0.2429646207558267
Ni 5.92636007871488 8.683896645021578 9.16371859423696 -0.4881005381313594 -0.7419111004627545 -0.016921458345686986
P 7.688318484308183 8.240126180821184 8.014686718843857 0.510201740905773 -2.268901609245621 -0.723911064340908
Ni 3.5372325809401475 7.781153393518399 8.673599360626199 -0.5095859616986449 -0.5193849500669377 -0.19444841832299414
P 4.967487286070396 2.7147594270227957 1.3993729257726704 -0.44074261767268613 -0.1641255989697367 0.9217386835487804
P 7.108862707405951 5.472643998316174 5.639283438780717 1.076030327147231 1.8200600166148846 -0.9883191996824915
P 6.858418171332976 6.963140198246146 1.2103833229398202 1.541252675128836 -0.2876485939267627 1.5375400021639392
Ni 0.8939139986700368 7.193272232728092 11.862888313659031 0.34956127227115924 -2.5139549942096773 -0.06339954730256823
Ni 5.808203227710619 5.088583863409517 0.822023494842456 0.18009472070448337 0.2865031674684098 1.7740105305549898
Ni 3.6011189700740593 1.444742702207348 13.046112594796167 -0.17775990192371965 0.9903483142973782 0.3547456446855761
Ni 5.4989916390183335 6.301454506201512 8.210956952319117 0.612774615973693 0.18572337974517047 0.5783030645593847
Ni 3.681160117010754 6.18018392636905 12.297717797109504 -0.5655084838978777 0.5693196301138518 0.7371969828165369
Ni 3.3212954867044115 4.854623774074076 4.908352996609877 -0.9037623015760178 -1.1060538700925144 -0.33323836674141966
Ni 2.376452789838762 8.56783698196337 13.273748151399973 1.5341564304036868 -0.8445353975939003 0.37474111397089654
Ni 3.6548124763085954 4.035932884880392 0.05132981973289277 0.5284506598136318 0.07275579170648759 0.10321333686539644
Ni 8.061819415276853 5.78600417277074 8.344752964264316 -1.382389352999303 0.6690866603018607 -0.9271873653681774
Ni 4.457311975595634 2.856040293589431 6.309147248012361 -0.005532242672138859 1.854337449740516 -0.6174609657057689
Ni 8.987631734186616 8.460642288039569 0.6217695200722907 0.3640684647483988 -1.2916049859258787 -0.7250716603079126
Ni 1.7430928721047914 7.835002586194345 2.2445827107540652 0.5590223619529018 2.4552168569385198 -0.18990913569174392
Ni 4.490546451823697 8.939927576933384 1.0869422909535829 -0.03305590201370436 0.6030656162160453 0.710676310818189
Ni 8.231993853764001 5.840943170536556 12.833422936567723 0.2652380874420464 0.6433771713508983 0.8194961952370854
Ni 4.085596859690198 4.4962702180520076 2.474885084518966 0.3273754802027394 1.4748853034471954 -0.6358484670740211
Ni 7.392001396175036 8.483711355446152 2.7733048554137456 0.08415349202046797 -1.6782269104947616 -0.4050055692823928
Ni 6.742596616949865 6.586443116215587 10.20656682177283 -0.03250774281971821 -0.1621569052791401 0.74479304999624
Ni 7.965083187005422 1.1091926308388684 7.209902292078475 0.22197336321614028 -0.23021811972343575 0.028850862793421285
Ni 8.55874306217983 1.391360568855632 1.5499766627719784 -1.1044849829434977 1.0853750015869243 0.6497545356321519
Ni 1.0235742460893074 5.583025685275898 7.494476043516323 0.7216112125631379 0.4688195784145603 0.5023418785417221
Ni 4.938492975864266 6.000943042176258 5.884223085445952 0.6849223417825365 0.6612944179509515 0.04117287469388393
Ni 3.1595372740793715 1.427901092457167 7.5806887841510315 -0.7394929779395651 -0.3625949655266658 -0.776872704139604
Ni -0.024935473098310484 2.2582043585748477 10.804197617005793 0.08835133215189946 1.0410543252926778 0.4849861608720938
Ni 1.8086643380163174 3.4494712181147076 6.3499609065293035 1.3625244957545761 0.3602652889522247 0.15926390000206123
Ni 9.140396765313735 7.894859443903525 9.883054975535735 1.2030937311573473 -1.6818997313606585 -1.6705791641415164
P 0.4181728658247919 2.520316219727611 7.696697162263834 1.366849605492491 -1.2189769780465072 1.550864230076671
Ni 6.899958977111562 2.3528525569261918 5.5365175662137345 -0.6739792125074715 -0.6719038180356816 -0.7832495542002254
P 5.111268293725558 0.8868668976897408 6.190443662857972 0.0953151650642423 0.17226956823310974 -0.8158588555948142
Ni 5.645749005112217 4.223791471506528 4.6028293449738165 0.31377897246522735 0.15263405339036937 -0.10869107215051604
P 0.9634884377309941 4.380567718006446 1.2110014896924777 -1.5070166367641014 1.4751447277561693 -2.2564914085067267
P 1.1740039805952747 8.793554847930043 5.374989220040424 0.8508955354839732 -0.4993030917153982 0.5654105248674327
P 1.377632687933652 0.8178181293191916 1.0410129591324258 1.2858865953848628 0.6879310467018733 0.8988268119476133
Ni 3.5502095037329733 5.219049101311136 7.593542989395922 -0.020893812729873694 -1.9476913773133295 1.009989228456757
Ni 1.6503312271022987 6.4553276584704316 0.46294095995354945 0.5149731941524873 -2.1345133894393173 -0.5706424626903333
Ni 2.870372604225121 1.3535653956968516 5.2432849012256995 -0.006815737370252778 -1.0217260572777114 -0.40640502073308077
Ni 0.2917426541634817 1.7124959073547341 5.497726915632526 1.1692186756764573 1.9309799780959196 1.2476476065083222
Ni 6.687428668534917 -0.0017592567879335405 0.5563280981294718 0.9542045173869694 1.550614061739078 -0.368915508428055
Ni 5.258913988338075 6.310969695179456 3.3771951613939875 0.9575258684507186 0.5742168103051529 -0.4233969273053869
Ni 4.309629648879256 2.6317327636214136 3.5247163068533762 0.8259370657664227 -0.9051039032055768 1.7556790792356536
Ni 1.1752403141005898 8.436501731595046 7.490066454014032 -0.09673775644338177 -1.1870166230898267 -0.7436262833816484
Ni 7.946446604166042 3.5750643862027895 0.5221219553464913 2.0137859549495576 1.2820793058236308 0.21307863182967174
Ni 0.9600175458901467 2.5154807820179346 13.037976604528597 0.5509447271510899 0.21687049477193618 0.5342662380541443
Ni 3.3968858330219724 5.16839605969708 10.152496004868524 0.5920648942301674 0.5954937174060584 -0.17118687669189228
Ni 2.322850863863879 3.016278273904232 1.7768878195219302 0.99599857060462 -2.158791802370708 -0.9557914022581152
Ni 6.359717867392731 4.262594027521491 7.079470938872927 -1.353646990759288 -0.8408175824226809 2.00084662118007
Ni 0.7903266511739667 5.4889452845344024 4.964501769605709 0.14491920124461494 -0.2801142332229305 0.7816606124465505
Ni 2.722534591067333 8.272838649569225 10.756748052874395 0.2776254053628058 0.4477812696870224 0.9128192695719635
Ni 8.00144055008765 3.3105073321172918 8.967032586382873 0.36858794988530713 0.28539502200589556 -0.7783662579659949
Ni 4.390037116854563 3.26697007667827 11.332932582901824 -0.9976970413529656 -0.686210978686973 -0.628924229150362
Ni 4.2177105422655705 3.132924050624219 8.882723799346351 -0.8659231192410571 1.5026141368210313 0.04101758006294226
Ni 7.661934211502163 5.698691553217598 3.518014463451972 -1.093930347356103 1.3549446265247893 1.207715546200075
Ni 1.9749924055980401 3.8008463583512198 8.849602882640257 -1.32469096984657 -0.9944065435271519 0.25136929987975415
Ni 1.7785527486424209 4.846445656887066 12.12966161002813 -0.8649949509998328 -0.8166900932468579 -0.3201406530171971
Ni 9.142091000117315 6.42538091356391 1.940560059573717 -2.2254453378341994 -1.2365885204806835 -1.003168348880182
Ni 5.493890618555663 0.4391264292333913 11.69876000391417 -0.8056338354326964 -1.1231553056594916 0.05237234295412915
Ni 0.08142584046264807 5.305354338008096 10.285742535255805 0.8125668151071037 0.19123402515075455 -0.08651247917094777
Ni 1.9981438952383108 5.408427920247512 2.9632890198664272 -0.14935049754309118 0.4836612714130832 -1.1152872157653246
P 1.826852177583397 6.529003977361245 9.441148169619277 -0.32781179640920965 0.09183080606006765 -0.3442735415096587
Ni 1.5556463966470937 0.7152647229546035 9.111953768270714 -0.36151124554418385 1.6544691459535312 2.1711562374733315
P 8.243935919622748 1.9020945189142766 3.691257756440091 -1.0401927486233313 0.9346798170904805 -0.3864280633905216
Ni 3.7073795453493994 6.858830282501414 1.5828026910419886 0.9637235126209984 -1.037832990141903 -0.6200701211938418
P 7.57055542842043 1.0656370593479163 11.959247231260692 0.9264833973226172 -0.020286518163177968 0.6453764611691143
P 2.795469109854958 1.592022075781253 11.03457966559659 -0.8379479741843697 -0.11174117183074948 -0.11089476467005419
P 4.796039881974072 7.421700874380494 10.979370506064798 0.6731106938595891 0.6149631389845797 -1.6085335597636816
Ni 3.170188058277012 0.911760243868611 2.828340928254794 -0.9636481792983725 -0.9008860084694873 -2.248819493783766
