# total energy = -381171.67761904775 ev
CRYSTAL
PRIMVEC
9.15956959625682 0.00000000000000 0.00000000000000
0.00000000000000 9.15956959625682 0.00000000000000
0.00000000000000 0.00000000000000 13.40595596760159
PRIMCOORD
 96 1
Ni 6.399772943062661 3.9298034114105342 12.78940257877773 2.0227814735799483 1.567647363072281 1.501083559109118
Ni 3.303829267070855 1.5719286922198739 6.001537756856306 0.8771269583766765 0.06616656852474412 -1.304286438048289
Ni 4.979828988804307 0.6498045965035129 2.0671179223798646 -0.24289880051489784 -0.3343431697698242 -0.3032515905713422
Ni 3.027146148912375 5.728394812338647 5.798745802418034 -0.171632191759427 -0.4753722919314136 -1.1951734478690061
Ni 7.80322967208563 2.000761420592229 1.0878179614611043 0.39404778471930846 0.6031638323568064 -1.5059935948162257
Ni 7.091219690725967 3.1729848156889275 8.018115922191015 -2.7518650832607316 0.1949001611484321 0.6689797024103511
Ni 6.330563235352346 2.944261203826266 2.44957666594987 -0.8264039781005121 -0.014603865956103882 -0.3998124551172275
Ni 5.451152960436079 2.0045626419659426 6.951578388724005 0.3235504500296944 -0.8533244566404401 -0.6900889735851405
Ni 5.239768413779297 2.161466068789353 0.24819410890869303 1.4305240037230007 -0.8045100062408983 1.5416979901963708
Ni 0.4808316048508431 5.1120107373442165 5.069207152762285 0.9268029854455652 -0.02237476815077437 0.2825639803150037
Ni 6.607438704471905 0.1750741809467196 13.236035098705598 -1.1213653036386044 0.64419992436251 0.155874414704538
Ni 8.784366126704219 9.03980820301778 12.820879439622951 0.7995022686136617 2.3992372562491067 1.0049364965241985
Ni 0.8636796301277953 1.92151282462748 12.960784537228681 0.2322148384384904 -0.06749222931470311 0.5081911382336474
Ni 7.618343760209941 1.6892352997696358 5.845989030373071 -0.22619460038633946 -0.9797383999920158 0.806292809172934
Ni 5.331455705227186 7.728927243691496 0.8698641715049795 -0.285201932158483 -0.9163110847753059 0.3384739041087461
Ni 1.2068007702431305 3.4902631462047546 1.5706683354463247 1.1701129053559525 -2.0983510805861476 -0.45650090894820733
Ni 8.956758385679317 4.3242327964583875 13.179422547032075 0.06759610188241906 -0.5771442683645931 0.2709834745662559
Ni 9.016716928118665 3.5294661039866693 9.032369716565748 2.9668188206259294 -0.029614737542639318 2.1528630955910986
Ni 5.11625161805754 4.928297250374155 6.771321723311629 0.5641411712367058 -1.1465451453383415 -0.22855307331618702
Ni 8.714194664188508 7.575504453306666 2.7043162032770107 0.057614050969042714 -0.6455860060767591 -1.1082917582840979
Ni 5.540632795616341 4.950380972619996 9.102697807721196 0.3615166448608226 -0.00914464261374554 0.13057321693558804
Ni 3.7426642454193435 3.354390091126035 7.651744130665958 -1.392634427766079 0.02475123880275092 1.142861011618535
Ni 7.349272244368462 5.174698831516978 3.666381518083049 1.6908821373649265 -0.2492602239565514 0.945689795047739
Ni 6.983475673812729 6.609582043752506 10.333605649129332 0.21608682252837622 -0.6413763388707857 -0.9173122723463105
P 1.8559028277602243 2.1617408558766096 3.34250738151611 0.24253396097631133 0.014992873864406436 -1.1029711174021326
Ni 4.727162262072038 7.649440498917791 9.521164651205282 0.14321070319394047 -0.5013139514978399 -0.6779919332112905
P 1.3715905864708 8.615573578572182 7.7311878254626585 0.4919870176699591 1.2940961277788487 1.1644662485931365
Ni 7.075630103308954 8.298460120308707 4.842110280456183 0.7436638214878031 -0.08693285453781803 -0.690861847195423
P 6.22551213189422 6.487365906910429 7.680258786710555 0.3551647345008657 1.6756635206429593 0.8010053355217495
P 8.94356860549101 7.044643279436006 4.710987378159167 -1.3118292833925536 0.8601630768288284 1.8109655105127842
P 5.429994354717334 2.6096163293958337 9.255377757013477 -1.4646577121819162 -0.6252753195438651 -0.5874279096787883
Ni 7.801452715588038 1.3184742425041358 3.59752811762921 0.40805078386661986 0.26654626473050863 -0.18149442926548745
Ni 8.426245275452514 5.516955308264413 8.214687612930762 -0.45709072001340634 0.4656067279042175 1.7679365564467682
Ni 7.810593966024101 7.976272260500566 8.18421555686794 0.9305634809292619 -1.317954422453685 2.1936305073164477
Ni 3.4597709390888687 3.6681694660641306 10.158376671456791 0.7971800482383884 0.09475466457508197 -0.16348436584131198
Ni 3.5773156954475858 0.45152006625320174 7.895987717216861 0.7909970593561281 -0.27515328967322933 0.642926714077041
Ni 5.106038697981177 4.782623455849956 3.5494678560680635 -0.06311312641040098 -1.0407774174822075 1.022729301731245
Ni 3.2399687479924655 2.5360191878589915 12.906463709862876 -1.2708479558841856 0.06426472351634092 -1.8130684157884003
Ni 1.8175059121009285 8.646129902675094 12.65583865118892 -0.20101810112071186 -0.4424295184568058 0.1479587594018871
Ni 5.948041290752271 8.767503359116251 7.208798337492113 -1.2158348328730997 -0.18212512087095084 -1.0916785752074487
Ni 8.65195538892493 8.873131515457615 6.397630519739018 1.598902978652453 -0.1944443045579361 -0.8610333952489234
Ni 0.8139221003243619 9.148788761823672 3.8899656954570574 -1.1392552965451475 1.8552260229930566 0.2056334884055362
Ni 7.047473586434746 8.978503203850874 2.155704699526544 -0.10137345544318024 -0.11073432783278994 -0.8742581214693138
Ni 0.22223039299079228 2.954950421520541 4.352203374070217 -1.0225503529512194 -0.4524185113487176 -0.5209715778277673
Ni 0.30047052034531013 0.6356017679201864 1.6315721454658356 1.0895982956396526 -1.0103854354539115 0.3684365119091074
Ni 0.4267443465092062 5.196434490118961 2.698324012860906 -0.2744302954642758 1.699816977960711 0.5377241146957579
Ni 0.9896731734626897 1.6160045410158024 6.282138422922106 -0.5277299795975233 -0.707685089400349 0.22112489917291592
Ni 8.646798551254085 3.518465460926838 6.698714731245868 3.280448669107802 1.1019041095901991 -1.8737531352629664
Ni 2.689185510295715 4.6643825722035235 3.5006977278648383 -0.683859447735661 -1.207261489381792 0.08153996565702086
Ni 3.414577622804764 5.700036784933785 8.670302006784084 -1.6985923615249907 -0.6127049390780223 -1.1029760024981392
Ni 3.623589840941565 7.396764612615946 7.120171258239303 1.0914422908269268 1.1036072083242348 0.35497344442566614
Ni 6.406880769053027 3.2557506863705585 4.726644746391038 -0.11735826090721078 -0.19236993852741063 1.6116343101761923
Ni 2.1590021445736207 3.545458712464993 5.686966995106912 -0.8843527867011544 0.3947039302460686 0.5929249282376176
Ni 1.0616307520455683 6.856542358639417 9.42367660434541 0.09834418169855322 -0.08543338717415609 0.018156616304368732
Ni 1.3527585114241607 6.137580263972168 12.128837319937256 -2.519855675964828 1.2491540158505197 -1.2146379843515211
Ni 7.634684432332122 5.677339371526406 6.16014394766375 -0.7361068350761516 0.4929853770274864 -1.487744933018683
P 8.740418511882345 4.786104092288538 11.121246196471532 0.8622065896214184 1.3080554181724182 -0.5608565869481631
Ni 4.947962846252139 5.354363788734796 11.443364443550902 1.3352638602664102 -0.08832484978933822 0.5113862481321773
P 7.365145778442308 8.691900271842437 11.052138159983503 0.32879138671365954 0.810589636776075 0.02122059994167313
Ni 6.624805248386511 0.6122219665794535 9.34333435577338 -0.17028776191639058 0.5989305110017491 0.09894864805177152
P 1.5732843085170056 4.411202909575041 7.871212913429823 0.1275801957455351 -0.1749365735423116 -0.4376647500783108
P 5.285044166189578 5.589260950491151 0.3105707777158983 -0.690571569648514 -0.10451302951342645 -0.006136451915041044
P 2.285761427925003 1.155727010291739 11.27507933557333 1.2213544771397482 1.663583963770606 0.8807313878984832
Ni 5.56438355952487 0.8459778459667372 4.528250301305825 -0.7714127094662973 0.05192728499691057 0.2859755770997139
Ni 5.553428714312915 6.571359159915139 5.298020528406783 1.155983665043422 -0.8642099932046923 1.0055525328416424
Ni 5.303042720404873 2.6506603606623664 11.40597508054488 -0.6865174541837983 -0.293115787688921 -0.33402666697066985
Ni 2.4485544579852765 8.835513163212212 9.80704672508815 0.08802325938851936 -1.4662697938640425 -0.9250160687484714
Ni 2.798266824366935 4.752021333899168 12.859890962400744 1.4736786847336039 -2.667180915547774 -0.07203691126259207
Ni 4.046908508429642 3.9580698431196444 1.4530979322927966 0.2495942102572024 1.1661912017040432 -1.0339616801119549
Ni 0.8427463498206017 6.753222413831007 6.8795347101871185 0.3873068664510491 -0.7785524058348721 -0.16132746739930925
Ni 1.962364504932933 2.0460738112808112 8.6759058314502 -0.9535105766437385 0.2369564668885338 0.5213027359149409
Ni 2.924558969669982 8.300127161971398 1.6787072904998854 -0.35157933114245254 -1.415316956965259 -0.33935784937559615
Ni 2.7514797429767435 1.2627291020693854 1.3128346955166768 -0.7278173413738498 2.0980271215878252 0.5964334556115083
Ni 1.7527477552041677 6.9907575316250234 3.9938617771917495 1.7628432010842605 -0.7956875228532619 -1.0500531863571787
Ni 3.4855459678735197 6.895305657081721 12.859931264506875 1.255139029789361 1.1724284408630068 -0.1039656416503887
Ni 7.120539472936226 3.740878129352177 10.384025415813054 -0.3080037605443469 0.09118134540152684 0.5692162717667681
Ni 7.488854925125144 6.068242322287801 0.9236061140736308 -0.6650281739617708 0.09919470262430659 0.6756051781466687
Ni 6.196531253758244 6.91989910139117 3.0025719396990347 -0.3414918649994635 1.384464747471093 -0.5882352360714321
Ni 3.944321329187248 0.17374970718614366 12.798746255701404 0.6832220712619782 0.6366329106485294 1.2197444523401508
Ni 1.4107202676961128 3.2886152220064258 11.107196332700113 -0.9271732243007903 0.13407788765473683 0.05131896198895033
Ni 3.1541893789205893 0.4973362332684207 3.7580376669943827 0.699323604809531 -1.2280205763060144 -0.0701584632929566
Ni 2.159551718748134 8.654190323901283 5.633464117304174 0.6871031514839393 -0.6423464160935388 1.6579028542254284
Ni 8.662946872415187 1.426154142430348 8.249998669600167 0.42541575750762867 -1.512992651841878 -0.5284488600414189
Ni 2.27640950738871 5.986108461906859 1.3159269662052688 -2.2236697339910156 -0.17157357060734968 -0.11108245520082806
Ni 4.488784463877101 0.6857046134966054 10.579833198450228 -0.3935664742075157 0.024777978275628294 -0.8139348990992241
Ni 4.018376449202851 6.341847825069009 2.614737444745336 -0.3667372698298136 2.3694991057547257 -0.27306272569278783
Ni 0.4065548232515202 0.6312692915111103 10.495563326444346 -1.9601856531255981 0.3249750982913629 -0.1373537301925312
Ni 5.458718764905205 7.925720596014962 11.82492463334558 0.4171936267081525 -1.1488614521763438 -0.8506278836448835
P 7.9346694954899455 4.1443846478490665 1.8717131608040007 0.9324049050133749 -0.644900035753328 -1.3427933358742357
Ni 4.245451338541974 2.5012861000297817 3.214078308631166 -1.6541932665843253 0.5572349310351759 1.597687618188113
P 3.0977572707676977 5.886305791815331 10.725060005979154 -1.6810499817658533 0.8353838130016193 0.4981676925593743
Ni 8.17791102512932 7.113184338567329 12.312311742141402 -0.18332145517189716 -3.7108461961007384 -0.5098795816796639
P 0.49059845388889345 7.341688120760186 0.7058062048863695 0.3641371132028052 -0.14224293996403245 -0.2467379717553299
P 4.265007019585055 3.540769012842483 5.268164911376374 0.29997317693038655 -0.02039707559911326 -0.03821559183777289
P 4.2718858563360405 7.801471034727188 4.519013791346179 -2.533492807132288 2.1565721690115693 -1.3857325584399232
Ni 7.757129558413578 1.8275814386336637 12.01034271621359 -0.6222825554641283 0.9265451037984882 -0.9117404346854879
