# total energy = -381171.11977506604 ev
CRYSTAL
PRIMVEC
9.24608546519685 0.00000000000000 0.00000000000000

0.00000000000000 9.24608546519685 0.00000000000000

0.00000000000000 0.00000000000000 13.53258068695419

PRIMCOORD
 96 1
Ni 8.432494503597383 5.637902210189225 5.627590975878071 -1.8906645663063244 0.794066185199755 0.3786684740497608
Ni 6.275012962919062 4.348923952612798 12.891650284992075 0.9345762016330809 -1.158185043570115 0.05970615761138104
Ni 5.281650544112531 5.09463922311416 1.5337822346560936 1.6018790305616413 2.064294248111754 -1.3633413352289165
Ni 2.9271349259856154 1.3778886136883777 1.3494217663092727 0.8212090641631342 2.004484989263606 1.3945856379551789
Ni 0.9315061082419565 6.041604785954617 1.2780225711208262 -0.6981702079313783 0.24002559273216081 0.6956489841714213
Ni 8.680742647446154 2.4490660862634392 2.931008111111998 -1.4536955567434577 0.755236613927067 0.775307159424697
Ni 3.4206262359651474 0.9995572959482752 8.029827489384044 -0.004089082467709087 0.6593455217546967 0.15567926797459639
Ni 3.2760636925156508 6.468496543617762 1.737204432428913 0.44573390023969045 -0.00873120922541077 -0.48908089976675767
Ni 5.452610661054085 6.278933303080405 8.947309135463914 -0.17686335825137928 -0.5396676115753739 -1.1512039842665915
Ni 5.067372517605202 5.177678315069384 10.913295003780064 0.265689058936536 0.3247143884308085 0.2811943536609867
Ni 7.480027520011646 0.00011465145754868938 10.565006990960361 0.04019636971322755 1.3066845059668206 -0.8663332101952823
Ni 0.08686789587223319 1.0896603970621443 9.804069890252354 1.488556887397017 0.40515983547207 -0.7696931556720292
Ni 3.837966787527663 1.5873586758468905 3.790245892148607 -0.10453514100061351 2.9981752234500236 -1.8768662269706515
Ni 9.334662783226275 6.491371358615782 7.803047830961264 -1.8287907116196636 0.7340828626675873 -0.010228876816859803
Ni 8.349270489936435 4.422051241141232 8.41108057007458 0.2532770584254283 -0.8832114740078595 -0.7777227108447251
Ni 7.13206959243666 2.1466543748081985 8.975903578819969 -0.3831216247251079 -1.6012020590992748 -1.1305449132553433
Ni 1.3661183471190648 9.223691267621488 7.3828752034755905 1.4772985408743784 -1.5207614971540195 0.040350635902904705
Ni 6.126909168804957 3.2772564375175683 2.9361101009729147 0.9408723190544376 -0.7796114432270057 0.21369801058122548
Ni 6.99236124376241 8.222987457097727 8.36496202127562 0.3117457440852825 0.21930584368630618 0.09478320382017223
Ni 1.4431197453824103 1.0952080482338553 12.113987016001357 0.927106632728913 -0.09859923513215277 -0.3959352315500084
Ni 5.195227384942563 6.45330522549256 12.89377503539084 0.1258310742649123 0.5608439885426728 0.032699290005234014
Ni 8.287904221892028 0.262679433763448 3.9684429200436573 0.13415553497020766 0.6141211026992585 -0.8174711943872567
Ni 1.5159788974375452 1.297872991621736 3.3269578443649257 -0.1723209902963355 -0.035436743541055096 -0.12863820469640427
Ni 7.4591775976912995 6.642285962656889 1.1764450781668019 -1.5023405714446707 0.5432905530399418 0.4501127460336764
P 1.7607227749628522 3.5569135330835087 12.47395375914604 -0.7316763101086238 -0.9165676808708022 1.0684535432412372
Ni 8.889731913169785 7.343287164714262 3.5705579811403316 0.6876379409414867 0.031169740734585033 -0.3546024342394925
P 1.0981298111842897 8.29948032067033 2.3379558793793587 0.16014398861416934 -0.47073864981414415 1.0456684270259218
Ni 5.787873713531139 4.026762602986267 7.690064367198202 0.9551694524034 0.009750908739176755 0.579691460266479
P 5.754902173400605 7.70262702327654 2.8116503961526407 -0.7215567051761186 -0.814986737402506 -0.7491569833918905
P 6.9760973797440124 0.6500783873437118 5.567899173878992 1.061760447491778 -0.458085736936824 0.6967082786738711
P 5.397688914454148 0.7712723748409055 9.083095294759765 0.23785403900213875 -0.10046405625503342 -0.36828918769796576
Ni 1.2005302057287845 3.6176418212431694 3.922445494961946 -0.1463119678270835 0.43828155772670324 -1.2174386870251095
Ni 6.539275326483505 8.618914075137438 12.805352872581999 0.9878258049858407 0.2989136253176207 1.0767908594623392
Ni 3.438267766691188 1.9451266999105186 12.756012987669331 -0.3480216956981813 1.3648873395597978 -1.7488605136519237
Ni 0.03601904984086083 5.263195357881306 12.391094041245369 -0.6076195541353149 -0.19577844998832736 0.9207894322616336
Ni 5.185518995392069 5.445953479648032 3.684312568416261 0.015941610930920933 1.0559086166966911 0.3119421763668047
Ni 3.3517798849242166 8.722470230342706 2.802096416226426 0.04367635784202801 -0.7041539363186389 0.7114332435888715
Ni 6.007024426984287 7.685678948946965 10.82511693762278 -1.017184717763932 -3.5302786495248943 -0.5972904042951648
Ni 3.7522648230100177 4.458647246703951 13.398391235186708 -1.025456470854421 -0.23779567496037754 -0.7352416588623789
Ni 7.443653420495796 2.8367544423131608 6.572801631731211 0.03242238219476351 0.03974642666000252 -0.822830401816641
Ni 1.339637558859432 8.701685030619362 4.809871816210546 0.6915197924943961 -0.4896051477013439 0.10040055000694967
Ni 1.8969453494842106 4.4266557916137526 8.61328413380668 -0.1947528369372904 -1.443401116795985 -0.7387738403853534
Ni 5.078190437390038 3.4024854166336533 5.139254358445587 0.826427632249596 -0.5669629569562171 -0.11457632728669945
Ni 1.8060933154621603 6.027550736319617 3.6130234016427205 -0.8123091905703429 0.605494280262196 -1.5412174510155263
Ni 7.405393119581564 2.0306529888077263 0.9533287187344094 -0.2087434947894276 1.1495551358092588 -0.8798196747174912
Ni -0.025667132754448523 3.0339641953821928 11.198088299722482 0.6019898666533632 -0.25750138091942104 0.5158136877759116
Ni 8.673040658402764 5.16159937275671 3.327661471455204 -0.48035071898261134 -1.639466759007428 -0.35055860318742205
Ni 4.888876841155407 0.29073945338996116 11.213894482519214 -1.3816316488976723 1.7574485124312507 0.6069657226013998
Ni 3.3807663622964057 6.906871939206348 10.896623387400547 0.33857186313919113 0.48615626992079497 0.2619352483210586
Ni 5.230991242829526 7.961674594739576 6.649449829536624 0.638833517844274 0.16533633144838622 0.16007713993197592
Ni 2.5886357436583967 2.450656412932663 10.33277491604432 -0.20848458470108608 -1.6038392396118055 -0.6856921300690255
Ni 7.2127139483027625 9.103371959792367 1.8172357728405413 -0.04383396646581483 -0.6689231381408027 -0.8136333086984052
Ni 0.3219773525293359 7.8637862898147395 11.531909887503419 0.5651053349221881 -0.6609946273223455 -0.021099243872460437
Ni 5.265645570482145 1.22925779271296 0.13611162149792388 1.7286138475877453 0.2298075145485784 0.2893789463543081
Ni 2.094349270344252 6.838413923747436 8.699730408189863 1.3143381658573363 1.0434043135820934 0.26990618234167707
Ni 3.3462692180936506 4.06346956157242 2.4697902618238934 -0.6962807042181492 -0.6605613964396687 -0.03815877045790848
P 7.057610867627015 6.097081297671725 7.499891809640485 0.808952101172652 0.2108813670680368 -0.14613944680496124
Ni 0.6917356999920881 5.55478914955171 10.144983225447795 -0.266730869937489 0.6937489389352309 0.6189995138374823
P 0.30961071345906394 8.16755717580705 9.510223752206235 -0.03746945770036773 -0.3194590535691402 -2.307682072447929
Ni 5.5873353697590815 5.626224404472773 5.931465418025587 0.2835875364835116 -0.042625033759378206 0.9091479913679633
P 7.613346823753142 6.732389063770757 12.381350516570787 -0.6640336712589855 -0.2742060952686116 -0.29394908222349375
P 6.906520587965472 2.2468819393104402 11.96148855755073 0.5210955050001413 -0.20704271004823696 0.5980663632292409
P 3.0724279101727205 7.598266458651375 6.727681881751561 -0.8831132578670985 1.4632418056709962 1.7182152779622408
Ni 2.7338362669926397 4.582008516592226 10.923715341897596 0.5966831097284692 1.6790524917198502 0.1329679424200097
Ni 7.208802854226707 3.821129666221521 10.331894688725077 0.4099577710813455 2.0563546815497036 1.8780882723032106
Ni 0.5670661090358177 4.019430457354322 6.154874878361551 1.5119438988623897 -1.065049916876327 1.729786270629292
Ni 3.752542205568603 9.397073858908021 5.325178339814302 -1.0262529986137876 -1.395283692463468 1.570204839386812
Ni 8.946669306362109 8.095225050613227 0.16985151131574022 0.35857324596178247 -0.6387029058036806 1.378943817652864
Ni 7.709986907164343 6.15901157691859 9.938124257774101 -0.36191825117461535 0.6236472970221388 0.5789643522924675
Ni 4.650947328486018 8.324296813578451 0.7080531913051467 -0.25894608378574757 -0.09390542920090925 0.9127169396661443
Ni 8.665699266685532 0.9518474958715626 7.426382657789731 -1.7113432334327559 0.5170174782760256 1.24791474412678
Ni 1.4504981214407857 6.289871421973961 5.861027815706903 0.019770754869024014 0.7023004280496679 0.1363671979095458
Ni 5.154350441892341 2.9267558364888817 10.541041137898572 -1.3974115374397484 -2.025229163789493 -0.0061115122143765716
Ni 0.9125793716611365 3.2837841737296154 1.2682143238492416 1.1746611868482673 0.31906927432988924 -0.6169017507681892
Ni 8.174611938880409 4.5525782271263004 1.1635606583205038 -0.4141021322670223 -1.5761160626649242 -0.6755241883970882
Ni 3.3765593934911915 5.378383088376594 7.014490824286365 0.6180122102235485 2.8027212466806506 0.6062630401074205
Ni 5.30806660977516 1.3840834908301214 6.562556969234118 0.32317661163004346 0.42689517026663254 0.895599049038935
Ni 8.62826186736177 0.6993184145352881 12.416047376215722 -2.2247511399806523 1.8857241915819138 0.7909093847383282
Ni 6.840808659836558 7.1576535104235335 4.686264600453658 -1.1038370649468539 1.0144488068900077 -0.8334421158942162
Ni 2.109762494516322 6.417689304970177 12.831200303999527 0.5877235865423363 0.27118299217157166 0.04517891052948348
Ni 4.1357739485103835 8.146050781431384 9.026095952796021 1.5080059972605642 0.6456011755854107 -1.3860704013953162
Ni 3.7032790631638113 6.946130817331487 4.881283031309864 0.25441194336081996 0.15836967032256596 -1.5106295509263403
Ni 0.02175234024427795 1.8296246025155 5.4385954449772855 0.24782220595844415 -0.22999623352061682 -1.2805199317563107
Ni 3.655523032660668 3.26302671226213 6.985233436615291 -0.5737514406329602 -2.24831581467447 0.9649684407716929
Ni 2.149779551634929 8.753527830819 0.5343164749521516 -0.9093819617556402 -1.614293345065594 0.11936706380712345
Ni 8.554801719763034 8.199474662214957 6.01661261742606 -0.2584768574588129 -0.09941298928269976 0.31707332694578294
Ni 5.815214387722387 0.5268428642153287 3.5892868514960274 0.33793294400361157 -0.3459540145358752 0.7703480156472087
Ni 3.07800329960029 4.613796557806129 4.798815347425327 0.8342111328497569 -0.6742766891432324 0.8469910582232445
P 4.157095421180325 4.419887657184265 8.963277124753155 -1.0864312107655805 -0.2711251423504427 1.0573893150072757
Ni 2.4268015128943063 9.098369827652542 10.070621584533656 -1.6482753584379937 0.37107652063511576 0.9235870496114288
P 1.2235344659208116 2.447170638779771 7.778080626862979 0.12215953895059609 -0.8898750020709643 -0.4772877637865715
Ni 2.3219693979195455 2.3226166238895782 5.419081581980793 0.2300939354407457 -1.0356745490380033 0.7582941698064682
P 3.031634181890074 8.640540668621824 12.256715136130076 0.9496521221295967 -0.1596883891339895 -1.9800965331169125
P 7.304629282132724 3.8951353328521425 4.659835590271628 0.3739186180696012 0.304962659725178 0.10395792834090485
P 4.982271548631158 3.0952380025737383 1.2171352502942434 -1.297235701849095 -1.7614031262036247 -1.3435327851434216
Ni 0.23278406620762726 0.8569974545717662 1.3595776663876178 0.2339613888159519 -0.03284070067910474 -0.3865126526845279
