# total energy = -340888.739699327 ev
CRYSTAL
PRIMVEC
9.11251363775656 0.00000000000000 0.00000000000000
0.00000000000000 9.11251363775656 0.00000000000000
0.00000000000000 0.00000000000000 13.33708481585329
PRIMCOORD
 96 1
Ni 6.785706115350673 2.2182044984719456 11.391871215972031 -0.4921911632609653 -0.5366144265713468 0.4605588810676649
Ni 4.939538207597449 0.33099929719623195 5.7973638069348326 -0.5468638722134969 -0.011050087166574516 0.7863649599007554
Ni 3.1057268682184525 1.5070274909511403 4.614310776483987 -0.30609625910898897 0.10130120744434812 -0.26475549137867305
Ni 3.4193340220525523 4.217389733762063 4.744654347804986 -0.05821620332941587 0.2122095989611571 -0.9219957938649088
Ni 3.706013698345471 2.4473113141539726 2.346833094742776 0.8833821952577691 0.3679040364444051 0.38661061171497285
Ni 5.120640301896414 4.378070685194773 2.381376811109311 1.0642716439494058 0.5317054193055035 0.5160890529244855
Ni 5.0658467579183695 5.095425976902693 11.57448234251493 0.6120763043550878 -0.1145688710875317 -0.27284109660028494
Ni 5.838587906985104 8.191921868894674 12.248405572139337 -0.9825486157473013 -0.04889158349438032 1.1673348283901832
Ni 1.7276232189771725 6.61218563232557 0.39871074038320464 1.0510597732448221 -0.010130146455466425 -0.6044946353530879
Ni 2.9461849809795324 2.017419374904299 0.08355810425097095 0.6524773338799537 -0.7457592705642511 0.6151382311098631
Ni 8.395914597232032 8.84935327149572 6.5590979508841425 0.10422763706252372 -0.048434955572935944 1.184184295847354
Ni 8.84094242148878 2.4301980137064803 1.3541404723580157 0.3421330981278882 -0.5914033493867686 0.3484359004174644
Ni 7.098839418480156 0.7224993056070721 4.785479319761754 -0.08303969013099893 0.70646767205348 -1.756747372599168
Ni 0.8961719676084658 7.553253131693728 2.4080509607737937 0.26781741813344845 0.11376077336393955 0.0048984657428818865
Ni 7.599672275719034 3.68719635786407 3.7733415047119756 0.24406119625411515 -0.35367632288079737 -0.5295117540882945
Ni 7.722773221270243 4.101715486754362 12.699758392051358 0.6845065944013566 0.06386465986444485 -1.444944292913389
Ni 8.178380673758907 7.4287124090015695 9.083581319793025 -0.4137403780522294 -1.1815355453705976 -0.5730528719040389
Ni 7.233458581158964 0.6351221469271641 0.2772855860738986 -0.8020517745083929 0.3529052490427277 -0.5521688293661781
Ni 1.675955267146885 6.786061503379136 9.340574249441726 0.5656532370058581 0.5206406768509098 -1.4326914436879647
Ni 0.11231628576441093 4.773626673386859 1.0489587485525371 0.7394929779395651 2.187052596988614 1.453864221110838
Ni 6.690270760938221 1.9438540530126038 7.0226815864833965 -0.7566054692501356 -0.6766277058739122 0.017854254572601508
Ni 3.503287609391607 4.6198894572794895 0.332128337625116 1.6007235768009593 0.7626038529254157 -0.5529954390325315
Ni 6.3966017867522105 5.769259903894305 4.754003786707609 -0.23648595501001854 -0.34718505872949884 0.07616070362297851
Ni 6.024674546196093 2.9991286847068643 9.143758536776597 -1.382680916097793 0.8174855925649598 0.1408756273028606
P 0.29811223579314416 5.9490589087555765 12.226225714157868 -0.09068075161602447 -0.47827172496639564 0.8449403463418029
P 3.871660969663102 6.674387649820021 12.675191966771063 0.640267164967007 -0.5111471355381778 -0.039672635999273606
P 2.4368319235711096 8.61838750304943 1.1876193109909094 0.8552826088080755 0.4069315826605121 0.588871069883218
P 6.589294998287177 7.933108259038621 5.8373622739125866 -0.03835880228385652 -1.174678413239448 -0.47844758842262763
P 4.835127027337936 1.4747145179017225 12.37137347499271 0.4036845364781241 -0.7995848010251391 0.2576376493869692
P 4.041281296888671 6.555988761260775 7.928377042003297 -0.28550969320688896 -1.483921959728167 0.8082229363161112
P 5.104265115046498 1.0324477852507208 3.6019998236767523 -0.664596742851307 -0.045357602199192854 0.07322244693026099
P 9.34187551637671 5.798994035608984 3.495102749720714 0.039048629262029524 -1.7105449059011766 -1.350127407641804
Ni 0.8707289185246306 9.078186711771238 4.470964559578042 0.2141844632993408 0.1918832286989792 -0.08963688373254239
Ni 1.4174879328057424 6.813535731733336 4.912048487970213 2.4101839850685978 -0.710858344922008 -0.8510446594673278
Ni 5.786509892045053 5.672494122503508 9.137890078050193 0.7404555989631506 0.07171115249205715 -0.3207852285797314
Ni 8.823501070553476 2.3612527361847953 10.036596235677003 0.9011942837385254 0.7928199714974796 -0.015425076305818597
Ni 2.4593671695810393 5.085948962810364 6.867904632579936 0.27572047503060904 0.8088014345274006 -0.42962465338265365
Ni 0.5440425739917628 9.124724318472698 9.085995224632503 1.0514485240428086 0.9494299788164616 -0.22938328252696624
Ni 1.763535634878965 1.460453434195479 11.43113521435763 -1.7141755606752287 1.8277208755942522 -0.2347129222699958
Ni 4.262879401405238 6.669202629609892 1.6148412837703403 0.3137689451628983 1.0052314020567978 -0.18299543929104614
Ni 5.893636601342559 8.13512357193556 7.94264723822309 -1.1164326422236772 0.240701792863579 -0.14337011158994017
Ni 5.276272920822249 2.8312944101371573 5.023012476723757 0.8957363459477476 -1.107728943802092 -1.3867725696686632
Ni 1.2987792187857852 7.635247528619465 6.940658940765654 -1.2658337904990458 -0.6792628295039141 2.02865952962728
Ni 5.04564431537732 4.518485406491581 6.610979135531507 0.5451080658646548 2.0457241984190513 1.2529150255548487
Ni 1.233734097063635 7.877166538353236 11.53861913418631 -1.347221032628286 -0.6134281903972919 0.33639876674727226
Ni 4.783541088129602 0.359586163454926 10.454740322457608 -0.9146936037765407 1.6614597183387514 -1.311756006952457
Ni 8.307459428199122 7.48073574886032 4.364160433260217 -1.2387508182393245 0.14298727432922473 2.0289153543918284
Ni 7.144192398420075 6.070920552463942 7.11180014650277 0.5840127133496522 0.8810466051460568 -0.7882261814792102
Ni 2.34695520242435 5.498745826639646 2.7781411185981684 0.07375337973306653 -0.4225428068352078 -0.5076098118088807
Ni 2.45822810538725 5.675346339244757 11.324305573001865 -0.6148353551574637 -1.3829290275528572 0.3765704538701515
Ni 1.0470915945260773 3.4543807491670653 3.809765132623941 0.3760981422194232 0.10183034047494076 -1.273016424290414
Ni 1.7001307655958713 1.2431837736153117 2.4612926436942213 -0.18259074765345973 -0.24665981021922678 -0.44678033922633376
Ni 1.1070428211736016 3.692600078399407 8.216551170518468 0.4828390326221039 -1.261083163187938 -0.09961276399833167
Ni 3.7456713573164433 2.7066443372823947 6.954076205717138 -0.8625696293877919 -0.3406925090266197 -0.4090419441352955
Ni 4.174888970563393 7.070636189041931 5.74871027458699 0.19340043667445403 -0.4929972041020284 0.12919124898639686
Ni 0.6146727552689015 0.2456815665786951 0.2824860975570635 0.41965828619856116 -0.605290648891822 0.15673419160167198
P 0.3444484559451423 5.648920049948842 7.528197364435782 -0.1913576952128124 1.4528496638033945 1.2388539194760921
P 8.769372740064604 1.6650840384813588 7.842979121266517 -0.1727323668021412 -0.22565235472962428 1.5689923071359495
P 1.8547063329498692 3.576005467523123 10.260192714415153 0.5710810928896487 -0.395400442092461 0.5879578140403293
P 4.350760482084478 5.963146854704363 3.8533375274161283 -0.05667071321916691 0.311090884110103 -1.2041139448917457
P 7.0372114893393745 4.357531079652363 10.533202709131244 0.126078414389028 0.11654579230824445 -0.10904408461456058
P 6.280900202203857 7.98220648204772 10.116685206019369 1.465723177331953 -0.4706705155803701 -0.0995258607114802
P 2.724823801815274 8.712446867915784 5.6695544256321755 0.789043278063867 -0.7556482475431889 -1.277227634158284
P 7.290685166254944 3.9992270468539655 1.5390597985832086 -2.3193021731853602 0.3889904248010591 0.2842215705230847
Ni 5.6230405114659465 3.110018862100651 13.526738133020926 -0.5450990670035902 0.2661598279253674 0.38714797227568165
Ni 1.4615104857673156 0.9713848319500581 6.576530189305895 0.02240870671250334 2.009436676841927 1.7406419823968733
Ni 7.128792250520043 0.8559912503597057 9.212978100956146 -0.4278140825364761 -0.9373380806489341 -0.08375394258920414
Ni 2.8272302290937166 1.7557079857392444 8.953132043314842 -0.5607776540811116 0.10967143378591435 1.23394285532772
Ni 6.5378366342685466 1.8351326538437922 2.2237057229022708 0.17538651659553664 0.6262875628584633 0.7167919367976237
Ni 4.197843392196638 7.025738834779527 10.291321060703032 -0.4802095654190569 1.0524887923818647 -0.22278737447700342
Ni 8.139242428060303 7.4256688294757645 0.19955037798157907 0.9000925660339144 -0.4031209506651703 0.0614125987795265
Ni 7.882305995995614 4.080428655100825 8.050984089320078 -0.1372403445431185 -0.6663494638763557 0.21315782180703932
Ni 3.149157107799255 8.890888108258057 12.370732865290124 1.6988646413497712 -0.9143318495617478 0.9456021204299393
Ni 0.14101067968299869 5.128313038305779 10.220781093310041 -0.7035556406130076 -0.8067815758838944 -0.11764468179937802
Ni 8.69617191871492 2.2935467605059525 5.802858652605673 1.1728683566139027 1.2802029147365241 -1.3433666918792027
Ni 3.9348835886751896 3.058961448678234 11.076635655966491 -0.2682251950948284 -0.5210283992076318 0.3100421311306144
Ni 1.458257318429853 3.665581475722722 12.766071064408358 -1.7477827072067127 0.3110803425871416 -2.86737060722992
Ni 3.155444742148972 8.662355380929702 7.895327777859013 1.5828541527197062 -0.18798852163026333 0.9702710839315289
Ni 5.776340326922901 7.865302045710725 3.6196316261452575 -0.7542801635510686 0.6480882036733225 -0.13195287089193403
Ni 3.1394340558410687 8.223888566429181 3.3075435283199948 0.4107949222706603 0.12705054849431022 0.6159900375871972
Ni 3.5890090243594233 4.430130475107724 9.067163304129423 -0.16572122559163072 0.33085958209659794 -0.2264671373214358
Ni 7.455202485892336 6.613980797494982 11.36010225998157 -0.11297761534101189 -1.6951236862501 -0.2564785960818615
Ni 8.063253177564222 8.727272927462147 2.4312441302620567 -0.7244522815563588 2.284621848194355 -0.30419312854900515
Ni 4.674600988635582 0.38986613473126863 1.0571281169503945 -0.110900421097009 -0.2356863419268586 0.3887852507687885
Ni 6.212419662873238 5.789535246543757 0.29538212673346964 -0.36975085984515677 0.3831385940059724 0.49878527153871516
Ni 8.230923426890024 8.98402710925583 11.258673605407074 -0.29940007803573604 0.6789362994024307 0.08674799222052158
Ni 9.08774573848552 4.956961333505652 5.430194209703335 -0.9309409188733386 -0.6225669194737665 1.4891394993733644
Ni 7.47237957393468 6.354793574583364 2.487245993536874 -0.3218128985132974 -1.965775231398234 -0.8416259372565893
P 8.957063181660446 1.585376882456751 3.5831141393437242 -1.5244101496502005 0.3609229771408817 -0.6828014387847918
P 2.0502335361989843 3.622242361277423 1.4012211848670746 -0.7284526609650035 -0.8468897567586899 2.7830003712129554
P 4.866783899411732 1.347558503820623 8.212937147644412 0.49042070162410384 -1.0432906708223644 0.07613165015725597
P 8.759868388431626 1.7632804844995562 12.481537385056539 -0.04182259246274088 1.0467999695272037 -1.137166275226603
P 6.272653377440822 7.934010397880102 1.3522204657529644 0.1137142363967203 -0.5290844367428889 -0.5731572586923871
P 1.8961500445767032 3.0551250804735512 5.76966267699323 -0.6345981396066877 0.16484473652394838 1.0231720456956186
P 7.015541932116725 3.7985603859624733 5.942485141480379 -0.06851244304910137 1.4051546717202767 -0.11671754199941833
P 2.444021696762309 9.016002919303887 10.22886389282917 1.048510267350091 -1.2658181067697618 -2.1718018414771305
