# total energy = -340861.47764215025 ev
CRYSTAL
PRIMVEC
9.41059440368885 0.00000000000000 0.00000000000000

0.00000000000000 9.41059440368885 0.00000000000000

0.00000000000000 0.00000000000000 13.77335614726066

PRIMCOORD
 96 1
Ni 2.186918600917414 8.334756346571195 1.0616599612285367 0.222576544017778 0.9379924264034813 -0.13287281160304212
Ni 3.1069829959322153 6.035955189911869 3.9492481256741145 -0.48028669851389544 0.06916704591396475 1.2426779212078727
Ni 1.8685017318717982 3.0278304871976522 10.515130820206002 -0.4905091475728521 0.034206984899012055 -0.47483647403260165
Ni 1.4047100019378778 2.026994961227108 5.376774113514613 2.288327836291033 -0.8561138464601191 -2.099247624258488
Ni 0.18266998719503943 7.971403889699216 11.077648153978162 0.15354910900547103 -1.2053722427788789 -0.9430544143074211
Ni 2.403268164085599 2.3989487012976825 1.495097819218178 -0.845394403160086 -0.4957194881291979 -0.6331282399293806
Ni 6.364243772387821 1.368074558292217 6.187225788134878 0.706417535541835 -1.9040152765816178 0.5155180109123637
Ni 8.743759596437034 6.466104045190449 8.339519048351073 -0.9651767001277572 1.2973429168509207 -1.6280739437894542
Ni 5.168110182718741 6.877412890662041 3.2409672734686814 1.0368639413604144 0.3816147011622783 0.011068599109335777
Ni 8.989865458810867 2.7256751251183093 6.231437701258865 -2.2615438833289696 0.8725802195462584 3.2384502131888286
Ni 8.637306953611523 3.2319839201411322 11.862771214015252 0.6817128337063033 0.24909104536853874 1.653976522587829
Ni 7.732459489594675 4.76085730339441 2.472992198381789 0.7807908082470876 1.5818647922232434 1.9108646954032833
Ni 7.932651062333988 2.7331094946225667 1.5398884838921791 0.4007619635146904 -1.872402791882659 -0.8506721066192575
Ni 5.251535101269674 4.344890213739772 7.379405987134669 -1.8019483946158386 -1.1794904899161105 -1.235564192981227
Ni 3.135233600048392 1.3051835565239271 13.318022694809473 -0.07127612183716757 -0.6666816504047939 0.2322721740389871
Ni 5.191269655313648 0.7104537584314242 3.578166747696001 2.439280902434554 -0.6976613866157598 -0.6613345271602674
Ni 6.819001331784922 5.890975573984551 6.3293803436505796 -0.31135853594919277 0.3529654128567018 2.732636574048423
Ni 7.67610885087127 1.6984617032991172 10.408553016476178 0.7888311620530608 -0.599372226524858 -0.5799388003905948
Ni 0.044873477903922286 0.9211607292518215 11.669544422124167 0.6329582900104196 -0.03411776761931543 0.1133943911634563
Ni 0.4093561471524343 9.144462702122173 3.038966984503143 -0.4301126487626657 -1.6255866585912264 -0.4521236058161181
Ni 0.9657998833574449 6.589316956480621 5.582052112478041 0.7907245224210318 -0.0433354295628415 2.202349889467317
Ni 6.856417854758247 3.4816093447865986 5.45473147677191 0.9457882682988163 0.4791448715999683 -1.0921961382738157
Ni 4.611548814084865 8.540547222924474 12.5149668062568 -0.32791515475629335 1.247025142432975 1.0574931875749916
Ni 6.558393743580636 7.80281309265015 7.684306419574002 -0.06226646213938954 -0.4097649383442492 0.7893849776740018
P 0.6381813351963072 1.7390213647717088 2.8641143780007443 0.1921616791713465 2.5670760424043726 -0.009998763083924715
P 7.625385747544757 8.897989826570283 11.059274909648904 1.3792248392283923 -0.136283637056804 2.2293806683328636
P 6.420180344961622 2.4869095263056433 3.057464448677279 -0.2153021218435518 0.5761171126516593 0.5806972758231741
P 4.770540804938562 2.7279524889411326 5.985005291262506 -0.5081908811233312 0.07862407756180653 -1.0614418878100944
P 6.489395266105685 5.233636150893603 8.631445094416332 2.6654073685871196 1.390315035604283 1.947932803900174
P 2.2316001026974286 8.044928863036885 3.639967061583856 0.2667709791468051 -0.5861199895006421 -1.061321045961514
P 2.925734949537294 1.0701351424633896 6.611349039877288 -0.4191049847982524 -0.26868645100196303 0.5012607296624012
P 6.707777517644654 0.678284582844903 8.405548483321477 -0.8699211846568565 0.6254979770776323 -1.3076993203845801
Ni 1.894211475524494 2.7253363437231792 7.747402572298232 0.13556115706848265 0.5984959945674918 0.5857908882959976
Ni 2.2431751336977275 6.140346912583669 1.8617580999898355 -1.4451726068741109 -0.5227932044175384 -0.2808968770252259
Ni 3.933938970851931 2.558354758300984 3.7478407041500548 0.22318203881226079 1.170013917884243 0.627052723159262
Ni 7.172623234141204 0.7635558599992988 12.99671771437037 0.7581393893961589 -2.2389469718650603 -0.08148674382158225
Ni 3.6196439421137385 9.185107058943547 5.033389996707297 -0.3587912755098595 -0.9806426569738403 -0.21881476298250058
Ni 7.46802178950655 0.45631501275527214 2.5584836834430194 -0.226393603771023 -0.1120054812357297 0.3833450535898236
Ni 0.36370158992084956 0.818048847406071 7.4351882259618005 -0.3987361913339133 -0.2082454721070865 -1.037887497528922
Ni 3.010072695736218 7.451976726209388 7.34141918214621 -0.545240477677461 -0.6598867389701474 -0.38861092997445335
Ni 5.345339905343639 4.630002989525179 2.429385386471883 -0.6029095502541552 -1.0278008027168815 -0.30231828012379547
Ni 5.6823709299328256 2.27517115434896 9.665810567910507 -0.9561158754770696 -0.8879639010911804 -0.7177363029887639
Ni 8.473129725293465 1.0196190722116794 4.76474105566581 0.03851204003226916 -0.8780769809947717 -0.32095517849869243
Ni 6.153286479758799 8.29458251946528 5.051116733207509 -0.10052884805469782 0.08672073852701193 0.536348831614786
Ni 7.432986146893452 6.797912189938037 10.135689070243606 -2.0903454366728518 -0.054732872766505736 1.466546958784829
Ni 6.113291453944759 8.298817286904413 0.803297740826422 0.2028440985858571 0.03901880446535861 0.24282012475816245
Ni 8.095341416751195 4.556713281045239 10.084988552343436 0.2430723499782846 -0.17028879035765512 -0.47490229427353053
Ni 7.702514978502847 7.304955011316976 2.504836708464643 -1.0886212764383638 -0.4428637777807469 -0.5994992390210256
Ni 1.142417917352247 8.854682271559408 5.337010588320579 0.14340944946830786 1.3171087866239382 0.5725155113433301
Ni 4.286779793880549 6.259842639121712 0.8083474657327312 1.2406547201302567 0.8413089202368027 -0.28721870547819567
Ni 1.2374837410636434 5.934612499796246 9.469677784496744 0.4728047883145535 -0.5647296967503241 1.7073395115900014
Ni 3.7903521228823713 1.2495387123737107 8.659323038997863 -0.7861821544659879 0.17259609833459305 -0.1535434525785162
Ni 1.2425748725849128 0.4519899036107703 9.45746095096456 1.080907452733874 0.13067426128982657 1.7689194891853277
Ni 8.633006312012226 8.74542527162976 0.8670902775295316 0.44261463788441835 -0.9383390111096227 -0.7182314974576276
Ni 6.841031533062727 4.6156706543922885 0.337963614485226 0.045495413328637775 0.8876165450540906 -1.1947019075492264
Ni 2.112923097864285 3.8931346339273003 3.1759842965854594 -0.46161046226063085 0.8936151858396868 0.44671683297825004
P 4.705419492318995 7.432609723121083 8.785651798063807 -0.36701263497838726 -0.6996287947547758 0.39908071915752563
P 3.3957753140925138 4.3001522483939025 1.1576988403915032 -0.9915919568964923 -0.07937252569205686 0.9259005282359537
P 3.8592376732256124 3.3620571546827005 9.614036301199656 -0.518867387000571 -0.0017984866613194833 0.2854847535062245
P 6.161614855722429 5.712757738957187 12.207394706093087 0.7486170517280204 1.033396037416472 1.2322109602382778
P 6.697839930054154 2.7190782985075703 13.024540136445477 0.35854676359922116 2.3667835065957754 0.13848990067950342
P 3.5736543677247465 0.4514167984173409 10.620331853988391 -0.130543135028601 -0.37305318474551236 1.557694622734943
P 0.7860688247651644 4.496683099946941 6.151580339010544 1.0277573510734557 -0.0979240634419991 -1.0347206697651663
P 3.0489572714217745 7.062811009147312 12.969721542475607 0.34827854890399373 0.5663777738767084 0.09646341973607257
Ni 8.254785116131732 8.716967634438783 8.976288794401004 1.459520905175983 1.4953821378489665 0.8048049117734978
Ni 4.94973734177408 2.6343453073476604 0.865502710269572 0.8591390064396881 -0.9990517556086471 0.9052856801990796
Ni 0.9270235295064443 7.064702538603459 13.247640859971073 -1.0354850587350166 -0.8718209727827307 0.5568428378030797
Ni 8.444342717301666 7.70732379219484 4.531696157133698 0.5142918518147466 0.12879607043050723 0.5387337869071946
Ni 4.968219748997322 4.671880134201056 4.7936372265515965 0.8752575092681055 1.6385627591359198 -0.129085576646468
Ni 2.902970721903373 7.51276916544673 10.055459048460643 -1.6595720143977355 1.9742467592043549 -1.3297624708322064
Ni 3.0075412458670474 4.02504293435916 5.688216791117692 -1.8443669687913655 0.04369564111573765 0.7955168016033526
Ni 0.5239658931251482 5.706631442061907 3.6926231009814754 -0.9010402746591645 -0.39015899118786357 -1.7309108711520385
Ni 4.984020136842445 1.9701455610053158 11.996331073748374 -0.3798501530626877 -0.5200318396223174 -0.5348123403656014
Ni 3.0646070897579505 0.5513271960791063 2.7565992790777254 -1.0004864311726447 -0.7890083110608734 -0.21950767528446713
Ni 5.672922693246402 4.295079938061251 10.788600808712083 -0.4199675899088638 -0.01205230317884376 -0.943830373241497
Ni 9.206120916035959 3.403689623906539 4.130188445635126 0.05193011321038798 0.3904289570197986 -1.7362369113506422
Ni 2.8991123782366066 5.359192300166762 11.573971367379505 -1.0521825739953556 -1.0121769801366955 -0.5014324793535752
Ni 4.534626616201579 4.2581904083692415 13.128722002864182 -0.012953217726558336 0.8463701368097939 -1.894684228988679
Ni 3.1638418067483167 4.903070204594828 8.431758870591421 -0.48843992374864914 0.8056418058524963 -0.4055825248317854
Ni 7.901520816359201 6.98874022133971 12.678856070388996 -0.44263494959939254 -0.0828424865185283 0.550402995715007
Ni 0.048326224955962616 4.451361677753902 8.126032187971743 0.39241744820473706 -1.9444024221494125 -0.7584525497612034
Ni 1.9762248049290496 3.632734078797816 12.931817550717067 -0.09852261625794645 -0.24265917370026596 0.46169453733400484
Ni 8.606327277145683 8.284927249704056 6.684388426548603 0.48595495254326637 0.027225411374856335 -0.3718023430575467
Ni 7.317800472549015 2.85190883718173 8.059093689591073 0.5470034831151547 0.2599002201689008 -0.31071473171760683
Ni 4.593009943295769 6.680816164948837 11.092826501539445 3.067818951890091 -0.7261006157930592 -0.06398190216859947
Ni 5.6911133720460585 8.770005743965354 10.336173312465935 -1.1744902084880418 0.9171387228829238 -1.3713788608214124
Ni 2.0924456446474964 8.967167105337108 11.97744777520756 0.5065302055914567 0.2632701650823982 0.5191160126762673
Ni 4.758476423034185 9.003501409964876 7.074450032188914 0.03281756075065315 1.233186950998302 0.2566117792256161
P 7.180810451190195 5.8913331765683 4.428285018388916 0.42012468431201844 -0.28551714940605666 -4.251383868985892
P 1.1534847762598497 7.892721910680112 8.45258451579765 -1.182272937757254 0.3935775299511093 -0.1901968421354918
P 4.3946816682296745 6.9806188784508825 5.562204228020537 0.5063440577225796 -0.33812346274786287 -0.22669519417184184
P 0.2922365956774605 0.9230089699741455 -0.007670575421417469 1.0292514191204791 0.5601137952448676 0.0035452941490971197
P 0.7141220080931451 5.443577099337231 11.640262416871703 -0.7355381070568752 -0.7173352108956033 -0.24000142436244476
P 4.710952921772796 0.49311514180134386 1.056928314409878 -1.1221119519966418 -0.9111259410299406 -0.04454101983516845
P 8.67120391431321 6.127397934814229 0.9553437720205085 -0.06649129885401453 0.5557179801700172 -0.49281157045378354
P 9.395546768885563 2.526405790621297 9.084175611799235 0.11442771752397712 -1.0153821173375546 0.45820092235844956
