# total energy = -340885.37013080606 ev
CRYSTAL
PRIMVEC
9.14809326017981 0.00000000000000 0.00000000000000
0.00000000000000 9.14809326017981 0.00000000000000
0.00000000000000 0.00000000000000 13.38915918971122
PRIMCOORD
 96 1
Ni 5.202813403868863 2.9815740155805397 9.864463114754166 -0.15672904939534943 1.193989454863234 1.0067969467717048
Ni 5.078408482958465 0.43514826924310673 6.734626865722436 -1.007396785139233 0.0836086752605915 -0.28627691039021663
Ni 3.8527743856856915 3.0120920548596843 3.013578620022412 -0.12111515684648175 -0.47418058561615756 0.17845512821853138
Ni 5.0876114648274156 5.119959122768379 3.3361102013932222 0.1569697046512458 -0.5629756901736949 -1.3070650292346908
Ni 4.860052643763648 4.722474468488152 12.081172367235824 -0.09319271940460079 0.9455789805014876 0.2662603580589737
Ni 5.949188040771398 5.749119240101465 5.475456773187847 -0.39866677154855856 -0.08551746224753012 1.0659364332463384
Ni 3.8670179669679543 2.7139831381961685 7.6494673001493005 -0.9693519145513692 0.005740759138519146 -0.42249447009577556
Ni 5.390614611411298 7.999888673591552 13.392506717437541 1.6011120704886295 1.9044814175847589 -0.26668304741868915
Ni 2.467679873942064 5.241409209539939 11.997181892946351 -0.8180774605126879 0.0878337690855326 0.4659150031732556
Ni 7.602513796431034 7.477715507508345 9.684325264976762 1.7897035158102148 -0.202531966662077 -0.09178349776190001
Ni 7.721100529996847 9.17608647462197 7.688818738327709 -0.15368229214922566 -0.22833170133400033 -0.7162018686221086
Ni 8.830553842244099 2.6220813928129885 2.19145685571123 -0.5904173313244154 0.135567841936702 -1.021549679600847
Ni 1.6235853043117638 1.5804428962660664 3.247848482337732 0.6227013881691018 -2.3783827813976006 -0.4296524212967956
Ni 1.8109656995619798 6.249931608307934 0.9124134452719611 -0.3188751560412121 0.7820426783763176 -0.5462074695764206
Ni 7.860471731560926 4.206860485307566 4.028195478552926 -0.1290585800632745 -2.5520561719567723 1.0351618710676431
Ni 7.326104157096695 4.169362450833582 -0.22848826734397054 1.3655807660823966 -2.043452628776055 1.3613477018376556
Ni 4.5521735634460185 0.5741361656975352 11.037219403081702 0.008374082996308159 -1.6877968135713837 -0.29984693576516747
Ni 0.43732734506933346 0.21699460291042214 0.9113184185028623 0.5510699398750445 0.9249204237108717 -0.166869480263461
Ni 3.1003162667326074 4.480818435635069 9.613938920247245 0.3505974268451575 0.36235739559456304 0.4035955763087436
Ni 8.441842209447294 5.214312557158396 1.9400352332506865 1.4305072915524526 -0.16180055038098587 -1.8063763484802053
Ni 6.336628088598237 2.319197171442125 7.900755360447532 1.154497824526515 -0.8103170998409787 -1.375451488228889
Ni 3.2963141658799917 4.398577076786294 1.1204118132222183 0.862595854640037 0.9244095455127241 -1.2716082310889776
Ni 0.7756503651103048 0.4229465423874343 5.193387208523171 0.9720544010841967 0.8941011243371698 0.78130734287219
Ni 7.0585498720855595 0.9273147744631479 0.8885744289177876 0.028297304282796427 -0.6263443842383278 -0.04264097459897818
P 9.041874797684219 5.705711537349805 13.203813570797468 0.3470107379351637 0.3860244001941997 -0.2981407517073381
P 3.8888453176034576 6.608170942292138 13.281697692803123 -1.8197432567054144 -2.994847444628371 -0.5279999454294584
P 2.0537286517054643 8.640547944214171 2.294487256604925 -0.1560541348155119 0.3478666581775557 -0.9781155196766124
P 6.523194303543944 8.03340728747608 6.159723174996268 -0.5957341155516386 -0.5174162563763411 -0.09049383241619899
P 4.567697877791555 1.0296087538454608 13.110463682243461 0.3531003957726693 0.8621315134091088 1.816211332292756
P 4.055395504388862 6.380804231187863 8.716610680841983 -0.8235513391430654 -0.040241106908233924 -0.5544347425822193
P 4.762369303409121 1.3029812262011806 4.142297816778621 0.34732415541052436 0.0047084612192628585 0.8195861838477304
P 0.42183138981305546 5.864787731901678 3.8879972893537045 -1.7697988064664876 -0.7892525658611955 0.36933074158860263
Ni 3.0138942292415765 1.8065014300271411 5.603644430681557 0.2733758860578324 0.506866505884953 -1.0620936624614805
Ni 1.7523721619172192 6.764246562238627 5.1901469538730876 0.9155986320893135 0.9717270996517652 0.8262713091773899
Ni 6.867190056245887 0.6884708654932806 9.840162119687884 -1.024678712148132 0.820401223549858 -0.4108620280631698
Ni 8.465087514545708 2.633525657542668 10.675404079422972 0.12403593003770251 1.0231463346640055 0.612284563711152
Ni 3.357203874945336 4.380573629153994 5.210418213836714 -0.3162580301333392 1.5426546976826851 1.296122414180258
Ni 1.6132754031524126 6.628552894184804 9.581804412880382 -0.7487126967656202 0.17513634825794355 -0.2123407252223827
Ni 1.6297785634820219 1.3739429859998393 12.120322547361432 -1.010374636820634 1.1625631180331526 0.24244422947598246
Ni 3.971845968196887 7.274499762740083 2.0779710989745688 -0.592301949941638 0.29265684577463147 0.07990268716391401
Ni 5.398710673989847 8.130075189473299 8.797574965864808 -0.5222882397566618 0.43558035674545625 0.33364665792343184
Ni 7.057991838393705 1.0958043570300806 5.4980168860974095 -0.13990812118326873 0.3425961538072358 -0.7742877170212471
Ni 8.394299568519923 8.018816078648072 5.196748218004933 -0.5740759138519146 -1.986003385519651 0.4584438916071911
Ni 5.068208358918822 4.639171930815523 7.7992920279376845 0.17969568549385181 0.43395336266499457 -0.5455258701283637
Ni 0.9090323099849192 8.007170555865592 7.255183563717926 -0.4803787440070695 -0.7997041002118227 -0.13406914590398844
Ni 6.381343968693099 2.020420443967045 12.15923121782368 0.16131409766287058 0.4188229347814594 -0.7451249794143618
Ni 0.13789835854131513 7.381175678817453 2.3903400634883036 0.6304794894526238 0.10713941139268 -0.33553821851918986
Ni 6.6414059652840844 6.469010146874168 7.711366043906637 1.1805425853297087 -0.05126059794718914 -0.7724136399269859
Ni 2.4606541382806784 5.4248010361073895 3.2590951482519346 -0.29991944087431577 -0.1938498655070468 -1.1059623388199726
Ni 1.6443240318434846 1.4952649994650724 7.682659327102694 -0.6175170157546848 0.5878130609323489 -0.3097276852139892
Ni 1.2742470651173097 3.487362946547156 4.480146965586181 -1.4385815839201548 0.9433812015192204 0.4410277530132727
Ni 0.3900582321319028 7.141276079879716 11.594944804192048 1.3569768264634694 2.239588719214117 0.3077561633099151
Ni 2.299547067014186 5.806194194256916 7.451817255350293 -0.5001271302785902 -1.2956454745438395 -0.39402541612180525
Ni 6.504102232807861 1.999462162195906 3.040490480919111 0.7723622178637601 0.846638302869516 0.39316923876909704
Ni 4.094000458153248 7.1736420340072975 6.559482960082467 0.289498759761624 0.7510673130407258 -0.2715149215896937
Ni 8.139744724101012 7.7672618088345455 -0.0446765432936328 -1.5224124024938812 -0.011658410174534761 1.0906766163054957
P 8.95786785682679 6.129917772185902 8.382604646033574 -0.3844182320493444 0.33576833225212493 -0.3056347460915382
P 8.650464477361233 1.9235787281969534 8.656010966334538 -0.33147973217910004 0.07228656537955294 -0.7738629707790028
P 1.634727681962243 3.4456842334309137 11.142498405310771 -0.045189452052444755 -0.02756788231593962 -0.7171848013606681
P 3.9647653439756465 6.6227804473067655 4.333762835691348 0.13393416298802094 0.34346287268290526 0.8277877458219163
P 6.637792468426992 4.12018230120388 11.045895454776048 1.147361727702366 -1.1804621098007606 -1.009465237632487
P 6.415310839149774 8.02317971915651 11.345197282807069 -0.06952957145970605 0.8444214977238554 0.16936679276401798
P 2.6175713828116045 -0.1627418355408275 6.3334207670840685 0.10874866486132884 -0.6053438707272607 1.1729403475024187
P 6.681017209312471 4.092079358558338 2.1492274273777805 -0.9192688818520491 -0.7781587699408792 -0.3467065764311835
Ni 2.4890772641920402 1.8454174189640358 0.9422700774048582 0.9661272369664844 -0.5825960355077837 -0.20000560069579748
Ni 0.6723747953159259 4.179928498605587 8.973106750661081 1.089491080637827 -1.5177309378578119 -1.6070765156021807
Ni 0.3913581761911254 9.172793161030693 9.228612081974806 0.11483986536073124 -0.4884039283043911 1.1163136001473097
Ni 2.871330343112622 2.0413604295515664 9.810357631686847 -0.8702849957541787 -0.5783704274622103 0.4596826491102986
Ni 5.195769372020859 3.0956415910516593 0.7678159380003949 0.7121775779540638 -0.8611938320861878 0.3193461821403597
Ni 3.6125180111088997 6.969913996013727 10.740462574609271 0.47889598881395584 1.2085578395957122 1.4305908524051942
Ni 7.10075002652042 6.00393023113303 11.930892064400648 -0.4310968670528059 2.7483601554312664 0.5037454437574679
Ni 7.366117917230681 4.302540393227403 8.711643266175143 0.6154300513186691 0.06722354903434875 0.372888377032874
Ni 2.9991383547340043 8.60575774535968 13.128178050127193 -0.8842843953570642 0.3079081155067471 -0.047610659899427685
Ni 8.941282363657399 5.224274830772003 10.776264552583749 -0.2289667638148379 -1.9367047963948385 0.034512946175205075
Ni 8.801865421626774 2.8101295988747688 6.5065154998228 0.6781063473019677 -1.3169483497866739 0.5164217536735558
Ni 3.7619429672196762 2.7502095877001893 12.121834727185426 -1.2396165086737294 -0.04045090892619485 -0.2934559446371591
Ni 0.8481984042887608 3.6635003351204927 0.27579488746396846 0.12820728780657276 0.5511822970831927 -1.1178002119951653
Ni 2.97488675937159 8.749227292726234 8.862579487300582 -0.2007386222070801 -0.014183747699549767 -0.05274103914745755
Ni 5.7550380564724515 8.18715929172206 3.6149120671278907 -0.7254465271488281 0.8336465185955384 2.1199334347426135
Ni 3.2903862014156977 8.84105585336294 4.207221834993276 -0.1473643203509978 -0.7532082706431286 -0.30831049315148834
Ni 5.265651656809045 3.283150059608203 4.984221543866672 1.8168193981904002 -1.1888999561554687 0.8921188037998183
Ni 5.741764173080953 5.845814586378612 10.002706356413233 -0.3936502921705737 -0.018366675432645786 -0.6467849114808667
Ni 8.218939767877858 0.02837281139816166 3.173203700172831 -0.7707827891917822 1.3801625205513135 -0.4062510116537197
Ni 4.692596795740645 0.8303056485854997 1.964310613655704 -0.5102130537596826 -1.0600894875472582 -0.6058066692962921
Ni 5.717768724331194 5.649340986379154 0.7709061639202076 -0.0015827711060875968 0.8139241004659467 1.0310316509493533
Ni 8.392616319351049 0.3358996901233919 11.461682699339784 0.9614707120310797 -0.5058313797522193 1.6938949560493213
Ni 8.812312544185762 5.117644655161178 6.019337449884209 0.43081224593285156 1.8308388523979438 0.7794666901190254
Ni 7.302932036744754 6.322046027863538 3.720218513636889 0.23606352276061923 2.3515018978463567 -1.12226878928948
P 8.671056835400007 1.9876611218271718 4.219914814459647 -0.25504366340754786 -0.47900886024273637 0.6318082355663764
P 1.8247793204587153 3.470978711430565 2.2755543626924197 -0.6370545715669803 0.28011603299514337 -0.01496844838437422
P 4.736525939810924 1.133823832822684 8.903764203378135 -0.001836796098422643 -0.8432750428242382 -0.7435038988711711
P 8.498697609363328 2.121406246006157 13.004555291194723 0.10276005137806174 -1.418773290944976 0.564023671822235
P 6.6921138464964045 7.901766224758187 1.8163063564358302 1.401714021469844 -0.04673957014838402 -0.7820743029452014
P 1.7997867295382644 3.7087468046272822 6.632346608480087 0.37983498355403617 -0.5555187196750174 0.8016889918523354
P 6.90439535173398 3.7992580398274796 6.375140646620202 -1.0303161129395675 1.5192779706299577 -0.10361160074507962
P 1.8313567995479552 8.882853491692202 10.859772922355832 0.458971481975887 -1.6443420848218584 -0.3107098466216004
