# total energy = -340858.8534230938 ev
CRYSTAL
PRIMVEC
9.35859295381666 0.00000000000000 0.00000000000000
0.00000000000000 9.35859295381666 0.00000000000000
0.00000000000000 0.00000000000000 13.69724676897985
PRIMCOORD
 96 1
Ni 0.881068493028018 8.534353751129226 12.291170045168446 -0.13226448859508189 -0.14228896271061944 -0.15865480566315257
Ni 8.746980986890044 6.442380637317844 13.342584586085636 0.3356487759551251 -1.6243674414721445 -0.7762019033248245
Ni 7.77466995434734 0.774061403397174 7.9612512895867695 -0.027148021169701633 -1.7133440659128685 0.5787830895195967
Ni 2.713701889363063 3.5478052186612357 9.498150335648374 -1.470192011736584 1.1812311267563012 0.4241667155918759
Ni 5.306865099298339 4.2622308590989615 1.6372456249666127 -1.3617238542301515 1.4920093647219916 1.4940143109671624
Ni 3.2137315199396714 4.422440614776314 3.2012799117891535 -0.4326122752560679 -0.40976982344025553 -0.34040171725907825
Ni 8.903905876381128 7.219050280618475 7.775831355753938 -1.0544952812889323 0.30175700830368674 -1.7887429516691582
Ni 9.15403299478691 2.1316348314678226 0.9937047764225122 1.0177858416830408 2.8650764118791043 0.064520805391205
Ni 6.255807724812225 4.198723446164414 7.006306062443615 -0.7499152017141537 -0.6204663281909959 0.02677186877720551
Ni 2.81289361787666 7.022482390657197 11.181063087478634 -1.470529597581661 -0.36375093350798 0.0476566826460147
Ni 7.550962144328563 0.7007854909605518 1.6602434317077497 -1.8447786024074873 -0.6871178067719586 0.6798233299930744
Ni 6.791980242030922 2.043561111584677 5.524332599422515 -0.7146903170735885 -1.109722320083037 -0.9537797711447251
Ni 3.2743658447853736 9.268366926973966 3.2107713969347795 -0.8447878799243387 -0.7010539572370765 0.7630393978009375
Ni 5.250451499951234 8.101266137163407 2.1507965508877294 0.44660576132168245 -0.0524438196220129 -0.43111692165746396
Ni 2.4008066868794717 5.273033785157698 0.6190157194052447 -0.28992376311418455 -0.0709562766039036 2.349726294003173
Ni 5.209002291008248 0.9566353890612181 6.949271052513126 0.03394087572181896 -1.9296458326655284 0.017785863228511306
Ni 3.557248039122621 0.18365303145115772 0.8600921424015083 -0.2827478141910356 -0.6083011535833718 -0.3232946252651464
Ni 1.8008647161187745 1.2425310503841602 8.026080135870323 0.969581256953356 0.18047292997950853 0.7543470122332622
Ni 7.118454763136387 2.6303636176002954 2.885749329482047 -0.8222207932571002 -1.2048518514990345 2.2818535414205994
Ni 0.14962893029217744 2.124073088224216 9.491617101789016 -0.7941374047573226 -2.273958969163871 0.6531810448151977
Ni 1.5622580258477432 7.625222580761754 1.3143030369058721 -0.005192857054849121 0.448248439131428 0.0739194729972856
Ni 0.7397649671783063 4.353252535815939 5.670632678140744 -1.5456724014630863 -2.566473375823367 -0.9086265716468546
Ni 7.803765820367603 4.263803102743672 1.8199534385123195 1.142391271070968 3.31677450012203 -1.5032353153447982
Ni 0.19214033955465626 8.134695031799748 9.792654966785417 0.2766913235843106 1.7141369941278093 0.9707230838672831
P 4.612008277081382 2.7754498867904354 6.052278913285853 2.7840743210034247 1.9325768902693943 -1.798375846773232
P 1.670798988891492 0.9503932074479934 13.730668597440248 -0.2924455010947738 0.16458916886971653 -1.1743678239775648
P 4.640224435348058 3.5564151243346496 13.216925820360105 -0.37528361673792787 0.5395405990792063 0.43486121919124465
P 5.860117048967015 4.0160998599568165 9.380189948626048 -1.9841357361832928 0.13290237928939694 -0.6399609465804978
P 1.3151818088001477 5.5008125831851 3.943026093131657 0.12119974614048803 0.9443078270985479 0.22876441799604474
P 0.9821749896946368 8.703837872591745 7.67645807053375 -0.3880236900124156 0.17123161388689864 0.8122600824999623
P 2.883588430329883 5.546576103557916 8.029860071632815 0.5970430641710492 -0.1574438160741869 0.82251235635559
P 4.277410497144914 -0.003457064299737957 8.668960267739921 1.307605218008877 1.2645310125272222 1.842288746106098
Ni 2.480822658083477 9.003453231433408 9.929011540310164 0.7005186535588968 -1.4131119788941404 -1.4069991811281832
Ni 8.603354658227135 8.510217939464297 0.5075530035884093 0.6153002106090242 -0.9306606686287584 0.7241558333618625
Ni 8.5454811183528 4.778104587833274 7.096283320168035 1.2245146200352848 1.9052424641204992 1.2643412651139192
Ni 6.919322618659332 5.357036517032219 11.050514456846189 -0.3532934856200819 0.5636390347893067 -0.34291625615081583
Ni 1.6502662355790256 1.213884396833814 11.12132905929139 -1.0974468451497938 1.4767406114883794 2.2140301540187224
Ni 3.0963841207669205 7.8986432374513695 7.749149070900168 -1.0787708660068454 -0.8718109454804018 -1.6754889427383082
Ni 1.0519152256492856 6.110403263455894 9.233669942969422 1.847925375566585 0.38962651572316126 -2.027344667470599
Ni 5.707038541249598 7.8631741695141555 7.644748349454155 0.4153833129722911 -0.0678526979779154 1.3194196941453018
Ni 2.440000474879749 2.8139698560858366 1.1797685814622256 -0.5558511633137717 -0.002524051973434363 -0.17066674252236413
Ni 1.723319413499314 6.183840143694236 6.241273829691778 1.2679701201157583 1.5725013487304724 1.1846815471987466
Ni 2.9330953879520103 3.8955237461565355 5.475899072431628 0.9809529891254074 2.5305368098277583 -0.26455314555987985
Ni 1.3854461259697 5.086535741397064 12.45393376090914 -1.4293958036558287 0.5788165138606934 -1.2152347373952554
Ni 4.64086081968044 1.539788043758759 4.15505999408846 -0.03414476420250894 0.5231601008386538 1.8332690591059912
Ni 0.46690676193539926 4.317231310884451 10.299699798767232 -0.35628342148634123 0.6732631602770535 -0.0805277223424226
Ni 2.791911652094276 1.806901008683287 6.079153049298652 -1.0275290371127337 -2.80436366738008 -0.9250276387126971
Ni 7.332064651175149 5.8750533635917614 8.682287840206778 -1.9465346380010669 -0.2070771628305982 1.9522142048843474
Ni 8.813548659775902 9.415025439808817 6.018501878985329 -0.8404542855459911 0.2519789084392951 1.1105990662610357
Ni 7.522072167357011 5.084748250110519 4.352231513306189 1.4174543150232362 0.5226137414168807 0.682459739174657
Ni 6.428595429647259 8.379104049807209 5.642526015413611 0.27372607030839957 0.3980085691392694 -1.848154717968572
Ni 4.774763570088266 1.9823278367790858 1.736139750218889 -0.42089035883344933 -1.0589008665557957 1.115806321493588
Ni 6.462108551621709 2.81338026471907 0.4658894828628992 2.2471271936830077 -3.6521599951134394 -1.5828250992539836
Ni 3.7943667130870513 1.6111473163237344 10.374459048213893 1.3693258349471258 -0.3598868225668835 -0.3229662953914503
Ni 1.8452057303368539 8.716303518631946 5.799208517342801 1.4791484495989236 0.3991321412207513 -1.668341018839617
Ni 6.166208554249985 1.573151428243236 9.274885187084328 -1.1536056517295488 0.5602675472139126 0.2712958636003521
P 8.552322249925913 2.919160442791453 4.712798453300435 0.4640272992322396 0.07569250573730836 0.12942701914628676
P 4.119952167845804 8.672421075476908 5.307519264957656 -0.15540184594349363 -0.1581722095997792 -0.10788837374356258
P 0.20504116017509147 6.469127496464166 11.191212481720825 -0.5000903635033839 -0.2616616829446977 1.0753500132507545
P 7.351549242057809 6.672564593777927 1.4066386600973573 -1.905761569848763 0.12130721825262979 -1.5932221262175916
P 5.964044225600988 0.167813612590014 0.016930630819317644 -0.8519424886912488 1.0414587598199485 0.12862252096712043
P 6.385040537251536 0.6491737857449998 3.5102622864879036 1.1202880114140257 -1.958881332491878 0.03960990108213824
P 2.768496452099841 7.609041573251611 13.225856725777646 -0.9059366835195173 -1.2229133369864358 1.9093186910724018
P 0.5208880629297645 4.372624823581119 1.3105867395766195 0.5666312846484113 -0.000199774715631914 -0.27906779423628714
Ni 9.020279981869058 6.405283174177181 2.555153283965092 3.300348750465838 -1.1352945121251867 0.6816112751314326
Ni 5.2990225982610335 6.29682643847154 4.296224076900635 3.7183504748975835 -0.12521606638873273 -0.6396159045362532
Ni 1.0321592355660512 3.271221357495953 3.5559836931916666 -0.3615906926318676 0.6901064570866372 -1.734279530513955
Ni 9.309142317212078 7.375217124066573 5.1904760200614115 -1.0740798882890792 -1.6642884460367982 -1.2334774856555273
Ni 6.198374038814682 0.5608913692352054 11.385727096350857 0.12191502703995778 -0.0055286431277130595 1.0550131014656152
Ni 4.37402861254961 5.979691793303105 6.440048475911524 -0.07710506981411883 -0.2859161846166882 1.0193128198505284
Ni 8.099141736524423 1.072382468809889 13.037861307117288 -0.6792880263148946 -0.32780099777593225 -1.7275923483017668
Ni 0.6891153253358273 1.1417764368189767 4.536665051423828 0.9129699362172148 0.8178517176551269 -0.4745071157176408
Ni 4.356209851242894 6.046942643486963 13.657045481198754 0.8795401958038593 0.8985077380452977 0.362633274963769
Ni 3.8977978842854912 4.959717445983559 11.561722926908551 1.5280143220616909 0.023062281136102217 -1.0417390100645285
Ni 5.617551673804837 3.937047823844509 4.362997638835205 -1.7478973784077059 -0.5859371840658747 0.27437835918041775
Ni 3.948549534793014 8.963361018493295 12.258652677502313 1.7651505090611987 0.9589826555019032 -1.4178363809530032
Ni 3.271820307455842 6.75734408888168 4.399473691392484 -3.207212081110154 0.8295240117867327 -0.4792119773924779
Ni 7.189392899010816 7.989777217285826 10.103541815184753 -1.3943663228555212 -0.7729643702241333 -0.40701977149894414
Ni 4.295987304494616 2.8869388066680153 8.037257103637451 0.5862197483033 0.2784548432426366 1.974663277916483
Ni 7.783719713897547 3.5429761846096257 9.574471534287309 0.49555365197529494 0.18276275445494977 -1.440765478945351
Ni 1.0622658296436283 0.6286999915692102 2.1088691178361425 1.1021416795223018 0.8175087324934115 -0.6880184642093571
Ni 6.262059265018573 7.459070118451121 13.092499581348907 1.21495217315783 0.22763107572254992 0.28342915652877637
Ni 4.420681199269138 7.029613638617134 9.422664859375347 0.3273225154776169 -0.4876606223804634 -0.5664096555559085
Ni 6.497203275833992 4.8281824196359215 13.314244894389734 0.44729841651333285 1.7429626601102497 -0.7106295167406537
Ni 2.687497828617892 3.219318600034267 12.228600363264851 0.32465088218272475 -2.2616757809211436 0.2709510786664237
Ni 7.28683457061036 7.473613372164691 3.4678416555787206 -0.7453147268276648 1.690662565154953 0.3728870914812933
Ni 7.442683221892266 2.9495477946627284 11.68309452112431 0.3808605966050731 0.012711019808765205 1.0169378918604486
Ni 8.481618078879569 2.648771970273778 7.01248366976429 0.9510852550316976 -1.4154395985860526 -0.29401130291999683
P 7.14869237751769 6.217952215628575 6.567967341876327 -1.3380697051463213 1.7074634387623755 -1.6086176348370556
P 2.8162907871804093 2.153767904204369 3.269464749566714 -0.4731714276253528 -1.060975489696637 -0.5261544075802874
P 0.39489893886698085 8.633377024966602 3.4156141549356573 -0.8617923849021352 -2.1160960632743944 1.3781917699781876
P 4.232348871256343 6.02961988761578 2.382691258170747 0.47461793026389226 1.631754220854519 -1.1346486510110718
P 1.024953118861129 3.321495719754189 7.9726060706232404 0.20170432855445905 0.9333078764436185 -0.48851165752684894
P 8.38322183078145 0.24641362865446767 10.903665964570939 -0.12497284002967511 1.1220826414206029 0.1766299020843345
P 0.4809231268561289 3.031454201677635 11.867336208082921 -0.894031704551815 -1.1150447607372151 0.8476400046611532
P 5.143005492302908 6.889300251919864 11.336088182565693 0.7195898112577348 -0.23273522971833466 0.9311502066706674
