# total energy = -340890.6942176545 ev
CRYSTAL
PRIMVEC
9.06833650699688 0.00000000000000 0.00000000000000
0.00000000000000 9.06833650699688 0.00000000000000
0.00000000000000 0.00000000000000 13.27242711949366
PRIMCOORD
 96 1
Ni 6.541816155312771 1.7877862182301854 11.499190837118082 -0.46823310978347105 1.0971606813679426 0.04030229916347253
Ni 4.54798826915928 0.22935091941884142 6.311570191106112 0.6984401737633132 -0.4067588045280736 -1.7354563244308756
Ni 2.8844926675637863 1.6592606885670098 5.189612052652347 -0.007443857872554922 -0.5196006656221697 -2.2741443457017994
Ni 3.387866944433413 4.648030154662996 5.093639129623751 -0.3139458370603948 0.16260453433951996 -0.7051260704239211
Ni 5.003046450491942 4.494013531802671 2.792399178782697 0.004900522625410915 0.8061848228401598 -0.444413381656054
Ni 7.204058614936168 6.242923792531549 2.700700162628458 0.635536335150241 -0.5040164380306674 -1.3341747409672893
Ni 5.283747730756808 4.526813704016861 11.422848141568629 -1.8292010596842045 -0.4225921720159045 0.6569250852386622
Ni 5.706178038264019 7.765778567234628 12.16076768086077 -0.23840296952707327 0.22104339520270316 0.431382773724341
Ni 1.8433569827666942 6.273520359037127 0.4921721611007051 0.5894737364642235 -0.08951501344269745 -2.115838438737633
Ni 2.714198381135735 1.3341608340249336 0.484676274356926 0.8491196745304731 1.5987137454597822 -0.11983963256816779
Ni 0.4504587211869507 0.009148137608425285 4.770349314997061 1.152765929437073 -0.22873690719221898 0.21420220391115372
Ni 8.485251296928178 2.429062684444898 1.209852080717743 0.40067763133100026 0.11048621637772583 0.6439752099462136
Ni 7.184770263733629 0.646829008500239 4.8612521312286 -2.0629485327171375 -0.291072274896331 0.44308720664546275
Ni 0.7466523471003428 7.18809834313717 2.310490560649097 -0.766161745480003 0.1601290762158339 1.0868233039976767
Ni 7.747451459674529 3.9741439512953316 3.8422078203687446 0.5191360672809253 -0.06756447731353526 -0.11441691889069973
Ni 7.56597591465093 3.8484568108782273 12.51328383638575 0.7963740073973252 -0.45373311639508307 0.8458011516802014
Ni 8.112624292102838 8.782792477608236 7.086135784015825 -0.6973268860944765 -0.19526937156239274 -0.8221703996351388
Ni 6.920265032010247 0.6338658218316784 0.28079377729460964 1.05511440293017 0.25531157235695384 0.4496093240346966
Ni 1.8199697435794135 6.586767898101198 9.2433696483823 0.3458743103378753 0.17058523855215138 -0.5453430646935963
Ni 8.885355360589292 5.113335555957513 1.0409071627236068 -0.3324829766326339 -1.029357091460408 1.1050609100516258
Ni 6.432370405118397 1.7441584525341762 7.042933323289915 0.27284546747565913 0.7170210220892942 -0.0494310009376181
Ni 3.6466319193109062 4.405606321706975 0.6155251117672057 -0.368083756555379 -0.5403232428815017 -0.564371284969641
Ni 6.0180199852094285 5.701843373536791 4.74371107726436 -1.006873308535595 -0.16670647232303548 0.5499941903123624
Ni 5.153372260498748 3.1072291425222938 9.348101677394222 0.1365086085834165 -0.8612228855519102 -0.18217705715480886
P 0.21116165056973413 5.767525332991415 12.298151161372388 0.5280608805743808 -1.0066190264329438 -0.6910767914197066
P 4.145091157933342 6.0962615903695125 12.528652852661285 -0.4924644715270099 0.3582755122157056 0.3665832607504525
P 2.2972906904044263 8.362656459172129 1.2892625944203793 0.7278685063267594 -0.4510730530644167 0.9062786402399683
P 6.433431400459581 7.8856075624346005 5.940485710276799 -1.0031403238557242 -0.08312479364563748 -0.8650183480386006
P 4.9945040777449785 1.1614725068270324 12.852606469501431 -2.7187868126495243 -0.7452255095479682 -0.987936362421776
P 4.104410601518397 6.177631771535651 8.067034138442452 -0.6044018185289655 0.33393256459496684 0.26131638379013705
P 4.70509719468066 1.0952917888786902 3.9765388988988057 0.7949856116902309 0.05149611099676292 -0.2284098628701034
P 0.36659656121946915 5.43685751999219 3.691088530940114 -0.46669276187954467 -0.007280849932129397 -0.5134500726397415
Ni 1.5298827352963877 0.8240542243237302 2.5442441573170376 -1.4096371329716626 1.3117066417717604 0.64599969657541
Ni 1.682212647614318 6.738644393606656 4.80983466469433 -0.107005456917977 -0.34505567109132185 -0.25811227503054257
Ni 5.984213227671552 5.585913762924074 9.105176365443608 -0.12318026690562657 0.14330429134901126 -0.2911033852445825
Ni 8.617259067711135 2.399790095031737 10.131639482189122 1.4978365129267301 -0.20116413978027292 0.6091681295693574
Ni 2.1615921067679515 5.53359853110111 7.018286492197588 -0.044031941409233846 -0.44554055328196174 -0.388858270098569
Ni 0.6930956600448325 9.152218359737528 9.165885249299043 0.4465579388028825 0.6642316462024044 0.08886580989447276
Ni 1.4709294813388412 1.0302808863065245 11.46557179414057 -0.3964517661751108 1.749038948211317 0.37343807888875685
Ni 3.943384154737264 6.813467236000705 1.5143840418124865 0.8877787816635678 0.5968774851274624 0.06379369741719336
Ni 5.678329177642019 7.994101137322784 8.003684555071182 -0.15179458820820954 -0.5143016220067594 0.7904357875360193
Ni 5.151549524912612 3.2426375393987867 4.850235916352792 0.3944352499657142 -1.946012704059326 -0.23453140238680897
Ni 1.0580844052472778 7.677670612235164 7.0594839437787495 -0.6675907924826244 -0.3274654688133844 0.2566356904850161
Ni 5.175009310789888 4.4555547177688375 7.033842316199861 -0.4430239575076951 0.1258621846131639 0.117274700054469
Ni 8.292984431767756 7.350530382036966 9.07134512339786 0.35651533499148924 -0.9412572131976823 -0.33433442801907576
Ni 4.4981668298049104 0.4302191015118472 10.644871040561878 0.2804767587686718 -0.0613110402046557 -0.1046744947919552
Ni 8.098414209199982 7.016126414502974 4.889349464263835 1.276383283880118 0.44655819591319873 -0.839044292572342
Ni 7.137877896987825 6.049205993571219 6.846833272396859 0.5381496322689505 -0.18571515221505436 1.4972521011781699
Ni 2.352344559774718 5.177693538319721 2.634218375916635 -0.533579753510081 -0.5232328630581183 0.33795634104237926
Ni 2.476100144570693 5.32684953295035 11.197641451815777 -0.691587669617854 -0.3936459212951995 1.3170293395362542
Ni 1.4437970192805458 3.0785006532840984 3.7666486290712413 -3.2737571160202394 0.8927397252132689 1.5368404049937532
Ni 3.427740418922158 2.698891029546697 3.0332668852383153 1.9486982213112891 -0.602647297731704 -1.70685280176157
Ni 0.9880949860741747 3.3256944311073187 8.181229883164278 -0.18252287053000177 -0.010638967771084903 0.023554390281172337
Ni 3.818676394635098 2.3637525267765014 7.115573417148726 0.4153899978405104 2.001326389029966 0.7010737547314184
Ni 3.8902346359793527 6.957173160545428 5.884503243274566 0.9715044421179978 0.050386937092984196 0.29368323015661685
Ni 0.7731980878033002 7.572976670235491 11.164844906936088 0.05647299538606403 -1.3644533373461727 1.460012757210737
P 0.17081299526151897 5.717014700082088 7.969415312384585 -0.21663626727394306 -0.3139432659572335 -1.0325941103404668
P 8.429453823985435 1.5106215891025978 8.06148613032505 1.089817353628994 1.7262309491778656 -0.07479210541022603
P 1.7805950275843871 3.4202318365076296 10.432990270927567 -0.09764612719026408 -0.8517296013494944 -0.0950156315459525
P 3.9674968608244985 6.330977337513517 3.6925222349011486 0.6632394574924642 -0.6609174942275069 0.5161718424462788
P 6.960220121525237 3.7236583674135675 10.399305029095432 0.12438765695016642 0.9048236529609965 -1.4413923138960725
P 6.4869799260124665 7.608261566582024 10.044346770618482 -1.728730832781584 0.3547615855251761 1.1741474804366423
P 2.4557145246819743 8.679050710914753 5.802094737607868 -0.41898337161872357 -0.15722475808484537 0.10599835580970132
P 6.884971067327464 4.11344266442283 1.7498234421891954 0.8189992009960089 0.021245539642337604 -0.4668136037281251
Ni 5.381694830586904 2.6300442207410217 1.047176103572838 -1.2515883363236253 0.7357178271678491 -1.227006276108887
Ni 1.5279330430027602 1.216490102852326 7.07253146597443 -0.7286894595661579 -0.5604796632247185 0.4767992541859272
Ni 6.821003023423982 0.9483484682929216 9.417529766553486 -1.2653979885132078 -1.3127371399188037 -1.7103870401670738
Ni 2.778810276912926 1.7833790068129622 9.30513952757892 -0.14059820527175784 -0.41473128121058894 0.3078525796784633
Ni 6.502749762750226 2.1470283587513666 2.8989902167257506 0.1803428321595475 -1.138433829085117 0.9154001429252622
Ni 4.083852683240939 6.91416204171438 10.39438092251199 0.6788416828060954 0.5368293707956303 -0.673194254712331
Ni 7.818828334293795 7.091847022185717 -0.11524495122588492 0.3561659220718705 1.3488074032787996 1.0582645185233774
Ni 7.732960258347941 3.947038694245784 8.117841305947135 -1.069932956000241 -0.6085433515011649 -0.31989434133434586
Ni 3.0762335692217406 8.348772836374252 12.588498430905775 1.2422012386817702 -1.0114395877500386 -0.8666898222037526
Ni -0.020786440350944128 4.926518760883 9.968229876641638 0.8577737506610452 -0.35602219740515456 1.1412790118433958
Ni 8.809371771155316 2.288576019268724 5.725698538874543 -0.12530579788906163 0.4191386662496653 0.3076993419300507
Ni 3.677028982418997 2.593961310804539 11.532411780134245 -0.13015901221630488 0.5013669162229624 0.5292543866618499
Ni 1.3653559107229738 3.480191675788863 12.75697905008394 -0.5056956255053033 0.14031152726927448 -0.45817855376094635
Ni 3.0518669497195217 8.506462135415596 8.230404750144064 0.8651762137727036 -0.3906552140979917 0.18179859076946756
Ni 5.789724620130021 7.922814946066013 3.5906158994645505 -0.9832924358918613 0.4986135218475413 1.214720259652682
Ni 3.043551285378794 8.37938753955233 3.6196699419741 0.7717428391122064 -0.02914473988475626 0.09216016437502837
Ni 3.0896002968534013 4.33103739272791 8.84847443706286 0.9853431477733029 -0.09052802808824409 0.6670863420423803
Ni 7.214314903234273 5.820919696828061 11.174414722180112 0.5512817987755345 1.4832563011197102 0.568308415240518
Ni 0.5133059187300024 -0.037072265421296 0.2661329980801556 -0.8788789080707766 -0.486234174346582 0.026506273820644674
Ni 4.698359420847333 0.14518406335337905 1.8654664933764302 -1.4160196394592388 1.9517874017595742 -0.8743000304508426
Ni 5.9993392125356015 5.567913115468955 0.40550335106402496 -0.15566435557626093 0.3337240481285866 -0.05225484353965839
Ni 7.968664454143132 8.80007672649965 11.143715683474916 -0.36208665843167964 0.706615510485254 0.8265988677201377
Ni 0.0021482888574900377 4.76559206580061 5.829687871147635 0.11755597874031368 0.06513658459833298 0.4188280769877819
Ni 8.057905951173776 8.76013070532091 2.626427768244749 0.1030878670311257 -0.1248036614416625 -0.37153546254940534
P 8.572733536726432 1.5730298791711772 3.4983328824558484 0.9484421609818956 1.199079724901948 0.11620306425684503
P 1.599309917622026 3.0628214999088335 1.611405264511516 1.1586362721749206 -0.08799034926805492 -0.4862974234843496
P 4.741053147909652 0.9520120761376916 8.400092364877029 0.7167963076729978 0.6784138512400574 0.9918542094189433
P 8.601679666034615 1.595011526239796 12.372011853290374 0.006982859075736361 0.44728067590152004 0.15148348472569398
P 6.3678854660486985 8.090225501566746 1.4357978398749234 0.9824784246309983 -3.473723378837669 0.2075834130430554
P 1.989021667941293 3.4093498330083136 6.214362160680344 -0.9170939856879172 -0.30377352451308326 -0.1324048708276881
P 6.905139047146196 3.674526121614154 5.9458079168215905 1.105821442366734 0.9182319559471025 0.3370487416264453
P 2.4803713309441746 8.589147225337902 10.449102890775553 0.8901575663083895 -0.6910608505801067 -1.71434679614577
