# total energy = -340868.18121881137 ev
CRYSTAL
PRIMVEC
9.29447290454514 0.00000000000000 0.00000000000000

0.00000000000000 9.29447290454514 0.00000000000000

0.00000000000000 0.00000000000000 13.60340059552009

PRIMCOORD
 96 1
Ni 7.189795140118895 4.5243355476806535 10.041757622175504 -0.5690689475556264 -2.009048697374888 1.1714917879813502
Ni 8.817814981918618 8.998685421068096 3.6340942204181923 -0.44993174037112194 0.21423100026656006 0.7389581884820177
Ni 5.716779219886277 2.0794895597466256 0.4452675163002212 0.552074726990475 1.5611956939096663 0.6545630127643889
Ni 2.5865495190374674 3.119875658237684 0.18663858892009302 -0.7601823879681165 -1.8978379441263118 -0.7380523888382966
Ni 0.34692362988723485 9.050641523578145 11.5032669851796 -0.9261460685878566 -0.2887166301799608 0.035149037097307205
Ni 1.7422210281219026 6.490311712086448 10.71263731040926 -1.0670247812145108 0.4239862241499536 -0.20948911470620052
Ni 2.8934065359192775 4.920242907701782 9.373912579285134 1.511086693068417 -1.524751335039703 1.290136114689836
Ni 2.02332306109399 7.833167836335032 12.823721571276176 -0.7536376448710633 -0.023353587124275908 -1.9122860012308422
Ni 3.124058170962106 8.647038340144078 6.9304152193429145 -1.0431466890453327 -0.6817727404099614 0.7595450114944339
Ni 0.6867091047247883 3.8228259245950413 10.172187887315717 -2.163010982658378 1.7711442647507885 0.5552983761340953
Ni 8.535551139856413 1.8775671398842202 11.417728093834251 -1.0099982273178219 0.006176561124357105 -1.3358554711038217
Ni 4.153374552442525 4.73844302128021 6.011818314703413 0.33610257566309215 0.06253848485385359 0.9797193738286225
Ni 1.763561137489179 6.772938038584769 5.916173543168588 -0.026875741344921458 0.9452069418740495 0.46452660746616126
Ni 1.4167378879073305 2.27180149481558 11.772260179090846 1.5210255494486837 -1.73907618057165 0.6943662608042558
Ni 6.737461036208944 0.5164129871899229 10.807602655988187 0.5711461417996293 -1.596695686588489 0.5886209015456251
Ni 7.934728539756736 2.755160548668027 6.406657739808906 1.7057688246687719 -0.3388829666217067 0.845002824148622
Ni 5.492801016257083 2.2535378559189345 10.064747500450748 -2.7737613691131906 1.215805779407377 -1.3676121946901287
Ni 6.4100074677775325 2.9194589429560702 12.09561302615778 1.0420508848779924 -0.4864059240377558 -1.2358002202514329
Ni 1.4191265673966118 8.855308884874885 2.3049734679566125 1.5554107117967728 -0.1581387852586825 0.38095109943635036
Ni 4.592594155343231 6.911016725327042 7.444746244643348 -0.1236788038085999 -1.222468021918901 -0.5446537519360556
Ni 1.8766469870848472 0.4239943271365354 4.702450175668373 0.20513623705414347 -0.5191718056148671 -0.8641068919679247
Ni 4.649336911304565 8.54887011926552 12.738604648992359 -1.385464906600833 0.010875509261923206 0.8803194971720453
Ni 5.912316336989398 3.0687467637997967 5.498956745540161 -0.5878369721917489 -0.7139300418687963 -0.904098601869514
Ni 9.078060218104916 2.5778684815161106 -0.07932739522594454 -0.6784043381583608 -0.5667097032948304 1.3254468741759884
P 9.226297763531177 3.5733715712377525 8.16459758019646 -0.8007060591137759 -0.20132457661753717 -1.081601393477105
P 8.230831851700419 7.516458678369027 10.580915113560838 0.07336797136918978 -0.5820890139643782 0.93522643362257
P 5.7605933642927845 5.009125950332124 4.543032309006095 0.6272861793263067 1.1195670740876011 0.0615061869345973
P 3.474171663887167 8.660320141662302 3.5320000142623074 -2.1094567035810057 -0.5140298564026116 -1.6152202277552374
P 7.955427330506267 0.16512002567657444 8.330396102381664 -0.5495002813950794 0.4987670167062701 -0.4337191351670014
P 2.6154646236723096 1.0102534179297726 8.227377096190045 0.2766352735353946 -0.3651064190946099 0.16089963583327127
P 8.497378740391515 4.032388401034059 11.848507386057072 0.5754100592823058 0.43915161903648237 -0.3510237157492987
P 4.229152388536343 3.0892689595676304 1.5689069952945482 -0.833189633563778 1.2219445453152633 0.9194421742051198
Ni 5.964123727935912 9.197763732277894 1.0476376461079346 -0.8134769856261991 -1.8696162302764576 0.4677847093921428
Ni 7.58733832733891 9.518376568786692 5.6525934501700155 -0.7493212768838966 0.48928915912282184 0.3761418509731651
Ni 0.0699548489341494 9.094409195621049 0.39146367261324794 0.09601013424873787 -0.2590990644238441 -1.3066600804867885
Ni 2.3517432546883787 2.605026930806695 9.579514680897761 2.4203272441501866 -1.343221681660906 0.35338090312756565
Ni 6.003997015908742 1.5549745806858601 7.39769204704632 -0.3435685450228341 -1.7019476511504688 -0.31120169865635433
Ni 2.0497286580941783 4.694201331128539 5.169414709088355 0.27743617217013505 -1.8035792453510424 -2.8668916107109723
Ni 4.664998097839348 4.285430420861631 12.997437125325074 -0.7005029698296129 -1.028469546649132 0.593957740377506
Ni 1.371966412810566 1.6725310716603001 6.640500167336833 0.36626007308307884 2.4123478254891357 -0.42741556154647686
Ni 1.2486566432218646 4.752858748470388 12.522243265757973 0.97566371570201 -0.5877780939293555 0.1932340862999188
Ni 6.328188224415104 6.555280076405814 10.922034345233847 -0.4554737532352736 0.43800567835749726 1.123860045036
Ni 4.1538578650240146 1.7964728653940252 11.89727548442384 -1.2000888828927525 -0.31702421887540244 0.655526919339555
Ni 6.897549034354402 5.0685733978552525 12.871401286887322 -0.7373700180592914 0.06763518265047062 -1.6396338807129118
Ni 5.622049953914464 8.705844469049461 8.77982475411905 0.6935100834515476 0.3778300373088654 -0.2617331596125815
Ni 5.336598107708978 9.247544928171244 4.029994144861145 1.946532838228854 0.9220999235429409 0.5606416427238796
Ni 4.140483118778582 7.007037923007067 4.873404341871881 1.3081248379577728 0.2911512077633825 1.4973379760237566
Ni 8.744202757968777 6.6017617344832304 3.2694274421066845 1.069444960620229 -0.8671338517197067 -0.30297853941561365
Ni 8.781482888052466 5.705151834512382 9.06840790818422 1.2659572034507875 1.1851325186932364 -0.8342499565074923
Ni 4.042184775281929 6.952228417371687 9.93751546337381 0.6549751606011429 1.3204627906978355 -2.268972314582557
Ni 4.540814647814878 2.4653588892291403 3.6909289916594643 -0.134950005847045 -0.9026004200574327 -0.6517052316006196
Ni 0.5924519979671992 8.881984021583982 6.548146568592492 -1.3782290509740263 -0.9729830835460533 0.6837347492323386
Ni 7.0335829370980685 5.430946300299231 6.467151744960412 0.011105108774226036 0.38110819383950495 -1.7482789301168407
Ni 5.24172013017363 7.30364313647768 2.3942663968339484 -0.5527653252995964 -0.7165466535560369 -0.11122129477153749
Ni 7.391736148926742 7.621811526660873 7.168434582911632 0.9514171844498196 1.316043064363585 -0.7139081874919253
Ni 0.43198571478199893 4.361700864009658 1.2480394902331944 -0.09712496457947144 1.4518135092293964 1.107716602506918
P 0.9056459863501454 6.801137468820098 0.835077702216414 0.1586280661902752 -0.42689028517062605 0.5749711719726743
P 0.7280806617002332 1.6012424658906959 1.7359435412461803 -0.07995616610966874 0.11432384495626116 0.5389636435298137
P 0.01853596694736918 4.452359150929699 3.566797590682232 0.6283372462986404 0.35985674065989637 0.1676546951689177
P 2.8988902748246317 3.8647532910391984 11.398847301948935 1.111213302806267 0.33201220764380235 0.6318653140565569
P 2.521571860245381 6.6565898290640515 8.228329779643941 -1.118109515705468 1.900576168993082 -0.4348918153188639
P 2.288931208040271 0.6533837727838606 13.076023751075159 0.32559164882943925 0.41632587939121846 -0.4497831306083996
P 7.139288975353311 1.4990776217421315 3.915072636903091 -0.3316370836925708 -0.24415504151950207 0.6735722068770399
P 5.4479365964331095 8.558629315622506 6.371954967010735 0.03850869759815948 0.7944814183603027 -0.8522065409859129
Ni 2.9518315914431015 5.024266646394534 1.376310649360333 -0.03357320796975508 1.2067089593124314 -0.1196426860660133
Ni 7.752185095517489 5.938954295807609 1.0681040750394428 0.9355946155952661 2.7967529449123574 1.681537720035549
Ni 7.83285182426252 0.9677497941769174 1.7589194778123423 0.82715525444424 1.4741137153884936 1.4706990332799899
Ni 9.02257221596091 6.373647490493218 12.50806826541127 -0.959981786190379 1.604445762847553 -0.2563826939339456
Ni 2.622472656103898 6.6799189555936085 3.2944305031732832 -2.04562598227829 -0.3006614612466628 -0.775932965934154
Ni 2.1091110443082592 3.0363276429491606 2.6900453316796704 -0.2231190467848093 0.05549289086098185 0.32263025220827013
Ni 0.33612345258550347 8.230924796427628 9.172337772702493 0.6947915212671325 -0.3822057977790579 -1.0412314743004907
Ni 6.629115367700955 7.121090397765712 4.505555136100723 0.683411818675281 0.0035586638855358067 0.35965773727521283
Ni 3.9109189370441038 2.999354230465264 7.872967697973365 0.06027360007907683 -0.37646221042706135 -0.48393175146565043
Ni 0.3755087807404836 1.4556631396626243 8.927776029785505 0.32548391960698136 -0.33347593667352243 0.22820957393383925
Ni 3.8914656056391776 4.729957167685993 3.523090332712015 0.3260724451205997 0.2367870311902051 -0.2219923893795338
Ni 6.0953709772282965 3.8645766960575005 7.6367588976906875 0.11973293178697443 0.10437110461892349 1.7280044961385208
Ni 7.148806515419553 3.605121490052481 3.3867980436267056 0.06817331454212776 0.4610677023832834 -0.23393336379149388
Ni 6.411494583412884 6.339267235898464 8.693511633196048 0.08713674301850799 -0.9567182849477588 0.060937716025636995
Ni 7.401244394520263 2.243676420362018 9.091369903041302 2.455786356288745 0.02148516645696945 -0.6531455635915719
Ni 3.7801178224423255 0.9610205959269573 1.1605933730855094 -1.4664952796112871 -0.930077799542095 0.2597351553459462
Ni 4.03081763514422 6.249891586213912 11.968353105662679 -1.1718573988508851 -0.42036328268538575 1.6693139242758475
Ni -0.004264304084366935 2.336537497316922 3.984381519983135 0.12654712649533045 -0.9207004720922531 0.11723433373483681
Ni 1.6847625977610563 4.787787376955676 7.427551470109609 -0.1392056957996054 -0.5887805670519409 0.48789613543003707
Ni 2.4577467160706914 8.895591129647437 10.509415523260468 0.7368802229070665 0.7981619525356834 -0.37265543508646143
Ni 9.233575335671672 4.723804226744731 5.90402566732232 -1.264154860134726 0.4879534710305339 -0.5058385788410708
Ni 4.080375763692268 1.1291669019214696 5.896992539814385 0.16231297124103014 1.3230056117243472 -0.3978944121589083
Ni 3.078617493829434 7.459130370626273 1.084661248744524 1.646482785313945 -0.03591805405284782 1.0676981531324514
Ni 6.9752415318287335 7.936540961937318 12.70645971508699 1.5646209175411312 0.47795445083629295 0.2287533622524512
P 5.119367691275185 4.714639876641885 9.326954114757134 -0.7427917032954949 -0.29672098854167606 0.4380187909836199
P 5.453113617738673 6.578032945626673 0.032221148581680153 -0.9980613666709197 0.38281412078701815 0.6334388291912638
P 7.343330534996091 0.8562718883619718 13.207078604782222 0.8633589580583068 -0.1852783217879519 -1.8633674211532685
P 4.6939410858923525 -0.2609255915894722 10.733083291500783 -0.43361449126833707 0.6364807013413812 -1.1296082603736868
P 7.116127149332731 3.970617335330697 1.194827704458545 0.6687827559081967 -1.8291457809662368 -0.2539987670828013
P 7.3569097596413835 7.96218441217439 2.2346440517718094 -0.25818375169842633 -0.24620986716600177 0.35136027315311097
P 2.605259292624718 2.535467096963185 4.791689196603928 -0.03214136061923497 0.11571841131094263 0.7293782581030664
P 8.893537051176109 7.299850991607537 5.350163390645188 -0.13174075488112794 0.025315595946653176 0.6087896631840161
