# total energy = -340871.0219596655 ev
CRYSTAL
PRIMVEC
9.24134636689459 0.00000000000000 0.00000000000000

0.00000000000000 9.24134636689459 0.00000000000000

0.00000000000000 0.00000000000000 13.52564453755869

PRIMCOORD
 96 1
Ni 4.513473632692218 0.5043400165287365 10.235775456897036 1.4158260353911938 0.12176667438755158 1.0063804280595763
Ni 3.1845772467227085 5.373889198973563 13.504910099999293 0.42842369109601697 0.452785150659517 -1.0934392666522976
Ni 4.818604411570662 7.824287672663443 1.160845272193059 -0.031889392509428946 -1.7444261320296537 0.05865586196999576
Ni 0.22485305006503048 4.537953959582065 12.212818300617744 -1.9348137500197131 1.0324892093314864 1.4271522590372905
Ni 3.6940619208503795 9.100314315281945 12.669484982934831 1.0938038490805677 0.7772601693860098 -0.6357548789189502
Ni 2.29949652662143 7.019634391188947 11.536630825168597 -0.5592074813805142 -0.23586091983150992 -0.08249178804732889
Ni 0.6134488981662138 3.67928500779003 5.012333530743914 -1.1099966567903463 -0.3040470898894441 0.35899824931434304
Ni 4.84584790106529 3.2163859613904533 4.687054768216831 0.0006489464379085597 0.1339606453505822 1.332818484049711
Ni 7.393779545761381 4.06207082134397 5.388847242425396 0.5916434904220327 -0.4791605553292522 -1.3378758439679603
Ni 3.816140108171969 4.0021684133032025 7.639932975384135 -1.8762309073794976 0.31403274034724626 0.202595987130793
Ni 7.1922165371564475 1.6954913604479438 1.1207239663447108 -0.8884642377663666 -0.6561133879706442 -0.4800627554285473
Ni 2.386263528950151 8.722592759612352 9.677450266494224 -1.0767798037187457 -0.20043626047531285 0.17183016670284598
Ni 7.936218861523329 7.390600522563908 5.153297333781658 0.05171722586863351 0.6554233038821551 -0.4051791187457796
Ni 8.488472487272826 3.0213473434175437 10.43356060305102 -1.1098603883227982 0.12287610540164645 -1.2534243610910996
Ni 1.495702690371832 1.7134103313197502 10.504109966399373 -0.7137672910386869 -0.6421096174923845 0.9329463793391417
Ni 0.1410589889067378 5.120620856677161 9.769667814991173 1.2026322181398967 0.16996020337364276 -1.8910540884352594
Ni 4.9363668900747495 7.00294451940221 12.240018355783802 0.7326767263486801 -0.43428812029659397 2.5518232300103603
Ni 0.8511169234287347 -0.046921088606200236 4.897811992458878 -1.2831748528806546 0.8655713923285931 -1.4534603008042002
Ni 2.9849734035766824 6.019046081130625 2.8853849571079184 -0.2588247277165349 0.13299622455478388 -0.6462907454532676
Ni 7.995160169527651 8.681478009014793 7.397161878581949 1.3860919986618707 -0.5818884679177979 0.3859416106724063
Ni 6.85631207441874 0.4042821096575547 5.73500867564821 -1.4853229538407517 -0.032076568819570564 -3.117437900468799
Ni 0.8969244297811688 7.259299471431044 8.184962640571234 0.042496478601313906 0.9302762887061462 0.7690483229991787
Ni 7.251139362467761 5.839301891622304 2.7148137281397497 -0.7819961414090983 0.3956290131634993 -0.004490174560869686
Ni 8.708185500412174 6.326108301428464 0.7556630553859871 0.4710178716174598 0.4657761636025462 -0.7726332121369597
P 1.52656878769614 5.98283848552684 1.2422846382620603 -0.5596610239781652 -1.1813393701993913 0.3148007288615224
P 3.713052887916683 5.122145678850367 5.66295759349291 -0.3167025738699255 -2.3360940479317187 -1.0368487718517627
P 3.98671688194804 8.466320979702058 8.315565970043025 -0.7970111267606919 -0.18633581651818876 -0.3624049610030468
P 8.585349522677234 5.474462772979684 4.296691974664029 1.3066281988075883 -0.06951980126769317 0.862245927499786
P 6.488247725846122 6.375272264831254 0.41077507971146454 -0.31673394132849325 -0.7700381977162738 0.13308775582732565
P 3.88407324632496 7.922892839864152 3.265861358170438 0.31578623270324324 1.0065904871878535 -2.9586216295271175
P 9.306775237534149 6.773250852038236 11.10679916483065 0.7555706002277182 -0.6496524628366488 0.6465224018480994
P 6.146428801345674 3.5295105049951023 10.598641548060993 -0.18723467418337433 -1.7109781367838535 -0.10422095219430438
Ni 1.0765983850560565 2.401964576660929 2.8953803974869516 1.3446992946476972 -1.2690492121125498 0.41314979565608195
Ni 5.888798543499249 4.17621069201838 12.815967718104933 -0.9126395494609895 1.1724423248200777 -0.825607707451462
Ni 2.0547024990694562 -0.23902280666004885 2.6715309576522865 1.6912058392529328 0.6836807560659516 0.7483776820237046
Ni 2.5817180075157538 5.825384423786852 9.131338439631476 0.017391970224202306 -0.8937136590907642 2.011599231710884
Ni 3.4423738488062106 6.494115980876344 7.189150258386325 0.4951787851343795 1.3740137273410982 0.8960924437355858
Ni 8.136210841222535 2.3321739278605778 3.6941912997014397 -1.1100257102560689 -0.15970972929022814 -0.029241927584252866
Ni 7.760429968318842 1.4316786417901537 8.692228467403227 -0.9417084418024879 0.5937854764656999 0.15851622320275927
Ni 1.1703610866885201 1.8293615059089992 8.117415790702124 -1.3993689182764353 0.8921846240407474 -0.8692017899923289
Ni 2.647987703297973 3.8314807433690805 3.938978858310861 1.0755233056038251 -0.6970574344831737 0.4191160405418459
Ni 5.549788988336101 0.4095589185115008 7.573062592079139 -0.14992051111394827 0.47472077439034377 0.7878047776710756
Ni 5.5786866788549965 2.7884469288165827 8.22594523991378 -0.6895454423768447 0.2063513404081672 4.329170024027435
Ni 8.32783016098886 0.4122287435165884 11.148863925848849 0.11415158104445501 -0.9558644215878958 -1.2150642732556622
Ni 5.443809226624975 1.848592747984414 12.51114005539183 0.2682025693870091 0.377545416188911 -0.2596456809559335
Ni 7.819814860955369 7.563154944491895 9.492960645555955 0.7750238238563234 0.026283873397193444 1.102431957069211
Ni 4.922652731862392 5.342819792026161 1.765028796354078 1.2522863908319144 0.2792341446108223 -0.3530106642723404
Ni 2.4626062924220395 3.7308332385909253 1.5837856604427627 1.0084033720268764 0.047608603016898655 -1.3332686842132524
Ni 7.443266956291821 8.230481816912734 1.644718478618758 -0.5833946201496791 0.23866342227731158 -0.06426369507507641
Ni 4.414360191433774 0.34006399279928645 4.91361007430795 0.5542879325917099 0.30017063765317337 -0.789675255220911
Ni 5.783973950101157 1.4311334023464009 3.1540318241220993 0.34755375492282725 -0.16359620882882792 0.22987282056887506
Ni 5.2985075355381195 5.208903439832584 9.195234033496744 -0.17831448887560905 -0.659669994973651 0.24482841343744288
Ni 8.966324032316333 8.954522832830364 13.551614016962642 0.3783296026531033 -0.11307428881987622 -2.042674355849134
Ni 8.58370456299947 1.7147965332953927 6.323834006053759 1.544145937516231 0.4957719386336882 -0.3610458758719911
Ni 1.8059901405996654 5.776183494998046 4.909146503946381 -1.3259379548797938 0.3726371802540163 1.1869016947785171
Ni 8.939487162067893 2.131840018340713 12.366226500858156 0.686200951384644 0.28641215041650026 2.4456459254206333
P 3.392304233446 1.777970377998677 3.1054343552600217 0.004155674039586392 0.3479214226748912 0.2823518643041976
P 1.623242513477453 8.974049797993915 12.359626331184796 -1.2810395517052067 0.8740413774728173 -1.2119509244376612
P 6.092265269484066 3.712091787880238 3.1299562682091393 1.6368686592629487 0.7974147899570138 -1.002746687961731
P 0.9506942802816937 7.476314011391141 6.070931621078927 -0.18732286302180642 -0.5955525956684518 0.3815190561246784
P 3.9817727615682483 5.660223079062292 10.923960048378044 -1.0393072606945841 -0.9419956340256035 0.10050493679529787
P 1.4919784277306056 1.878774985667405 5.96823161324217 0.8007451398818274 0.8919982190615542 -0.9049120989097448
P 3.4857434879508142 3.2134010064695695 13.034122640223659 0.05850750931758956 0.12933934452848692 1.445178520411382
P 2.171078775597902 3.465070595820731 9.125197564879379 0.2839073817167756 1.0656484696922743 0.2912951895404145
Ni 2.077288349925926 4.120309787013967 11.219657260744915 1.286055002641927 1.4422564616685807 -0.5144057516847914
Ni 3.7102620012723895 2.548975916851076 11.079450323985872 0.9609246097196226 -0.547733933523276 -1.0122116900293727
Ni 7.490554926354243 7.328470950015608 12.143147789321947 -0.20191464479305224 0.8563208202646027 0.21486811962992672
Ni 2.227155266185896 7.884153115318194 0.5498591928702369 0.11926010591561396 -0.39346594407390945 1.02791778791072
Ni 7.388946321539641 5.1985346490547775 10.889266185331662 -0.6452463633491533 0.7584651481666937 0.253062371311461
Ni 0.2712446095165353 4.481692642063986 2.5677219882350157 0.01971341926852734 0.9197000558521967 -0.6757661292045652
Ni 4.953176899366042 7.4958224938616835 10.073629563536825 -0.7844299476615717 -1.3699776095985117 -2.449695155789342
Ni 4.274483170744934 0.7645717134161166 1.3450049770611263 -1.3253070061640142 0.9748278500642761 -0.05807942064123546
Ni 7.524285841094877 4.198944404418918 0.971510413282593 -0.6376194429315148 -0.14783071846445509 0.267570592229965
Ni 2.3702390341117225 9.320729670755618 6.738205817824691 0.5658242153660835 -1.6985149713198362 1.2087223901980346
Ni 5.701263898887817 4.934315311150799 6.584662693925316 0.009579159048002857 0.634156938304211 1.2552609000792059
Ni 5.0256382973061315 3.0618891305318363 1.3168225667616622 -0.4791888374640264 -0.6652739714239897 -0.3150346992491994
Ni 3.3836081263854694 1.6505229683580989 8.723635183498036 0.3165948446474676 0.6096417267716662 -0.5990163858473361
Ni 3.26159462848941 7.660475564528508 5.153825014667052 -1.039608593985087 -1.0215710197570858 1.091828470521752
Ni 3.8351680406242896 1.9245566162496268 6.4161596783048065 -0.47005010838755173 0.7795695342454767 0.10035349881909814
Ni 0.5946316684141911 6.958059299430904 3.1747527712540045 -0.5319036513592388 0.7280479693274171 -0.49543975210525004
Ni 8.832814299368945 5.733904334740947 6.939954577494362 -0.6256339884348644 1.3073645627529809 -1.389123329289027
Ni 5.277890091487063 5.816521972489245 4.295771536552202 -0.30468369503217846 -0.5129584777153037 -0.06993529153855697
Ni 8.312711318107851 3.6980356998472224 7.801834897196635 -0.38319130162077875 -0.6324242718838204 0.6427174262797125
Ni 5.976323336241321 7.9264322755752925 3.4729664022739914 0.669817110709982 0.8702415441107528 1.053712894596953
Ni 1.5864249890043864 1.3594482775126715 0.36512929692285545 0.9882911746580334 0.5811991551602572 -0.016502625640713517
Ni 9.28173118850754 0.6094400020526555 2.0363131436605815 -1.4523009903887762 -0.6150988932314956 0.7471355820864874
Ni 6.089677692462866 7.185072976308636 7.701759431767096 -0.13389971020565972 0.199988631414933 1.7732062894861396
Ni 1.5041862464627644 4.449218550447933 7.16357390780107 0.29343409026028816 -0.6057765873893051 0.7875687504008694
P 6.4165348769728805 8.781487860884152 10.727905806424314 0.34854697207403196 1.0932932279927363 0.9077086878182754
P -0.21192995111343998 2.7338860190552907 0.9140024381210852 2.1078549063115246 -0.2112572623502168 0.7162741166209405
P 7.329552187556609 5.616687095680612 8.536886053339469 0.9023353393215041 -0.99001612776894 0.2257220316252951
P 6.61370824598828 2.4900530915397625 6.6568486997395775 0.9900294975053788 -1.0519061804055174 -2.6099242479181504
P 5.492991672720772 7.498622621852481 5.835125727137019 -0.0716450751408121 1.0823732386461231 -2.8297381415891265
P 5.988438741508437 0.10771343831533049 0.03785532768549781 0.5800295603321881 -0.6986342920519903 0.5471904023149803
P 9.423955511208469 9.545848871599972 9.2235023883187 0.6525135864345278 -2.089349134197853 0.030378355181541236
P 8.035674232602432 9.318511747594592 3.698668732082765 -0.7697165527107969 -0.427274150872606 0.4524714760738401
