# total energy = -381176.3200878056 ev
CRYSTAL
PRIMVEC
9.22311947435675 0.00000000000000 0.00000000000000

0.00000000000000 9.22311947435675 0.00000000000000

0.00000000000000 0.00000000000000 13.49896763791950

PRIMCOORD
 96 1
Ni 1.0417329040554049 0.7967834510993167 4.68477657429309 0.8030280223787332 -0.6671341645611801 0.6394788647377568
Ni 2.2705014489485364 2.75853359546895 1.9149907730042255 0.14778906659324226 2.311989441574031 1.4909850372225355
Ni -0.07127165612572282 5.980206137861637 9.027650263188344 1.4539452108604185 -0.3932569133868969 0.22777120084483998
Ni 3.07002601117054 6.964663469669777 1.0171671252018477 -1.0761660813941467 1.1948176071914842 1.1744318444462805
Ni 3.4150905819413806 1.590480846405729 3.835097610408702 -0.41252707447041853 -0.1545880917929467 0.7598124062232074
Ni 4.910822321471723 4.21605395080921 5.348884528720244 -0.12156407145844224 -0.7704922545345568 -0.20899803400239492
Ni 0.28539283207110533 5.342408976502078 11.576499003203205 0.2766211324680075 -1.0767399516197456 0.12777174293105092
Ni 8.338714593313135 1.8638079935148584 6.530287743295206 -0.5163410210342915 -0.37261995386283564 0.2792338875005062
Ni 7.888266658855138 0.72898983334629 4.2678473008111 -1.3543733274023515 -0.42362961214148326 0.4862639991432529
Ni 4.225673664473282 9.23308049360577 1.929218357182749 1.853105634215944 -0.8387414166199426 0.4186915514099176
Ni 3.892516141008597 5.480921785521309 3.404520886966281 0.9382173979300938 0.8257953979822359 -0.5302388620623062
Ni 1.8125182258390065 9.025670981738381 11.124512652408518 -1.1742315555100165 -1.602646761965601 -0.17814736717012547
Ni 0.6813717895531494 8.417839735713986 8.910209515346782 -0.27060423684996626 0.6094267825473827 0.47099601724058887
Ni 2.3685432094941765 1.8609396033427328 11.66310778478625 0.1540543307766637 1.1218463570400807 -0.4217730185487188
Ni 4.23638170624125 1.0106786606163485 7.012443840366549 -0.3274523561872619 -0.8850966068457145 -0.5834059330035888
Ni 0.8642920744590356 1.4254884612316034 0.3055905415178501 1.0013675482260174 1.3907693495328821 -1.3896100391174584
Ni 4.240799580493494 6.337666581273431 10.085726535041196 0.047755670117724205 -1.6337655948575929 -0.7621793637934874
Ni 1.1909906473207006 4.795837690359541 6.517625322499994 -1.1977476363540858 -0.3422994485024234 1.6674416469537994
Ni -0.3599940343451796 8.699523029112331 6.607933497324324 0.13290109373781628 0.5332750777854686 -1.4750058881854595
Ni 6.374817306718194 5.120869645523125 1.3466206438654866 0.028457484009744537 -0.3589550547812334 -0.9816986090421803
Ni 3.8831638978107343 7.950163013984188 11.788824437777164 -0.017975096421181946 -0.05737519548535926 0.8277473795022842
Ni 2.9357189446544907 8.149244048920936 3.6461112797915396 -0.024819887257157253 -0.26213707991921953 0.09866145582865589
Ni 2.2486057631973275 7.1210783536861 8.001917626884074 0.40542131666357273 -1.4114667299812336 -0.1658433529917918
Ni 7.769804911682213 4.572066364455654 7.876215730884401 -0.08307131469988274 -0.7537266050404438 0.1479937264048806
P 1.9724563415136955 4.996228408268772 2.100587607196127 1.244917609171669 0.21854299737835267 -0.04496859429089029
Ni 5.1508263377387635 8.85617771423629 4.552161950209789 -0.49832530118316115 -0.702386560005571 -0.47024037002148694
P 9.423722374177585 8.868675041192015 2.976198293935653 -1.353614851969772 0.8315886076252453 1.7908096043901998
Ni 7.619099138651568 7.86912868584176 8.31284005379905 -1.152490564288499 -0.9082607036670034 0.9515763357355029
P 5.479178615931175 7.118717235087822 2.7553820555274218 -1.1218139611402487 -0.04987245935041088 0.3407655283564002
P 5.126412740357361 1.3963249572950736 8.994565088829988 -0.10946883085680502 -1.0493846995352443 0.8767271518350965
P 8.951738455629835 2.463864149780083 8.52331533059639 -0.060555650095869905 0.521231002136741 0.1001095011290921
Ni 4.071167966198535 4.690795582094791 1.0796537599804659 -0.5511331890128122 -0.16746160532150517 -0.7086708503523859
Ni 8.40225266371755 3.944110271628758 10.293421963613847 -1.339888760632931 -1.839243788632187 -0.7593298101598343
Ni 3.39025272106185 5.56455703336965 6.518300454849189 0.8700525680283984 0.41856505313438236 -0.44851994762525976
Ni 8.620997389480573 7.475052457917625 10.643598909537127 0.2166439805834269 0.08354825433630128 1.4259278997118863
Ni 6.252472626225446 6.1362797664555515 6.15400383524582 0.5849645357399603 0.34177957144321136 -0.28485946121739975
Ni 6.133411376283426 0.11916731581655149 13.271725895736948 -0.24803997839620506 0.9337439355397725 -0.43242329917371336
Ni 7.979547872789306 1.3111863409642361 0.948781383175347 -2.290019879281475 0.6062794951676527 -0.2258827255728755
Ni 1.8905919326140623 5.246055046829426 4.387164953475901 -0.18110773535003005 -2.1371289726852933 -0.8594236275596425
Ni 5.3868459663712125 7.192382290730158 0.3628080081121104 -1.3302856903255285 -0.7381632033845481 0.25114844211819976
Ni 1.540021159487084 2.2928767369150203 6.932353959663433 0.10570576426994699 0.5485482018944553 -1.0065184962993377
Ni 5.493972499648504 8.20435218807994 9.7461331187723 0.7035240160441238 0.8070070616311392 -0.9013562632376864
Ni 2.2672364646368566 3.70097039472338 13.285319851604136 0.17766117156232628 -0.17162627822215604 -1.0028171361883504
Ni 5.792921472796747 2.7265293707188683 0.6001788237549012 0.5840098851361748 -0.02592520450619406 -0.3317846650140286
Ni 3.7578770421896643 2.928128317285811 8.312974711344108 -1.3535279486829206 0.8989288847431163 0.18579974150906067
Ni 7.218271587235483 7.657347415319749 4.47116820379327 0.2350080849129114 -0.405269878687373 -0.1263838614445888
Ni 1.4464802812694093 7.145298265557487 5.415219048964492 -1.3991876555035645 0.9213355345730907 0.9474368596458329
Ni 1.973120406119461 0.5537477954445661 2.1017755449908853 0.28630133587024886 -1.756983399869374 0.48405490730707607
Ni 0.9760089543236804 7.002837961381762 12.797480468281785 1.1869266344791816 1.9615583651034085 -1.0881890739969518
Ni 4.73609954519923 7.557525592705876 7.639146511250063 -0.26185991499843286 -0.10305958489635153 -1.019291993914922
Ni 7.5870672445429115 6.913475156308695 13.240516703889877 0.9045187201260679 0.09043161171969587 -0.5088187445153172
Ni 6.323066383066117 5.365743468899113 3.611932243457576 0.3235365660726235 -0.5710098733320811 2.2905844935356936
Ni 4.832702499099045 3.2112688635690283 2.8664514724014456 0.4085727178083609 0.29367808795029426 0.31318093386991225
Ni 0.2421161106381559 3.06351448878623 4.7128941764755385 1.1783823444535966 0.1103203802238229 1.6654675539465638
Ni 7.986972484006544 6.540252401629497 2.4063128062590358 -0.5201894482461041 0.5873867720282078 -0.7840843913966948
Ni 7.0620965043267985 -0.14144114946826558 11.108800145986546 -0.43111820720904465 -0.20271400076589605 -0.18154533710808088
P 8.868426016964852 6.569987738976548 7.018585515657926 0.0583298460891447 -0.5536415572569626 -1.3666881402139623
Ni 6.856245699659053 5.745127267420689 9.912561543656395 -0.07757198214820835 0.2453369776427452 0.006046977525028295
P 4.499148381494805 3.0251278653251803 12.339797918868753 -0.18293604680802045 -0.6336015800213733 -0.17771285073586812
Ni 1.929448935170862 6.34227814103569 10.385619955628751 0.24897328884375186 0.6748945252328893 -0.37836919764178706
P 8.058894370058745 3.679240725123613 1.4222243992318762 -0.4491095015801427 -0.7931956096693437 -0.127355995549871
P 3.4631707040226996 7.723135926888145 5.68293023859514 1.0711909967770583 0.6279693214362605 1.4067451561358482
P 5.996816976125296 1.374539948978159 2.4769665133766154 -0.05861266743688615 -0.020632331538370918 0.39335307264512903
Ni 0.04626777909475102 1.8547877826198784 2.75315467216225 0.8435601781648246 1.034393882553367 -0.8915343920512581
Ni 5.939135586618952 3.4215006500109215 9.722334703463185 -0.1697480873628367 -0.20113842874866003 1.1956966673623277
Ni 8.717102294926065 9.202063142644812 12.568119009634087 0.34085346008451617 -0.4288183554312744 -0.17604549033577424
Ni 5.572479693041212 1.886819676728534 5.0331033624397525 0.742753908079024 0.29735527969156533 0.06333964059891027
Ni 5.384198931067675 5.190292066184182 12.317240935447636 0.04536145885393478 -0.9588448443724583 0.0058544018982479825
Ni 5.422548662050626 5.090064426311231 8.01985843898317 -1.3254674430012785 -0.06906214490498429 0.31172826058378567
Ni 7.324807840863206 3.020645429236264 3.596300900487421 -0.9648640539833448 -0.011390758335444898 -1.491052400125361
Ni 8.893927942450148 1.423238020067621 10.622311027362585 1.9432107158341565 0.29853670159417617 0.2951243334785175
Ni 0.9219771532131891 6.920798313211163 2.9237012199140415 1.3584305281908606 -1.0053404168308364 0.618896926821347
Ni 6.393586354950591 9.11767159899546 6.609823314514898 0.5268946281804217 0.5199385085775625 -0.1152674398164531
Ni 7.732008567870732 4.404482282695138 12.869267696788928 -0.373880308632498 -1.0449734578414263 -0.5536407859260142
Ni 5.946145157457587 2.7764910091831894 7.449621550452668 1.148465759399822 -0.3990493516989579 -1.4634390092834666
Ni 3.3208671928788913 4.04768590388911 10.808596828582969 0.8311461207711879 0.5927333810521017 0.19592705975104965
Ni 3.3992544857177807 9.105174272039738 9.280608150827572 0.1888480414170812 -0.45424450881386286 -0.2869065735544155
Ni 2.0025052649245794 9.144999702146613 6.777656420502575 0.6920568959447887 -0.06819002671267611 0.3244770756090218
Ni 3.492297315481131 1.5370051994025662 0.3924963075495856 1.0469490935105583 0.27631902784655643 -1.4232439251218199
Ni 7.29450989322516 1.0606218528416205 9.015460988424739 -0.7447259442037304 -0.2184059575798561 -1.0323699101448027
Ni 4.77630312320661 0.7999718835189429 11.28917300527976 -0.04623743370098488 1.8082632810902728 -0.4299236726803112
Ni 0.4941203277185489 5.102506414549807 0.4799609946245069 -0.5193726087717636 0.3761279670160942 1.4318589204843406
Ni 8.564247535046206 5.57482236540044 4.94361881218896 0.36613897412418234 1.962448481017846 0.8097319167614699
Ni 1.4480851040666758 3.580617908047928 9.458672463303799 -0.29466513445391185 0.5139110714365601 -0.11649591290691548
Ni 0.2568094623526676 8.16401026327969 1.0077383301119316 -0.7103847477196992 0.8162776882997879 0.32574642923974867
Ni 7.419381708467626 3.858621176755989 5.725060526271193 -1.6784498251388447 -0.2910216241640536 0.13373413116207292
Ni 6.989196967604998 2.0863803138805577 11.793940502177415 -0.7476935114724865 0.916269432904093 0.7670325781207306
Ni -0.055171778683721945 4.590521826624217 3.02992388747793 0.438476961566961 -0.6026719803220524 -1.9527022002643595
P 0.4769588692192759 3.037099474468006 12.14603401233789 -0.6678669289621466 0.27182833906505444 -0.6607722268988941
Ni 6.711175252657889 8.557985036889058 1.855554223852366 1.112803273001206 0.8033506958254746 0.8072006656991839
P 6.13094880337038 7.019338122211127 11.450836766617488 0.0742989678238914 0.8430127903017869 1.0525818663163031
Ni 1.638487183530852 1.2896226875159098 8.942229419400055 -0.24064008638770815 0.07482552975132276 1.0517326309421307
P 2.3048391229383216 9.020395357370356 13.335144065587542 -0.08763013771515876 -1.3795611395218885 -0.21139918724471976
P 2.5402961412797747 3.18821106475773 5.229891529862705 0.3983744371191204 0.14940089116505237 -0.3947021304738557
P 2.9168299958682744 4.93112240754519 8.609506304864974 0.38868986284150475 1.4645463834150325 0.585839739256062
Ni 3.070256589158653 5.857584763783153 12.568983215933534 0.000160951057896497 -0.7631882646739759 -1.091886834563513
