# total energy = -340889.9853819215 ev
CRYSTAL
PRIMVEC
9.10087639002179 0.00000000000000 0.00000000000000
0.00000000000000 9.10087639002179 0.00000000000000
0.00000000000000 0.00000000000000 13.32005252748436
PRIMCOORD
 96 1
Ni 6.515417534656808 2.2056611051468966 11.61632498200345 0.9084473657565129 0.5879020211017295 -1.666407806372646
Ni 4.642184142296011 0.5907387981415664 6.18384803451658 0.5565386762990996 -0.34042125764310405 -0.9159698993858032
Ni 2.9224097280335846 1.7071970030578272 4.534492561597646 0.3334584531720257 0.1371940646862153 0.7140693956601379
Ni 3.5069499192493536 4.509375052781746 4.745535515032384 0.4398962105119908 -0.05585361663451026 -0.980892053980485
Ni 4.403140522397314 3.0472464498089 2.3495641630102253 -1.6696293986337374 -1.09744710226011 0.8238914960913036
Ni 5.691997539317802 4.923965477836385 2.4579091866351392 -0.025488116968775457 0.06731533741720665 0.19945744150181133
Ni 5.753637775272034 3.097283068334866 0.33388021266182594 -0.26130095717116936 0.6089611557648738 0.5128425209627296
Ni 6.094738623280986 7.939813904015858 12.296659178181136 -0.45406967379889535 1.3843343925408158 -0.036852907162291365
Ni 2.057626249391464 6.716537802537007 0.48378984895861 0.6208957024189307 1.0382034861074443 -2.0020128735740292
Ni 0.776259253759968 0.3927273896445017 13.172279980457436 -0.2532382347676929 -1.7243643282827723 1.0941648319644126
Ni 8.198524517845915 8.994559976054212 6.757635540248822 -1.215457652039339 0.9821518945295149 -0.11228187482556791
Ni -0.009229198771768376 2.461122706097038 1.284042653297308 -0.11721865000555297 0.4528522564520266 -0.11224150850593571
Ni 6.874902153022701 1.1126731504155425 4.756178079911297 0.5988412937220526 -1.776838229811772 0.016649692741539067
Ni 0.708370356059659 7.621001102345591 2.330822728210203 1.4411334038077308 -0.2500510952889629 0.4281683805521013
Ni 7.833160733316367 4.337505001697193 3.7798579002857586 1.1204196518958833 -0.8119561781062985 -0.22153858967156684
Ni 8.070138454269012 4.371824406655618 12.58426598471432 -1.6198284159512102 0.29057708042746727 -0.42897313584158375
Ni 8.105085819700024 7.256784028244249 8.727351873916101 -0.02807644652124197 0.6238547850472546 0.7628038847513636
Ni 7.311826128798096 1.1018340066060797 0.4533774502448555 -1.3272227351294885 -0.32908320692246545 -1.074177590209208
Ni 2.1860305147211947 6.686914449808375 9.206487534676425 0.1676356690055242 1.1632560303351192 -0.9454799930297781
Ni 0.55892759472293 4.833520968030809 1.1404872489130067 -0.7517411991792989 0.6109195650428252 0.15278857669036267
Ni 6.782928695979518 2.240517461813767 6.890823226221922 -1.4831909950994133 -0.39176618777398337 1.5085567275577116
Ni 3.9678820070057412 4.798154962284737 0.5848878446947959 0.2707911560497917 0.8243326973937802 0.3513816133093497
Ni 6.339433887432979 5.924989076400971 4.675338635073402 -1.351541514380511 -0.5078594659258414 -0.017442878066795765
Ni 5.266358650296171 3.4050019016560693 9.465482095850607 0.7171742598377068 -2.2511386288352457 -0.612886458961209
P 0.6620678271264907 5.992462974136786 12.184558222860028 0.16110249587269673 -0.5958611280478061 0.27364868010324483
P 4.307672328811031 6.528459090558538 12.59954453603869 -0.46428672354121325 -0.45547606722811884 -0.384831408327363
P 2.5216890386343804 8.834138827498881 1.2931735626038017 -0.21132411103241025 -1.663737715739651 0.19318189290574472
P 6.427994515820789 8.033989773151307 5.704272801425445 0.7106737397150277 0.059106576354169174 -0.11574180834971036
P 4.698008918221489 1.4728585362653375 12.540776536680818 -0.2933135055220239 -0.215408565514429 0.4770828468646171
P 4.145139776927576 6.35510559661845 7.907782459387994 -0.5268874290915699 1.0008415005192182 0.9744036180426638
P 4.87734168796579 1.186808889686645 3.6809432048013693 1.1051200454243355 0.6598612850488507 -0.6553065757986326
P 0.45949141901999996 5.694509381208155 3.4907330675666652 -0.05784467892261006 -0.1539697414826574 -0.5617572443855616
Ni 0.6341872922312018 9.020970719408588 4.557482285507876 0.4214804270089645 1.045019223477697 -0.004753712634901491
Ni 2.095877232960878 6.71885852602266 4.368098507851593 0.20343108143757865 1.0176027791379572 1.7945585299096705
Ni 5.937775807763099 5.6402408551495276 9.10256462690123 0.5931897518632301 1.6818076858674842 -0.06668258892921419
Ni 8.883329064518316 2.4944501155263015 10.154594997417552 -0.0002493970066447318 0.3201218839641196 0.16693272940122864
Ni 2.4412463920081495 5.596538446607932 6.565014580851963 0.085803111808749 -0.23511478569410477 1.8591305002537852
Ni 0.7310451896459532 8.968385855486611 8.976330010508676 0.7006862894850125 0.21593229922838297 0.1779499064473387
Ni 1.8780386551075618 1.4436447229753495 11.256722962331814 0.08132039344704704 -1.0779118604406597 0.3195757816526625
Ni 4.410612341933477 7.402962305211159 1.399245187300417 0.022670702124638377 -0.446772883027166 -0.2583141066287035
Ni 5.876663422640897 8.195484825123529 7.851172277827961 -0.6265822112807466 -0.42695610541155504 0.4512962248188163
Ni 5.477844816412287 3.0533986422649844 4.835139103857276 -1.065195441315256 0.4067696031613511 -0.296194940834877
Ni 0.9071435079126028 7.683933662750658 6.831375391395902 1.4133456921715013 -0.9615442455814924 -0.416072882840148
Ni 5.057038492766664 4.686514511310194 7.0191346626122275 0.8212278332162114 -0.562640161211147 -1.1606371046550332
Ni 0.9744126359290961 7.975698659717547 11.19930007250798 0.617641200037375 -0.897540489036022 0.44059143680680246
Ni 4.957738830209949 0.4335120572076639 10.655242399758418 0.12371042837748371 1.2866440423761776 -1.3453880931846056
Ni 8.46554423184225 7.121372088075487 4.8012529006161735 -0.2971771022424882 0.0891098075844788 -0.36104253343788145
Ni 7.410698050163337 6.154212850648609 6.808904417441289 -0.3850522660889175 -0.2563520978063263 0.304758771244488
Ni 2.4948323523357034 5.563529567853171 2.399008314481619 0.8538682449590521 -0.9015681221381763 0.6479704471485356
Ni 2.710686939130696 5.669846006125331 11.254392227882105 -0.5357631343146451 -0.5772414560640898 1.22728832612568
Ni 1.5090527217651133 3.4180525584342134 3.253262989200006 -0.824377948809419 1.3057445106510543 1.763237865419518
Ni 1.539941096315337 1.1882923325421801 2.595132201210353 -0.13145716220243814 -0.9441535609088708 -0.4421672659343546
Ni 1.1153579089577688 3.4870645042840507 8.005511310675598 0.19531282320581847 0.8886838099763404 -0.3612045129370425
Ni 3.7858644787192137 2.660158873278356 7.021398960664111 -0.1664169661070747 0.8803961160462515 -0.41790582228382867
Ni 4.346778794763392 6.997409050435947 5.7248517031735195 -0.170640517270119 0.8899009702128933 -0.17541171340651726
Ni 8.56706450824406 7.269543456977135 0.18763003877124257 -0.2343336845537061 0.6269874171389653 -0.05110324643371844
P 0.4963172053429302 5.8973861182363185 8.013303481061543 0.18300983746874933 -1.3351905838263134 -1.2207358697191426
P 8.95029331317493 1.5928444909118162 8.09155918708541 -0.30594944911847954 0.9620216994385432 -0.687502443804887
P 2.175801129631492 3.3689351284260938 10.43979098178858 -0.2200437502935952 0.7563270187777684 -0.9569257729728745
P 4.377512454414571 6.303940469417107 3.4563008117407032 -0.8379430890883635 0.5217938166187465 0.6537037500878872
P 7.086715950689732 4.307781539328003 10.575668886829755 1.148155941468887 -0.44083543449680856 -1.311438475712038
P 6.551384198246226 8.033725847735292 10.027961762638048 -0.3357595905013766 -0.422545377938369 0.22525794750468303
P 2.603806246520847 8.67205221855973 5.54007660933345 0.1535820191259355 -0.4934060095046728 0.326824749905592
P 7.376014610148339 4.204204464856554 1.3379726267533234 0.9983824974557645 -0.08783762574027452 0.3364278202129948
Ni 2.7343765204371877 1.6383852764891054 0.38161976998081637 0.9020563746285046 -0.14998813112709009 -0.7970324669169305
Ni 1.747431977685564 1.1506784103217693 6.78390248975585 -0.7302701737897165 -0.07956201599504363 -0.7466059348352626
Ni 7.118696430409675 0.9539629666261048 9.07461856569576 -0.9342010776818492 0.2954174392389041 -0.18318338693213612
Ni 2.4796338887237783 1.8048039026014773 8.870915469089175 1.2499173763791054 -0.8933372495879518 1.7280741730341915
Ni 6.858584281611813 2.379715366570889 2.7158525965834674 0.177300702899114 -0.2480173526883858 -0.9070389154447606
Ni 4.419977143763818 7.241121419935194 10.43305087271613 0.31847406394805156 -0.6199839892379387 -0.9081866558959585
Ni 7.828228058299802 6.594349435798261 11.213673086629125 -0.3701128711702658 -0.6168467291605376 -0.3513834130815626
Ni 7.9107275029956705 4.105587368030914 8.406085475964531 -0.9824462858414822 0.09988735781595699 -0.22433080770472333
Ni 3.350587761574812 8.510038416631891 12.306969561070925 -0.2294655578281274 0.6817508860330904 0.9080745557981263
Ni 0.41598012888310554 5.108913488328325 10.030718418103948 0.05662726157574118 -0.6825913796565147 0.9065383216592581
Ni 8.89692577388132 2.57505657792799 6.043281357946744 0.6025868768074139 -0.10445543680261365 -0.9581817568671627
Ni 3.5890944297650633 3.3504148449229403 12.13904382982434 -0.44970419774134807 -0.9997354119392331 -0.4655769031075465
Ni 1.0177510094141184 3.6292019921229994 12.236066453102193 1.6995907208825183 -0.5649945203759367 0.41305826438354015
Ni 3.3052562961550525 8.486321532696156 7.853742365327367 0.0032411326451169988 -0.10905514035815411 0.3435430911015374
Ni 6.158335547664299 7.965387366740115 3.422680354090898 -0.8673102293965709 0.800790391297466 -0.19360483937577627
Ni 3.420482492436838 8.583309572643634 3.370839031771971 0.34280801270772576 -0.21911146828731295 0.3705982954471166
Ni 3.2688072861156754 4.513934591865324 9.033806595503354 0.09558410245491279 0.17809800198942874 -0.8537276056161297
Ni 5.205683107241857 4.84740890543907 11.335125192465954 -0.5247906944635413 0.8131651108127349 0.9685062787216223
Ni 8.17062123075959 0.0483438555129017 2.2038027061830916 0.3351057589674616 0.5058725174027998 1.8387015429754723
Ni 5.074202745684084 0.7323775579530105 1.3523319895598473 -0.5572812108920789 0.08289493702301853 0.3352659386944097
Ni 6.28564770782431 5.934417584366212 0.05804720994585647 0.31289142765395145 -0.8252408110303465 1.280732304877433
Ni 8.08603768536484 0.1656159288126285 11.048770666527382 0.411881984687252 -0.46588363571468794 0.8348837334367492
Ni 0.27293528366564795 4.954453413824377 5.794396050293594 -0.13799444910032366 0.10290943247173244 -0.22431075310006532
Ni 7.6915328945566195 6.373844301155547 2.282111197290163 0.05669693847141203 -0.384567356032699 0.16478277293776136
P 8.925629938092104 1.9343457774829993 3.8910533184036398 -0.8687227934733813 -0.5127900704582394 -1.0944173142948508
P 2.3946408038903844 3.449559792580611 1.3331910262852362 -0.5167822223367681 1.100351934611731 -0.34542436728465026
P 5.089901757498797 1.4638759712443972 8.281502668641176 -0.01717471200707365 -0.45479858154511993 0.10617961858257197
P 8.637832923241861 1.8361746236016605 12.3222745049369 0.529608941787791 1.769949987332371 -0.47026556683246756
P 6.565690775969548 8.132424852448661 1.1810371138646791 0.6447928207515025 -0.5651554714338332 -0.3681930284397336
P 1.9868942378993197 3.329373618653017 5.856520452873069 -0.16627992630857813 0.3595335529925227 -0.11516896656537585
P 7.0358147489044045 4.100627390385106 5.857626209357409 0.85872711571325 1.0072106372703558 0.9118257953104424
P 2.791357107667285 8.831581481226456 10.115980888879205 -0.7656984326903394 0.0005975243746828419 -0.7044537269472448
