# total energy = -381169.8917198699 ev
CRYSTAL
PRIMVEC
9.23803227345466 0.00000000000000 0.00000000000000
0.00000000000000 9.23803227345466 0.00000000000000
0.00000000000000 0.00000000000000 13.52079402680957
PRIMCOORD
 96 1
Ni 3.824222027585792 2.14176387694502 6.446539105050143 0.24134225466105533 -0.06858957614393993 0.3519963640752131
Ni 6.3928846136409225 1.3817879144327958 5.420959553013873 -0.7592087112009376 -1.115822262333188 -0.6917884727747504
Ni 2.1805728505004844 3.960011863884714 7.385625732376166 -0.3756739101978111 -0.3913368135460486 1.2896272933742177
Ni 4.416250563476177 2.9936859746149533 1.4035804325516583 -0.7329281802378539 0.3626895821230012 0.04865607044480653
Ni 5.658996854251915 -0.07758746160444673 12.101665223782005 -1.3744623848427426 0.6312719034469322 -1.4643926314459876
Ni 3.7884246525495087 8.376733567006529 10.305265183154779 -0.11900273848916923 1.2551829956534188 -0.8418326539507567
Ni 8.857591622590686 8.874257032801127 2.889488361064181 -0.9744247010885865 -0.8734158280736766 2.3587619218428797
Ni 9.067590572093858 4.14359927913531 2.3171802526550747 -1.43054662943082 1.762512042997087 0.531658111007336
Ni 6.952450704143565 2.3991724080446306 11.551205985488595 -1.685618574973142 -0.5840944744301811 -0.9441129374789224
Ni 1.9706662813199878 7.1326200474552115 10.97811449194321 -0.7523286962516528 -1.6834143682329719 -1.5994290263592519
Ni 3.7566920117108937 5.847655949217327 8.483662866698781 0.06954602651993828 -0.6640598965112307 -1.6037965592993282
Ni 7.5011713447642485 8.034021045949489 7.9309458533192085 -0.7260404519790851 -0.5249231062763475 1.5530468395502866
Ni 4.011421513452951 8.714143457542066 2.5913548885168405 -1.386295887142561 -0.3208639043364668 -0.8788251720147058
Ni 7.2455180397954475 0.6143827263711066 9.726237330074346 -0.7504595042533978 -0.47760040993098396 0.11164218435904
Ni 9.005704993934359 4.272220402394708 4.903262072353667 0.8171531489262055 0.7426814029698757 -0.5615777813849038
Ni 6.247810554913234 5.922410106325354 8.579997990986746 -0.47463824197886645 1.0903680839261416 -1.569837171634748
Ni 3.0625832192654308 4.747775827457361 11.229993136927538 0.7275142083111342 1.423658386951419 0.14290577035901195
Ni 7.986648416482119 6.356274291765105 2.030566606345217 0.12988801794310534 0.5894799071118105 -0.2384453927292345
Ni 0.431480773114755 2.2313912660036053 3.3541576889028972 0.4512430029833777 -1.231169149237325 1.569499328679355
Ni 1.8741842723189706 1.3523555436287706 1.1105657536837 2.751006077694546 0.08921008060776893 0.8112059302038351
Ni 0.579628325177816 1.7631431244644873 12.329652469716311 -1.036475447672744 0.9664193142856066 0.6609529754511327
Ni 6.146700291746236 7.123576013865399 13.258653013412758 -0.9243491245884338 0.1642299857580849 0.9449639726253082
Ni 2.4171588568693134 3.817201123062546 5.035387181252101 0.9865443671702557 0.2331275800607469 -1.5431455212761747
Ni 1.4982148350991897 6.136076554638694 8.453903469552488 0.46918596061504353 0.8136826738791019 0.4340716334104137
P 7.273204422500929 8.356825607470222 5.911385438617406 -0.5805563793699356 -0.02425758699578403 -0.8334295174887258
Ni 1.3962269588667857 9.06276831925026 11.946189140721195 -0.6733076403617436 -0.8721207634113368 0.20543962722717524
P 2.9263499574176715 2.160313845738015 3.2346064657236595 -0.11070296037422225 0.7613920920055016 -0.2717856587525771
Ni 5.435639710090043 3.9183483383586144 7.520996162010149 -0.2116185023443775 -0.3756687679914885 -0.18447845159447585
P 8.737580345404531 3.635673789007588 12.938940421291932 -0.18284245865294962 0.09601321957253142 0.47145547337551064
P 4.273596869202555 6.2677554665786115 10.357793558430599 1.8243995245305031 0.15553502908724826 1.3548024445199698
P 4.7071100094161435 1.845001328386166 10.981886380518 0.02511916366513093 -0.15833444620925635 -0.11010440755827489
Ni 5.772587699012208 4.984638974794213 4.700152847315544 -0.08704983973165653 -1.19621320198743 1.1183008057806676
Ni 5.902031007143409 4.358799240805042 10.171341429373877 -0.6445102565140771 -0.46502488725881846 0.7691475675812044
Ni 3.1209306310665053 6.969929061193539 6.358342687189783 -0.5063098620505345 0.7809075363306098 0.4495915834228838
Ni 5.380821226615126 1.033042958305125 0.5678175009239095 -0.10551884507012149 -0.9342694690259394 0.8962760205013016
Ni 0.39506629752300776 8.010307017119002 6.990683224485542 0.6645180670945717 -0.9612262001204414 0.5587464825836957
Ni 4.783037396622134 3.0361532089483196 4.30137008941135 -0.2694205009545102 -0.93314306873098 0.7255653121148794
Ni 6.059807360238809 7.724251347958097 10.31712312137325 0.10652671750934557 -0.640575183125729 -0.5346688728092018
Ni 5.420600193558671 6.931831416122666 5.896674796034754 0.743665878370332 0.5299059042029196 -0.5843199601774259
Ni 6.410159733981012 8.733838942336222 3.863837481358203 -0.17684253231577285 -1.0034797094730137 -0.11283363356397987
Ni 7.185295307444085 2.8205929640201566 8.722061374998479 0.3884731188450084 0.48659669989232324 1.5824656590320358
Ni 1.7913006468156074 0.25163753234214886 3.789188637818025 1.7094935818185268 2.548593924439785 -0.6791700126797916
Ni 0.10746602936698878 1.721405694680248 10.08626931402636 -1.3351713005526038 -0.4945568352796644 -0.471856051248039
Ni 1.0095414042167887 2.226892344289368 5.895417499843156 -0.6933766431974768 0.4393912458511143 0.41175188686729086
Ni 2.405463508018749 1.177682829516244 10.538349975294253 0.8144210947070232 1.3604573288129023 -0.9790724842732429
Ni 5.058164473610672 1.1829577459409453 3.067314015589581 -0.04042159835015619 2.32916981000806 0.31956703990191415
Ni 7.843320345852975 6.206645883129576 10.181779482032843 0.009421550424216033 1.063260171965756 0.4630327965294541
Ni 0.5822916498805156 5.299600446919899 0.3842430189184892 -0.5146939723491716 -0.20140608058774992 0.5566752018769638
Ni 9.00795907380761 2.031738912639953 1.1733816016925294 -1.2679909460513645 2.156103199794951 -1.4676149950380273
Ni 3.8293306594296794 6.9916291989897275 12.336156044432581 1.1380839019448659 0.302413410940763 1.3684724858078947
Ni 8.61176758395443 5.743728086208764 8.097265538655527 0.07581746135094684 -0.8817528871844621 -0.008771832655359087
Ni 8.366895062641719 3.9272907535934847 10.798585344267696 -0.17940849327073619 -0.8136957865052244 -1.7985797352539217
Ni 1.2030412280903335 5.655828209184187 6.032289109720595 -0.7584720901452292 0.9484179926121795 0.19750443154049854
Ni 1.5847567213804545 7.5228807205927035 2.3140836642390323 0.06833195160717909 -0.10027199484888538 -1.1408691779994868
Ni 6.441670662045209 3.963864123340232 2.439516742562942 0.13180194713636656 0.14364239141472035 0.8606690699309695
Ni 3.9792916372268365 8.890248066656044 5.019946734120322 0.6575732603456222 0.6739218769069749 0.2087650920559824
P 3.9352077472466704 4.942753736493694 6.399365093276523 0.08047115807287432 -0.054733644097454126 -1.4307312346378007
Ni 8.476541267623821 7.221434489674264 13.13173353569702 -0.2198331769446859 0.6384262551035264 -0.38527929449805903
P 7.020932237342008 8.288547310981663 1.3656952622229366 0.7468188221770171 0.7537278905920246 0.5185133460952619
Ni 8.63558323113986 1.114901162226804 7.624375285902026 -0.40995185754407465 -0.5625812829487536 0.04978118518818524
P 2.28011264818202 8.788528093359396 8.544695774479996 0.709492832033049 -0.29467207643244736 -0.1384356504028003
P 5.50400114886901 5.254260184551364 0.9365960538267244 -0.39280774166462024 -0.12293241256087861 -0.5216295231267404
P 7.651972983497741 2.9890022922553676 4.038160997851021 -1.2412193343844753 -1.2541820651927302 -0.2638049545399457
Ni 0.2535682810860413 9.147739740046063 0.9084015793465344 0.14862878888571823 -2.2874302641774285 -2.8736289294348056
Ni 2.141560640235136 0.29164745009237913 6.423972439827271 0.5736177432685734 -1.190684044639085 -0.32246261628215434
Ni 7.162227940872318 1.168878984765385 2.26377334051062 0.3170064782635895 0.4849751051285003 -0.10445286569945236
Ni 1.4563111207341368 3.6551937511886634 10.065866195960517 -0.9444746916937152 0.19888897059285102 -0.31364836042463407
Ni 6.888486568723895 5.1632009004913275 12.313144106054418 0.2706345758672694 -0.896572725806114 0.47653597322221153
Ni 3.4152266250099563 6.921253869176462 3.8521421325076393 -0.8718919352299823 -0.3937572500620832 1.2181035743026183
Ni 3.3759280357443178 1.2954862169904844 12.784464817125684 0.12064438785765028 0.25813721473120704 -0.5514702606372567
Ni 3.8939045049790004 6.812051089743196 1.4733072524997508 0.23396447413974544 -0.7312039984578955 -1.312623497159075
Ni 1.91240201180932 3.7009589630415007 1.6017269866557196 1.2399731206821998 -0.7073775854622592 1.0445466547166526
Ni 4.853061681209237 3.5286049950280987 12.405355372738203 -0.1880545989815084 -0.2741284479531408 0.1747267715243507
Ni 1.8640778650184044 3.5696310963277464 12.711047403286754 -0.6161306769301196 -0.794574235184425 -0.1176613939699264
Ni 7.607066908645774 0.7050503178630044 12.940725209125999 1.2505573239559495 -1.1140245470028167 1.0244282867002228
Ni 7.674735495004683 6.726285198172395 4.467202930447175 0.8780445850949394 -0.041855502583205334 0.10881525643320615
Ni 3.6207358908311575 3.3873370055945915 9.376143621235629 1.1067596379102873 -0.3683105278542044 -0.3218365526623812
Ni 1.620886665578365 7.282895118349461 13.26564343242952 0.3213292740086595 -1.2030502795139215 1.247297165147439
Ni 1.6004151860737448 1.6538202506117452 8.24972632798425 1.3728289630043777 0.7327255773087445 0.2478314619298248
Ni 8.955265337754202 0.32932938371121756 5.319404940494811 -0.46218201849338464 0.5743373950434174 -0.8652402342414195
Ni 5.054921924284804 8.340289529711526 7.732501834576136 -0.08008317860583627 0.26199078414934235 0.4066245929430546
Ni 5.636991861390902 6.423647261091457 3.109579860819517 0.33817025682539825 1.3369936984733233 -1.8777717695040563
Ni 7.336133898306649 5.367499984085495 6.332747794989646 -0.04679844841077747 0.04004955972271812 0.5297282409744748
Ni 0.38574604676839974 8.322848124790623 9.514609715482425 -0.9272876383914676 0.05066795866851274 0.3721450711089462
Ni 0.23850382186754662 5.623993949990631 11.539118944069891 2.382158703500265 0.8095318849355219 1.3845331388151834
Ni 4.248857418790382 1.0921756028489311 8.860865581226264 -0.6817328883109615 0.08577945765966517 0.4644628441077614
Ni 1.0387243481495934 7.709054784878178 4.674611535702559 -0.558934944445418 -2.076730159882262 0.8826653716964025
Ni 7.5728399990949535 2.992217127484433 6.424783539060351 1.0599761018978455 1.0717044460783671 -0.20988789280651593
P 5.844524256278669 1.5574029078366005 7.5748224808195435 0.13994694484100414 0.06965247019081552 -0.9205292366217114
Ni 6.8103974819673265 2.9002340401976525 0.33924086853094093 0.3508897612745957 0.6334755959664703 0.15269473142497572
P 8.009050644730632 8.449843354370953 11.240025639969966 0.14196217549882004 -0.22478357897142576 0.17027593484184866
Ni 3.76870145365855 4.758251756048624 3.146558780182804 -0.6184307858182059 -0.08493999247750532 -1.2605465739581774
P 1.1733317163182855 5.805789186981344 3.5137705628130633 -0.31520182095468297 -1.261897174448801 0.7068566799617827
P 3.105050453598797 8.663288089909875 0.4159377838248076 0.4203483702870503 0.5306692647315054 0.511809451712525
P 0.05365449140922125 3.3516966771068546 8.32901173991945 0.209920031596032 0.3606409271240886 -0.21958635104120244
Ni 3.2297176990477365 5.033397309101697 0.17800117713848104 1.000469204781464 0.13909745235651527 0.10637193709903615
