# total energy = -340888.35148172436 ev
CRYSTAL
PRIMVEC
9.07184958569465 0.00000000000000 0.00000000000000
0.00000000000000 9.07184958569465 0.00000000000000
0.00000000000000 0.00000000000000 13.27756886527650
PRIMCOORD
 96 1
Ni 6.664244113997101 1.9016138676104777 11.149320219064418 -0.4933268195273053 0.5431619978818775 2.182033546507468
Ni 4.514778247374205 0.5264249090257367 5.825281290591349 -0.18157644745633245 -0.6113342839827407 -0.6033420098058835
Ni 2.6562738083829953 1.8444612160319034 4.611192956217369 0.366428223229827 0.5677420012140867 0.422079494045544
Ni 3.4369608852474065 4.417537093045517 4.553820765881938 -0.4721429863608385 0.36819508532226264 0.05359413117637222
Ni 3.655220511331362 2.9514717897110603 2.515076821880709 -0.025477832556130314 -0.7920573822998423 -0.032011519909590024
Ni 5.292589547960775 4.669707292399426 2.5025957713978833 0.4335676971908016 -1.3554236230437366 -0.41708898280948814
Ni 4.952358905928575 4.688222937140994 11.533268103629496 0.7288198144964351 0.7059634787235519 -0.46044523830793604
Ni 5.814057598443251 7.9059807239609245 12.350303359712935 -1.1901914212733824 0.08001453015142995 1.538949480916956
Ni 1.7928333207725913 6.876697756428629 0.3457953144890712 -0.8817014651212364 -1.2171059862760394 0.4129492496095017
Ni 2.9071104458667385 1.4672355719143992 0.341300213083169 0.2572085322693506 0.467365362466537 -0.09437645530005682
Ni 8.002151400053698 0.26283506557546066 6.876160702940781 -0.9141945526529353 -0.8904956663740987 -0.3517497952820458
Ni 8.774383513224263 2.4185913526117817 1.1231312501640973 0.27025199571687003 -0.9260403962479278 0.6992960940057054
Ni 6.843122841588581 0.8490198757136894 4.787094302817089 0.22104185254080638 0.18856496295902364 -0.5466916083016907
Ni 0.9590849964346753 7.744656025068577 2.6501494028146313 1.3073856457989033 -0.7392878039072945 -0.821920745518178
Ni 7.955204579114154 3.8421641130900417 3.5670457633499155 -0.9912782823108154 0.1228701918643755 0.5055279895791874
Ni 7.92488645822914 3.8503922805474646 12.62330343260487 -0.37467580795059985 0.05262559661551582 -1.5130631000684975
Ni 8.280738825026148 7.449267534901918 9.185979673379187 -0.6510585991555562 -0.27754724382670265 -0.1750810695399759
Ni 7.255846632631 0.6385057946960494 0.3191957446964461 -1.1538015697904385 0.2963697758498444 -0.10608114533149472
Ni 1.9869073962044073 6.404825506927115 9.06926942293101 0.9138975902378067 0.7503803142760302 -0.4257572000074474
Ni 0.3974377247075144 4.805848537199373 1.4262099471153855 -0.6730893537033504 0.8536571573895104 -1.1473313886850627
Ni 6.228749980817822 2.382675900611849 6.883914412671607 0.4341130281713104 -0.9195149364245842 -0.18939800038328028
Ni 3.0243913156457554 4.724628269011599 0.4083094290966831 0.61603965987821 -1.4608743338800843 -0.5448738383666617
Ni 6.325601045619862 5.669588395841855 4.585833508245505 0.21866409633724923 0.7313682919499017 0.38518879166678177
Ni 5.755108720672208 3.1076527499613356 9.177972859048513 -1.4685511336990515 -1.6536258241166295 -0.3612600487653262
P 0.42015998604225324 5.594119680209767 12.116604353038252 0.45303994698280037 -0.7060238996478421 0.9682872207322808
P 3.951824629325249 6.304599714127101 12.728249308677318 1.731979935846501 0.9744691811732766 -0.32320900752987564
P 2.6140897084083337 8.609820164075796 1.5861121800128881 -0.017600743800898717 0.26521751861675613 -1.613692992477434
P 6.545339383165295 7.805546278623402 5.6375094289772525 -0.7187927692777363 1.2434626218926974 -0.10966089226295307
P 5.064505108914979 0.9578693686074484 12.811778362551877 0.029322917333833368 1.0362144807018734 -1.8257113013633912
P 4.104331490545473 6.191791266130344 7.790028880127346 -0.18892568873255206 0.5864377778513772 1.1960838754984175
P 4.895142751403803 1.1519162284908937 3.652884510096206 -0.30981330294925996 1.6115450928964954 0.7898356920581752
P 0.33358551230500716 5.811508408745858 3.411883571793652 0.24524621770115182 -1.7540004059816503 -0.5606413856135635
Ni 0.6856921124612552 0.2727687407307843 4.59121039341862 -1.1788633978550729 -0.14002690614932015 0.3451184060084572
Ni 1.869953113005839 6.708433092701741 4.594517082545665 1.0155782925087606 0.2950088909465758 1.1712871281697117
Ni 6.032997613236476 5.36262422576817 8.776512676291802 -0.7371941546030594 1.8527901598580545 2.2683642486849127
Ni 8.819597610917535 2.4446184887036755 10.290646988343623 0.8240411342952905 0.5763585392385042 -0.8187636879464351
Ni 2.4369346322136667 5.309290822810958 6.620222057322468 0.033828518513670774 0.9497189708117901 0.35877430622899503
Ni 0.7500840999064489 0.08830901135340853 8.827312311695696 0.2857845441348304 0.050057321667707336 0.6579357858913636
Ni 2.1075992813792253 1.2725173951711424 11.208352557850464 -1.23680989246287 -0.8788421412955703 0.5922034766905607
Ni 4.979610741697153 6.7564594637266575 1.5506076827933537 -1.372891955031829 0.8544030344165995 -1.5046535358485633
Ni 5.479687371160222 8.191453682671176 7.7122359566643945 0.697857818897282 -0.973644371279136 0.5606578406737956
Ni 5.489920417347624 3.32623896262574 4.55845466658453 0.5688018099371688 -1.6712008568859154 -0.0028760359962144016
Ni 0.24646037730572623 7.514412485852036 6.510523439319542 1.7298096676680594 0.9259941163910247 -0.5106619683716431
Ni 5.322236351985977 4.6243571169643 6.683901904585293 -2.008702883999695 0.2914605114736851 -0.17120744551718256
Ni 0.729735941574585 7.588611142560157 11.178836388457439 1.051415356812028 -0.28278123853213233 -0.012102696800804964
Ni 4.831902888839638 0.4744314182333108 10.36874563313327 -0.9398058254631364 -0.6551394540931491 0.08127077115603423
Ni 8.222642701104053 7.317471705991834 4.338272715600654 -0.38852685490107924 0.6016880191422282 0.6284259493577048
Ni 7.192189464991817 6.458730436400113 7.117427446432422 0.5257247762420365 -1.0627531504223502 -0.6789028750613341
Ni 2.5651107931904407 5.616082627744962 2.433353066048076 -0.10354269518035716 0.25751372221459523 1.3196863175431273
Ni 2.5267822292349686 5.336715023719217 11.328302365739706 -1.0219384303988335 -0.5561661234510292 -0.8189902021349443
Ni 1.153385868102914 3.3489458018164022 3.2670387946247397 0.14288674419561842 1.8680501713409183 2.227193430873558
Ni 1.5674432210154994 1.3009848587669466 2.4971916706763984 0.04832028437194259 -1.7480711849814088 -0.9510780559428459
Ni 1.4375706241902821 3.65007677268929 7.9754502255471555 -1.122758841552021 -0.4708988295410922 0.14607491211561294
Ni 3.6676852324851654 2.7189965755281165 6.666415007572141 -0.0988810280386297 0.9213669020316584 0.5263523825237064
Ni 4.266889960963961 6.925250294722047 5.784386300424515 0.2386338545909568 0.873612774575831 -0.9779908211732898
Ni 0.7314849941498786 9.133538033223589 0.3209311894975543 -0.13305613125844182 -0.13234162168992047 -0.292839908319715
P 0.189007447510128 5.957429107260361 7.841771987874761 0.7062362727689644 -1.2876133482679823 1.2661286960316451
P 8.637099215392745 1.8281500307083676 8.084725188180443 0.5096348126587095 0.2740376880115474 1.6213952462176981
P 1.9517630514083126 3.261447813804442 10.045144598340546 0.6227078159270051 0.5102156248628439 1.520470191165846
P 4.345987416378817 6.258369569294654 3.578928978953531 -1.2862416647314365 0.011223122409329057 0.9934799179478245
P 6.991247999521115 4.080826328602602 10.535273037689159 0.524088011969562 0.24142761528601003 0.014141581607704679
P 6.258278850800085 7.762182838219341 10.062471830803256 0.5757448169139052 1.3176484611774921 -1.407270175401383
P 2.330621628428062 8.690205822113533 5.695279873503844 1.0131673690744227 -0.992445306035723 0.5955955330912452
P 7.098159745370876 3.788204752520302 1.3701658755404464 -0.7348925030530763 2.1864316755751636 -0.08709252004413387
Ni 5.09689161147617 3.19251990163079 0.44253479554279224 0.43297274391928015 -0.2063261435971866 -0.23447998032358328
Ni 1.599811579877778 1.2802828983062629 6.870889958406312 -0.7315557253703595 0.775093243641678 -0.29287821775681816
Ni 6.881179250060346 0.7583412972821343 9.128833372095231 0.5521798851097716 -0.34487595098034796 -1.1686628031729873
Ni 2.883314984741246 1.526384030373495 9.04125373743816 0.8047043816398917 0.9596845666649343 -0.6169963673645245
Ni 6.307738574039194 2.0361584669060075 2.3040166155257626 1.226678717566139 0.002738481977085606 0.8018885094576513
Ni 4.335327993266939 7.068676234635897 10.552692803016331 -1.0401166439697571 -1.226950740280603 -0.5704974524720369
Ni 8.31624604380052 6.967996849363038 13.189418590189563 0.3806006580754671 1.6538615942765194 1.0584702067762803
Ni 7.9496253916981505 3.9962857635135967 8.12953649575783 0.313878217047253 -0.0321362184129124 0.28792010242059446
Ni 3.092511833217742 8.31309811203897 12.502543508559127 1.4782807022819897 1.2564423219818168 -0.9923532605425491
Ni 0.1888441542199035 5.13319715300275 9.9938396609219 -0.41967294148658046 -1.0106919109507368 0.20814288509095122
Ni 8.545999703146387 2.516558254897024 6.098148007296268 1.3312477971284815 0.44425165926720916 -2.0186857062440198
Ni 4.180997690305875 2.534593091617374 11.585063828103761 -0.7188333927076845 -0.15571192098474473 -0.6507032726986665
Ni 1.1553726031339788 3.243694204417256 12.401315276394122 0.9877131906673764 0.445427167632549 -0.37918269468201793
Ni 3.0180863802731985 8.544548207233282 7.903698246637566 0.45365521196929615 -1.1407084840519064 -0.5084731882504404
Ni 5.637319827323603 8.08201996267239 3.4669324614831676 1.2947766987856413 -0.616433552882519 1.0674433568091681
Ni 3.317992651469403 8.782403028144177 3.646205814526024 -0.6996341940714144 -0.9942851874579393 0.24001865075362533
Ni 3.648471055335416 4.451429522616557 8.955321550642463 -0.23515643756531762 -0.6361559710121107 0.6637914733411924
Ni 7.161127452451335 6.207984517410939 11.142429242216942 0.5112785189097194 -1.325126771832408 -0.2723001364951504
Ni 8.255201568804928 -0.06383225433370196 2.587585393035006 -1.8917125479548644 -0.5736910197086701 -1.3447460887252325
Ni 4.789473848929639 0.29474983196489307 1.512421546874355 -0.5362099920440765 -0.7881868436008426 0.3238597537399971
Ni 6.495689151087591 5.607636735900573 13.345151401076667 -1.4036269222218407 -1.0621877648371836 0.8529141085758989
Ni 7.757166105469666 8.711080147713899 11.404037793745827 0.935340333492615 0.7987975292371533 -0.5878719391947423
Ni 0.08854487943928836 5.108802949813102 5.737237177242083 -0.8070818807331326 0.26681340234896633 -0.6966026063339423
Ni 7.436322005726899 6.0156703807737655 2.3635669569158 0.01126451717022576 0.1886948036686686 -0.47315214435164316
P 8.532700371842548 1.6906661521887971 3.4462994470783563 0.12740356095835478 2.762852692620487 1.2411704834244106
P 1.823650393377737 3.1800642523264435 1.274113133490614 0.8822552807421774 -0.8722709158359558 -0.5538346471043751
P 4.766649075696037 1.1688987306742413 7.916299045533222 -0.30601861179351814 0.5138755902129344 1.3096114498056284
P 8.79171981753643 1.48759280209572 12.255142380464717 0.12666925389549155 0.20782355407831948 -0.1261545190426021
P 6.793263956973368 7.92370711779974 1.4084581520980912 -0.2401808873631025 -0.763594241863143 -0.44347981409819104
P 1.535954831550542 3.580686196193336 5.623275697179351 2.2026630498323616 -2.020532529644772 -0.14579311920913599
P 7.222462226629547 4.189153282967642 6.0215761547702185 -1.0160228362453467 0.21047050478286333 -1.301448454378862
P 2.5511220013278755 8.335387646154613 10.171427464335661 -0.27870398313896516 1.1336618616177703 -0.2674991155620812
