# total energy = -340855.72994099505 ev
CRYSTAL
PRIMVEC
9.36533151367718 0.00000000000000 0.00000000000000
0.00000000000000 9.36533151367718 0.00000000000000
0.00000000000000 0.00000000000000 13.70710933247908
PRIMCOORD
 96 1
Ni 8.160706514995448 5.267315392827127 4.570594655010798 -1.021261458936467 1.4942739923864523 -0.3330154520973362
Ni 7.147012380815874 6.7584822313265605 11.724389409019077 0.42401784871883746 0.09513467362232003 0.1361046882767785
Ni 8.530740134444715 0.1823682939295318 7.9073845952991295 -0.46256536997473235 1.6663126755556785 0.7451527473285038
Ni 3.6096329573089405 2.2096188919131925 2.6440607068279856 0.39075137335622384 -1.7054718622536433 -0.037859236939618665
Ni 3.076296049602306 3.6026464198862187 8.435917087861183 -0.8853508889483656 -1.7993641788284302 -0.31249624909806184
Ni 0.19139834672174116 8.370686616275396 3.884827609110844 -0.3324446671955307 0.2547886099739483 0.21666814895314299
Ni 0.18407746695854885 7.573415931561871 8.355552240303387 0.3562165728041478 -1.4327104698513582 1.0093641932782487
Ni 4.392012764673769 7.887023427724412 2.244703297399787 2.379371113452799 -0.060175383938315716 6.7224533766859516
Ni 3.761482444938978 4.772769688880429 13.072306007424055 -0.9334081494669085 -1.1273264063180457 -2.1568277366658015
Ni 9.139664634026397 3.4736858028475104 1.7123740993803978 -1.3531322559063985 -0.3629641759406265 0.1161228458382129
Ni 5.800324513925457 6.334101592220386 9.955555471157957 0.7387357880585665 -0.5014219378306138 0.33254442599818856
Ni 4.68300298486329 5.055396667892349 8.169656962468498 1.6950342118600872 1.0568894925527217 -0.5904749240352283
Ni 8.33507025995018 5.515000319393773 13.185238795849834 -0.9544968518164079 -1.7928047804433573 0.4693386841428239
Ni 4.1447773740270835 1.8800435052603834 0.26053135201268784 0.13244755114016543 0.07176360299654737 0.3663516043556207
Ni 4.471290297225161 2.788433850189178 6.34855698164662 0.8027241179850692 -0.1699180372817977 0.8563889544983767
Ni 3.2371737169582193 8.207598730646342 0.6862680911440769 -1.55661295963499 0.7574017398991859 -4.3386864481583025
Ni 9.270385933418284 6.122417000577254 1.5832533351702036 -0.947187205528872 -0.7387393876029923 1.7936362752057173
Ni 6.813578477516735 6.947718122966657 1.8327364054166921 0.8121127582888208 -0.28258017826491977 1.2577859804939049
Ni 7.404203119023355 4.756857990380156 2.5389264300803585 -1.4048458822306062 -0.1693901898027857 -1.0817055231551371
Ni 7.923548221221214 -0.01431771905074634 11.98937584930521 -2.0649812468764503 2.3551556925488604 0.5261469513811197
Ni 2.9173757365645545 3.5073822661812266 4.6657492343353 0.43407060496914923 -0.03687039066378811 -2.1810218174135017
Ni 7.233454392091638 4.4144895606718 10.02310479886421 0.2054810219880719 -0.16515095491045753 0.7934786881274012
Ni 4.845032588014102 2.902128976612556 11.945540477910049 -1.8382433723921312 -2.2807798487404463 -0.9274581025310609
Ni 7.077708926488609 8.719179972893215 6.172448475402541 0.08764813543728776 -0.6563134197965922 -1.0738466892323506
P 1.017917898760871 4.579956240543979 2.840469505990955 -0.17241509267203856 1.1550752942965397 2.5207265086055557
P 1.7611131584357966 5.533290812137171 -0.006896630238729464 0.16465781732412285 -1.2163307986729117 0.2913471258242724
P 8.039631507219383 2.6107173164980724 11.540618188406004 -1.1451572638518794 0.6650402581466288 1.8664170066128694
P 3.545208840779581 5.800146572623806 3.6399644569751177 1.7199739125245603 0.19625693228664265 1.0402886507712472
P 4.740684062593238 7.447658257952883 8.61116304705884 -0.01396211860704692 -0.06433388619137953 -1.9340953837964496
P 7.6236047439591434 7.959726497446379 -0.13450208378538966 3.554809544786723 -0.9905501458955392 0.18219993997294429
P 2.5607345413974483 8.162579581328616 8.215973210221943 -0.6607971665995587 -0.023110617875534395 -0.28626482620535865
P 1.5132128292408362 9.130795664938839 13.504176102263408 -0.12252103605507286 1.0117344932826382 -3.6283934888214606
Ni 2.9473635285585953 6.926552473401844 12.389225875179031 -0.9272650126836481 0.17367416189012025 -0.48074126955281077
Ni 7.601418273242753 3.798868848949038 7.6629597406853645 0.37146732831563123 0.21638147095065963 -0.33778947644721186
Ni 3.8999488736185204 1.0234340791120546 9.357802875720465 -0.16077776554342635 0.5384298825135307 0.8609567763747172
Ni 7.114402295955396 0.6520078348440768 0.7519499717161592 0.9209868929844204 -0.9462029872387318 0.417874454825261
Ni 7.0615818253600215 7.314792297609516 8.016315577504091 -0.8071785542119969 -0.6716011991935982 -0.30425920590025024
Ni 2.0903888544752984 6.501862778350696 2.3252601342567334 0.3715886843848439 0.5541611772058586 -1.5824314633599907
Ni 2.1306504153067736 4.411399001222071 10.457633711363496 -0.6593447504237484 2.9908730333616558 1.2225053029147397
Ni 0.15563776428887235 3.505827621124696 13.261916512330785 1.1928769385253455 0.6898184935325733 -2.563718695896365
Ni 8.886810044380203 7.014867551010778 5.865148530116947 -2.4473315406531717 -0.47863553606371767 -0.5950478881178913
Ni 1.911211329044321 5.8023661562286115 8.094157404711108 0.022466556533632276 -1.0670247812145108 -0.7641598845586258
Ni 4.458525350164612 4.66254910050508 10.493080555185559 -0.1881211905533857 -0.7333446989499821 0.5560583942285714
Ni 3.9208522938966897 5.621737004389427 6.000177882075124 -0.7455587245176708 0.2492165152028095 -0.5939677676798352
Ni 6.049629642870294 1.2520137290803737 10.55485802898615 0.48791567581406303 0.9786443955968886 0.9786197130065405
Ni 5.1665631547659485 8.548702840579809 10.376076657084637 -1.1938590999329568 -0.2812352342012511 1.1618390953829347
Ni 1.5658178972078969 7.4007004849803275 6.260530356252994 2.827868692480555 1.8471537875078834 1.7012755647841087
Ni 1.5557876269937752 5.946020978651033 4.611290767231568 -0.6467921105697183 -1.977705921397549 -0.6205776569578796
Ni 1.253268683523597 1.8816075156485796 0.7785540693793297 0.4440449425730417 -2.3602814438111994 -1.7429852858180694
Ni 6.200664346645403 0.9360836306647031 8.224018966656072 -0.6922021632734013 -0.8390867157745033 -1.2726148179766212
Ni 8.429182477860273 3.1208562976684044 4.116779715012035 0.7822046578754787 -1.2993977424974201 -1.0296476261176333
Ni 0.3331173550888322 3.581462039658074 9.37355161744975 -0.4658594673449719 0.7434267657763326 -0.748074291850673
Ni 6.4672016858553985 5.930034357497433 6.238598622557915 0.6294492484158966 -1.492352092773391 1.161330016957
Ni 2.464318451897557 3.787564893628361 1.5171443954741588 0.43931771230070144 1.4036032680727568 -1.4667310497711774
Ni 7.063604736999844 0.20655051682391443 3.6779324480816267 1.3453685528005799 -0.9004028981854816 -0.1833307111432778
Ni 5.141005164649853 1.3127853662600524 4.261636109487184 -1.2140507443894832 1.4199621690467545 -1.4392834950831859
P 0.05274180180938192 9.065641052539545 6.0826939463165655 1.0485110386810395 1.4852401643189581 -1.040170380025828
P 2.5745390402729065 0.5987022400684109 3.810494035145853 0.6499247426614291 -0.6167492843507248 0.651530139475336
P -0.2340864649878367 5.952454961505469 10.370332899173974 0.3533672762808108 0.6129975306177766 0.18501221261075879
P 5.057391483537175 0.3779370228420745 1.5497394958039712 0.10910476264916692 2.2344367426995326 1.532862908403244
P 5.415193979830845 0.6090640430235037 6.080995075152381 -0.9403118185652772 -0.18796358192959886 2.468165446679388
P 5.796718861234106 3.0093713895181655 8.47451630232197 -1.0905380338451023 0.6695430311129889 0.7648887923048504
P 5.081020215330105 3.9188106515935353 0.7830747149744339 1.1198486098837617 -1.1959059551596565 -0.18277792396360135
P 5.060201083036929 6.611455889504434 12.447796659417236 -0.20495240317811156 -0.8743295981371976 -0.5795171394721439
Ni 1.0812650021486576 1.8788260121438232 2.956143526995327 3.323390976997283 1.0372817456241232 2.771030343335273
Ni 9.4323874405741 4.352341219737242 6.21234947096488 1.03196830383101 -1.1811683918391656 0.23214336177060663
Ni 6.504700473845448 2.2054513193218908 2.4241158926555775 -0.7023891311087322 1.260441672949197 0.2628546748115344
Ni 0.38723117798726064 7.10343549257469 13.396931816291465 1.342681749997036 3.3422862712398893 -1.1175482438853592
Ni 7.93992818630478 1.9865273263010594 9.533225839686603 0.6460338922474551 -0.4752419370011363 -1.3560121485573549
Ni 2.3341216110789578 2.5504888685550124 12.52480309903966 0.18369323668901913 0.48466811541104277 1.3568007058969214
Ni 7.408286403629663 8.315993079346852 9.937161023233067 1.329325383294788 1.3172406842161122 -0.0637373902579612
Ni 7.645341678755574 1.7949032750861713 5.83918783073922 -0.4751470632944849 -0.18150111413370676 1.202288975867865
Ni 1.4445743134618463 1.7114581699434779 5.4360337158536876 -0.9807041063393949 -0.2950813960557241 0.23628052386743176
Ni 5.7056972027737425 8.185224953296634 0.2603871259050338 -3.198343317865614 -0.06842605398288215 -1.8656094231099096
Ni 5.474691931903969 6.7835344935326995 4.533023753966922 -1.4176327495826295 0.7031980001632728 -1.94566843334603
Ni 2.086661452472292 7.005764448631575 10.078015611487402 -0.3186944074889737 0.621542077753678 0.5904402141425509
Ni 1.390236659136604 8.848927277791855 1.7607600854319942 -1.183973979608761 0.3492092882483792 3.285698604652832
Ni 3.2068394076925424 7.886967235734417 4.579641565400006 -1.0598259494732263 0.3731303178403509 -3.4919854103716506
Ni 7.434059796374073 2.813017845812025 0.20442365000260063 0.2345144331059445 -0.49466533583307065 0.162402702741359
Ni 0.2971348142954829 8.371108056200358 11.35191331107136 1.9942895367878426 -1.1192927373802917 -0.8039819016515702
Ni 1.225603493782686 0.11591002736235091 9.288197857713559 0.3735319241541438 0.49366337693111756 0.9354976850060857
Ni 0.5203565580177709 1.7040595579274591 10.99485629517829 0.8460492631352654 -0.2764691802711755 0.43190059390102387
Ni 2.472054215853547 1.2408877150613478 7.586583587884052 -0.507086592315559 0.14420494878640971 -0.7360638976533581
Ni 2.885439955584017 9.331494722537935 11.54112578938229 -1.3866622693430442 0.2240294744142206 0.053674349595004334
Ni 4.485534966688913 6.070842119093437 1.0441567484890735 0.6568340681867526 -0.6635557031813024 0.14118724500600846
Ni 3.9948758753835416 8.126635438395098 6.506997789703081 1.9116943903934303 0.27314165855983924 2.5208386087033876
Ni 4.912846954606497 4.304222145638122 2.839207995815565 0.26990926766547063 -0.046877124167512815 1.5073747914344684
Ni 6.36850045542904 4.204275326100207 12.665273708695693 0.29272960799409586 2.9200219148770485 -1.059625660536962
P 8.644397799541428 5.794480546965969 7.559937346228384 -1.0088875107521462 -0.7360410148352227 1.172575250853516
P 6.310763185709096 3.5345323626805163 4.669943966388433 0.19942710248450812 -0.2419392648151059 -0.3723389322873072
P 8.64507210342137 1.3861252785352975 2.5197097060352074 -4.194956896346414 -1.8626598535632823 -1.1103764087272683
P 9.464510528187954 2.3273317456212186 7.593999057497069 -0.02783604837566174 -0.6360359004944788 -0.3711881065123156
P 2.1909818818981575 4.241277751511967 6.404578522605381 0.7410065863706141 0.2460471163358924 1.8445996536274618
P 4.825908580752443 0.5186801636495844 12.205358191649799 0.5354636007963551 0.4640018453109429 0.6551939614801684
P 7.450177532170996 7.405355054818253 4.160175852352068 0.86981602653756 0.13467206959531 -1.1031482664099455
P 2.6891800651945355 2.499681944267794 10.562849466496617 0.9189426088608817 -2.198688638565646 -2.4609622440627295
