# total energy = -381174.5310197261 ev
CRYSTAL
PRIMVEC
9.14380258890190 0.00000000000000 0.00000000000000

0.00000000000000 9.14380258890190 0.00000000000000

0.00000000000000 0.00000000000000 13.38287935859681

PRIMCOORD
 96 1
Ni 7.5772955986269235 7.231723861663114 9.836416537699062 1.1407084840519064 2.1445939136037713 -0.19718587185881523
Ni 2.88994457508261 2.6896312884510594 12.08004330302778 0.5931149327612365 -0.33515846658226794 -0.5264693677175449
Ni 1.6435893987645316 0.72432724845241 2.0522241144675797 -0.45253343966002707 1.1197300820280265 0.5103485508962823
Ni 7.632469304361838 2.6702830018526043 10.254658646941335 0.5396796957602318 0.24925328197801588 -0.5352468567998587
Ni 8.592897768991023 1.4847615451656804 7.9162271060407345 0.9129290556769503 -0.9584026146287171 -0.977531365038368
Ni 8.368371692703182 7.003796290755885 5.6429049269326494 0.7817768263094408 1.2564088976407202 -1.7291082707256609
Ni 7.1838926295286525 6.486869690439024 2.700651399513658 0.7793257936657868 -0.0568252365191602 -1.150823203888405
Ni 0.7333055483631016 -0.07106106299616997 6.317709339743645 -0.9342059627778555 1.5194409785703833 -1.5871008438112022
Ni 2.834121659353135 5.540092923301094 8.373172189141835 -0.9558399961078636 2.0749260167939876 0.09123893811233964
Ni 4.9367208118775245 3.4669825346141416 10.638238428755713 0.3356801434136929 0.1984932778163291 -0.02570846050969766
Ni 5.723023840923351 4.838004317493344 3.4443516228319218 -0.36063527069713375 1.1782103376521063 1.5669009718245595
Ni 5.298358210256025 2.7792862743196105 2.3627476555278553 -0.14351846424234638 -1.509787257530703 -0.46864140096548323
Ni 5.6342192287096475 8.528763136570623 6.413571138912306 1.0479199420642598 -2.668518403412275 -1.7877615615924953
Ni 7.217413810374558 3.00407752088692 0.8286388357333735 0.8797124597156657 -0.8938301300639703 -1.6225075054452702
Ni 7.7011575505469025 8.139648610957549 7.520950571760978 1.6072840036272964 0.21982572074551818 0.266020988354658
Ni 4.039933214320763 5.229212773933947 12.689365286894457 0.8087726381719942 -3.496577914838339 -0.24930958913724807
Ni 1.666714075894727 7.170286651051099 5.114320892502192 1.1357953630210051 -0.23266401016076707 0.8308087920364272
Ni 1.5305719968945375 7.548721215063514 7.58870797882708 0.4802530170624826 -1.3398561076227828 1.3762603572834298
Ni 8.541107270270016 1.003797521026384 0.2841683584219355 -0.40294560142957053 -0.18229687056212476 0.0034241951902005546
Ni 4.5598955571474 0.5521265833458835 11.831107845324734 -2.0812319044073573 -0.3992190445076028 1.2930221779883795
Ni 6.402911293677675 1.7602826093361228 11.995703609692159 1.3549919348229567 2.7010235751288323 -0.6654848018832151
Ni 2.900670255696971 3.4049235454157882 8.498489834458068 -0.5671611890099522 -1.6930506057711554 0.31857793651576743
Ni 4.5311931603456275 5.828269010464099 10.465866774537941 0.2409123662124883 -0.08682306843283112 -2.0393249797609267
Ni 5.126701601412547 7.040984136500647 13.353303204528888 0.6887270602406075 2.313875088632518 -0.7124771114723536
P 9.051980673172803 1.33350476023579 11.435081519220272 -0.21919245803689347 -0.9202389590748022 -0.29681611935864366
Ni 0.34438761450894273 5.037055759346735 1.777045942899898 0.7788431976024135 0.5908505622070921 -1.416427930641251
P 5.873585696844979 6.3675339208754895 5.17581570907147 0.5272489261960468 0.37237132818713936 -0.05877310427415039
Ni 0.8144915441335956 4.5023078874890485 9.136585536787893 -1.4487605813356856 -0.0511127595154152 -0.4277773157612697
P 5.063079021945603 3.334397394879925 13.502388336307963 -0.35106716739272437 -1.0390159547064106 -0.9291804845388062
P 2.5594509688375395 5.6581942794946904 3.4878057165946057 0.2979471476392933 -0.23242206935329005 0.09796314421005063
P 0.5952889898011522 6.258347772353677 12.859435445962495 0.7095558240605006 -0.09218458985506059 0.7035381571115109
Ni 5.9898308610822975 1.4450957288782988 6.915509217777281 3.3391731795322044 1.6548229297485244 0.7898104952471946
Ni 1.999319900572805 0.9788806585590917 7.9838382122629925 0.5034384540400104 1.0746177630704203 0.6861742119117666
Ni 4.458563935179497 0.23714269530889395 8.189117498162796 -1.1941570907893497 1.2493872149072482 0.3813293087113755
Ni 0.09258831778763663 8.83611377808002 3.853961067907085 -0.05350697077920462 0.5014692461287815 0.0822886708975873
Ni 1.4304382130856128 2.369753637187466 10.113535938588509 -1.100748398719201 -0.6241962275470734 0.37580940733441087
Ni 2.019006507872651 3.1471597461669907 2.8697440860687595 0.6813112273925106 0.10479533664053567 -0.32534508003627194
Ni 1.8232285474002847 4.202281431974627 0.010842721289436835 -0.23955816617743905 -0.13897943872141225 0.8253482831424883
Ni 6.10563712278808 3.9326489767689314 6.3124095916753715 -1.906905967865851 -1.4961637532099976 -3.946346133048403
Ni 4.676314453636782 -0.13544989313274977 2.5046329570292216 -0.017248245557486424 1.033488082909646 -0.5826957943104417
Ni 7.699127626338559 0.49072594794483076 5.666365181623413 0.661533273434635 0.5261952881205518 -0.7657786511089715
Ni 6.943684931541213 5.028305140124277 9.507344792780106 -0.5316802224945231 -0.46211362714929444 0.16746211954213738
Ni 0.09493827509189134 2.03280450620775 3.74727300629392 0.8967367621878041 0.20623126989053514 -0.0026148119150277553
Ni 3.379631787036144 0.1432056666170644 6.161611825643044 -1.5851036108755152 0.18779954554790884 -1.616482639407429
Ni 0.022777212626064393 8.094011891480756 11.657906848198419 0.5163806160229752 0.4155769170403359 0.6368663668155742
Ni 6.7351422224434 4.475342813207931 11.981838861597058 -0.4788116566302657 0.28527520859857963 0.62676861625994
Ni 4.691730905056914 6.681623545004478 2.134154415781133 -0.17636225024524466 0.034444811941431 0.8105811521356426
Ni 1.5174140647512588 6.82665340026823 10.16350773494447 -0.5700163990705602 0.003731956238606476 -1.187273733405955
Ni 3.6514038920830667 1.6724746716211103 10.073855492216744 0.9774349486698198 0.5751889444104352 -1.7697586972571715
Ni 1.9730863305109108 2.2841402121301235 5.525737152998837 0.6951661309977318 -0.424546724639114 -1.14777387553912
Ni 3.0016086941470412 4.8785205074355735 5.871912380943507 -0.3206921546452929 -0.06096625527072726 -0.0878481672632358
Ni 0.32035038586526626 6.6840557965333955 3.334839954932555 -0.5314999881629169 -0.6262024593438248 -0.0013107483916235492
Ni 6.808210350141064 8.637016617212925 11.929980698735772 0.7927389817478993 1.1054062092061865 0.5397280324996641
Ni 8.34783471174849 3.0039677952540362 5.685087117734159 0.14963640421462615 -1.7905563507288131 0.2593482043201727
Ni 4.181808457639116 3.3504447686891354 4.436116813832357 -0.7794610336920705 -0.7331816910095567 0.4179988962182672
Ni 2.445930657816829 4.688969476629345 10.824848812600663 -0.23362200319866214 -0.46717175839849223 0.38683661168284994
P 5.809231613158813 2.65694219365452 8.79319459677764 -0.8700304565412114 -0.050185876825771636 0.5579440412870584
Ni 3.923313154171095 7.053593440479507 6.781506788618319 -0.8207565500067479 -1.2266550634170552 -0.7087693236034631
P 6.150487475229206 6.822502113824139 11.31004550302844 -0.0792840797433086 -2.4157226554986395 1.0386035497593402
Ni 0.3561319147485722 7.854480834896099 1.1839697533618962 -0.08791347328353247 -0.19662999935534525 -0.064958664259572
P 3.1159428036116372 0.6690557040281742 3.9771911830577102 -0.4781120594600798 -0.018133476375917158 -0.35183078503162635
P 0.37425401739955455 2.8500958827404226 1.4137809476336252 -0.30859254316828144 -0.68696893989892 -0.15938448474032552
P 3.5039600728958775 7.55484756289951 8.890849495663673 -1.5136637097669736 -0.5191432663697769 0.43204380434710754
Ni 6.783266056265551 0.48306709876956316 8.92358339509364 -0.7657233723910039 0.4304160389356974 2.0144297591811435
Ni 2.541410246030946 6.261794985986766 0.6428395071914864 -0.798112844465303 2.0087273094797276 0.9926049715420389
Ni 7.063925937576037 5.727120264551002 7.035741080009364 0.12511887868923616 0.7359718521601841 0.24265274594236277
Ni 3.857697225706768 4.5550676293005266 1.9004891086543718 -1.7378564492319362 -0.3103882016161235 0.07564956831451487
Ni 6.720228680173985 8.282703404829398 4.0253022155560245 -0.5080497275597766 -0.22835149882834224 -0.032781051085762895
Ni 1.6366583962873913 0.459509005389478 12.978167724545171 0.39886320383008084 -0.1062554661258299 -0.7309088358149799
Ni 4.9650300251614645 4.761370106726967 8.013373609494407 -0.2358303237038906 -0.4870664404398903 0.9151949688929916
Ni 3.5272584822781385 1.6561804151379123 0.6679392457135847 -0.4230125473827747 2.1655566318983674 1.1264267773219117
Ni 7.820868216022791 3.8997495745093653 2.8509544858177356 -0.16089963583327127 -1.7402717435416482 -1.6024490441324983
Ni 4.132002164112752 7.4775458545330915 4.298487038126322 0.5060540372859865 -0.14903682295741427 1.588734265649567
Ni 2.4853221600220015 9.040998966081714 10.545976544725905 -1.184490000013231 -0.7160902827449087 -0.7455121875504516
Ni 5.70439791474138 7.095371475199896 8.28301246536202 -0.19100493985908396 -0.4291808809770157 1.1181339411855
Ni 3.1509361366987307 7.143102125504215 11.749057760195281 -0.32111021601931794 1.1610492524917875 1.298777335304602
Ni 7.628811783265722 6.766350021196013 13.366231627223389 -0.4110075525020986 -0.4793924688344001 0.07521145233583175
Ni 2.42646350178275 7.766270569860514 2.723616974476172 -0.22862352154280627 0.042088958750250094 -0.31905667592439885
Ni 0.5535018112780232 5.146543653358978 6.763479781515835 0.4967942092506154 -0.3176091448445949 -0.8852243906728303
Ni 8.74277383970713 5.493048058202298 11.086711778617932 0.357436561254178 0.4975362296229625 0.2806752479327231
Ni 0.8200107434676351 4.592118318004185 4.409631789195105 3.491297383165691 -1.0063680867644025 -0.32793855179506104
Ni 7.540007171052017 3.433187039686027 7.859591306247648 1.3987899058445135 1.1614606289975933 1.3563697890070898
Ni 0.1352469007119153 3.466022435326411 12.051791695701104 -0.34686932726129294 -1.1392136446739347 0.004556509022430862
Ni 5.289671597652749 1.0031757424400445 4.755445836931533 -0.4135920253998232 0.6930819947751935 -1.5499131790173113
Ni 7.952959590409031 4.897713349387444 4.699772879566998 -3.6008965689527725 3.5899477832507527 1.773793015227545
Ni 6.068275544791252 4.966419883177989 1.0743309866044393 0.352827858837573 1.2702877125053413 -0.3842948190976027
Ni 5.660818550881153 0.8261489782471924 0.45801307926116636 1.218364798383805 -0.5606961501108989 1.8640155962602285
Ni 0.24914942268716977 9.085931612747503 9.41769255005238 -0.2022067221121743 -0.22436886003151035 0.6984717983321971
P 6.827412335895675 8.440818041814508 1.4209268294751622 0.8024222704739341 -0.6270673784472813 0.6795250820263652
Ni 4.160795998941928 2.4493138648307364 6.878518878171708 -2.3287805449894408 1.278572835332269 -0.6548887715349238
P 0.8321043369719437 2.9492878548670975 7.1167606585699845 0.7288133867385319 0.42055508698121763 2.1530968088684594
Ni 5.014936900517973 8.370035864801915 10.108129208028174 0.6395922503871695 -0.544758652945036 1.7995055895023009
P 3.5217173378175226 8.754505338622922 0.3627081376793893 0.18740051033727725 -1.8333068543224622 0.10881474221257388
P 8.772235172136346 6.318559713398492 8.239343492234939 0.6103644638703037 0.3519572833071616 1.285950872963895
P 6.411680200505613 2.8705597132731935 4.372695398025701 0.224154172917543 -0.46422681683755534 -0.15469479257414004
Ni 7.288644033721423 1.3574066605989101 2.7178618650314332 -0.740138581943364 -1.215493647483597 -0.016146527852875417
