# total energy = -381165.5066718918 ev
CRYSTAL
PRIMVEC
9.26420426266472 0.00000000000000 0.00000000000000
0.00000000000000 9.26420426266472 0.00000000000000
0.00000000000000 0.00000000000000 13.55909937852624
PRIMCOORD
 96 1
Ni 3.087212709734577 5.9108217499243265 0.8787857456391753 0.37062066404461974 0.585647677849914 0.5835193186530016
Ni 4.430855846590678 7.082150686543773 12.70074052275277 -0.46239876248988104 -0.34935866934204995 -0.024834285434860458
Ni 1.3897974027474462 0.6345924369726195 13.461365048051173 1.207223951275637 2.432567237859804 -2.1235792590253166
Ni 1.2566337299409043 6.998022447170167 9.80072032538281 -0.6464763791015123 -1.2895015664296308 0.20407642833106143
Ni 4.438989817978193 6.735789879863782 6.646671013626333 -0.11367181319455907 -0.44703693532183014 1.1083223544117171
Ni 8.4130555424684 5.217887059865129 4.058794284303348 -0.0846132052657059 -0.22561507373378561 0.19014696273416284
Ni 5.9733180722252115 7.722668508595498 5.083184602722064 0.6310443608171583 -0.6042719778193206 0.6524688492395215
Ni 8.511830488862122 1.6396252004776546 12.252761585375156 -0.09583478501313818 0.7599882696794394 0.5119606325784086
Ni 0.5840839950537892 8.793814339765525 8.428851010823427 0.25549309224014066 1.1863234536775438 0.3861598973307995
Ni 6.609398340410628 3.187442136205564 2.910013494563256 0.15241808072482138 0.15484160256464946 1.9429163245221892
Ni 5.765994443886712 4.599668177596717 13.357027873387445 2.1163400609644003 1.3025190617352214 0.4258279053443828
Ni 7.544897692018015 8.674463595590858 6.7949260752600535 0.9836963561984995 0.7745281151668274 0.3883489345623183
Ni 7.300517246424321 3.6599350846179233 8.749889967852512 2.8456954362493314 0.8351156469418972 -0.08213337626664564
Ni 4.338982732410737 0.7315543785821302 6.7978813564361555 0.8122960779442204 0.518237723836372 -0.4006778884413164
Ni 1.2352890032019122 6.0070305117231255 2.7076165700788337 2.402904934908681 0.41234041238090924 -0.18983817324449243
Ni 5.274806331169107 8.575558950336744 10.702901892596053 -0.05798968914090658 -2.226173474249476 -1.3297377882418584
Ni 1.0961406544086565 3.498043114234292 6.752173625192736 -1.8112653011413904 1.1372215539445705 0.026966758396830978
Ni 1.9886726264086463 6.766621151820105 7.215488526391415 1.4250524390854682 0.5853735982529208 0.4938500390206269
Ni 0.13784580166673566 2.2690167131485075 1.009661159980209 -1.0664519394301764 -0.5361901945497347 -0.24628777159178875
Ni 5.5742624714083355 5.144134729322978 7.7851870649867365 -1.1375987347783312 -0.17339673985901752 2.176842489224832
Ni 3.401158065520585 7.661626666371879 9.005289258057038 1.0829062283314577 -0.16541912097017963 -0.9748841572235081
Ni 9.08592396598391 4.582696155293839 1.8723762903962378 -0.3295395777335937 -3.0366173294763055 -0.4561311843136145
Ni 7.239586574652467 6.36847344302598 6.955248689432928 0.34794224861049755 -0.34514925924639267 -0.19282142424253243
Ni 2.785079214448661 0.6953711757937269 2.06793901135837 -0.19455100533912945 0.9313962612432025 0.21174448639928048
P 0.6449136869986224 0.15448338619388668 2.033011108254487 0.06804758759754087 1.2791073676795004 0.054383716957203114
Ni 0.26662843225328214 8.762445743959004 11.212913942058865 1.656140363008367 1.0287983907434606 -0.19034956566327219
P 2.372544196355207 6.934933215793199 11.80401001335777 -0.1327709959178552 0.23047960091493855 0.1984518830554324
Ni 2.3845969261674593 2.545284549990297 10.990870419486171 0.9119301820987906 -0.3344588694120821 -0.10472334575201964
P 8.922410759845365 5.551537378226587 8.228326382030826 0.31243788505630066 -0.05688694299503106 0.5620269531071804
P 3.806309512775942 3.7727638289556773 9.033804478934911 -1.8721968465194403 -0.5758636018799567 0.14698688240692104
P 7.046557613570159 5.031778459405228 1.6420885524046935 -1.0786076009561036 0.4918078117796175 -0.5295775743292235
Ni 5.494757069987315 2.858970508055519 7.947218924855507 -3.203354655037277 -1.0551509125950602 -1.1394147049411474
Ni 1.9876442997298145 4.925712584216546 8.445976818917917 1.1182301004437323 -0.05632027185828365 0.5609072376804404
Ni 2.4694755660904826 2.0409597955557257 5.916689696936687 1.1636404102577314 -0.9336279787871986 -1.1336662324931444
Ni 6.095040452704213 5.648255671262644 3.614001306789247 -0.15452227155201775 0.1416685555178012 1.1480327856274617
Ni -0.017708526545826123 1.1388949573168374 6.050423118308527 -0.06111717902629475 1.6415724924965212 -0.7725092849645857
Ni 2.8320487303196207 7.711217952063643 3.0169539106391587 1.1319435933750825 0.6236583527657323 -0.7809481597605582
Ni 1.739493322980404 0.09394273742364385 4.469960979419653 0.9688752320252669 1.2409462832287468 -1.0942615054432767
Ni 4.960462614597606 7.078278249140605 2.040874564876039 -1.3220918416608263 0.7089737263047855 0.3886474396393435
Ni 1.8499874878310805 7.98630923495758 0.7810159654135012 0.834031412738783 -1.5933252274543592 0.5319872122119805
Ni 7.65289978590828 0.9682205212437247 2.8782039226313967 1.0785206976692523 0.5529895254952605 -1.372977829877416
Ni 8.66761734860296 6.811793412054186 1.8692570328037816 -2.5199533778849568 0.07085163270523925 -2.2867784895260423
Ni 6.567060926696568 0.5157762373868575 13.168434613330582 0.042219827901159544 -2.0445494613846598 1.259622262371695
Ni 8.813435924502151 6.911050097072225 12.20870844102218 -1.9914176145566869 -0.6746908938625155 -0.9646645363780291
Ni 5.651600049019926 8.587834021052526 8.190306087526995 -0.1565778685294658 0.23497286079960175 -0.211305599089649
Ni 5.585157175681363 4.196906895054321 10.090668612734788 -0.2038442577155973 0.03334592245029741 1.0281916103973967
Ni 4.2777556061008415 9.073889764580287 0.2743658956961667 -0.7788869063561553 0.10072810854969748 0.9006073008868037
Ni 7.434755566931264 3.5293375964063034 6.301062460336624 1.4834069677649613 -0.4460552881348511 -0.28120798050774154
Ni 3.9689240910960497 1.0096778355479736 9.343168685687747 -0.06397444596943175 0.9142071510584254 -0.5820170230758622
Ni 8.564951436397443 1.8796977910654327 8.177153696662696 -0.21584822415500893 -0.7164880324039596 0.24207759016518304
Ni 3.367945893055617 4.601715566750067 6.055182140064526 0.19211102843906913 -0.23027725509614536 0.15259317285010493
Ni 4.126304393978861 5.79708511356382 10.775837120317728 -1.646902646460183 0.5473552100276186 -1.1121980353170393
Ni 3.8919478174526962 8.212717124182506 5.206219720952331 -3.0138450687767966 1.2673851941465657 -1.1135980009883597
Ni 5.284969163301344 2.6858781146565054 5.3379465156698025 -0.8191511531928408 0.45999220993091744 0.4631896338222926
Ni 8.757359695790727 8.629087522861873 13.84099268600158 -1.1847944186275272 0.3124327428499781 -0.0795365620737469
Ni 1.5257403368481277 3.4340552550388845 13.157370374118614 -0.12695336079481362 -0.04590627561381126 0.1011446272618258
P 5.573104445869111 9.376393828038754 1.8645795360457447 1.178547666386867 0.1201363378729802 1.2089041671915373
Ni 0.8234237870803459 2.37094148900892 3.102836790309798 0.8844219493761929 -0.589554726213804 1.4609874624191805
P 6.706616900479631 1.2717343829723962 7.384841886929379 -0.834385453644092 -0.5681767747586601 -0.8990672100931937
Ni 1.7617088849248932 6.801398974814105 4.758823502026052 1.370130333126292 -0.5458518860092147 0.46124562272204433
P 2.3697371424481264 9.310525335367645 7.145482640073763 0.19840843141200667 -0.16651595357878418 0.09048869020987642
P 7.123626529256649 3.546115070418593 11.403717641265 1.458769114611623 0.3479160233582524 0.2797434801470731
P 8.121788958842572 7.4023586444459095 5.206571760716255 -0.2115897059889711 -1.2633940707093017 -0.2969549589293531
Ni 4.769091946087467 4.584567524565225 2.006353360341531 -0.07342967784506063 -0.3148135843773288 -0.7607760556880575
Ni 4.54450910511236 0.860674226205699 3.911556432303283 -0.5101534041663408 -0.5659460856559286 -1.1154571656842853
Ni 3.698955913187643 4.525397051612994 12.688971277592522 -1.4512553227330813 -0.8782934678809519 -0.3893223542191811
Ni 0.22493951284118818 5.740091728625331 6.072456175428035 -0.6282140904572149 -0.6134749844748274 1.0981484992025088
Ni 5.77291480450912 2.4620456742308163 12.526587377959828 -1.9461132341929321 0.20423095163105473 -1.3022724929420542
Ni 4.676764885896149 2.3366546688435514 1.4317049573813458 -0.16616936887264286 -1.0846057275210674 0.1370112592514479
Ni 1.1181060828366731 5.13814078913195 11.645218772157966 0.5967070209878691 -0.45336956240807724 -1.6831677994398044
Ni 0.7455016381765541 8.245901504034533 6.139465091650171 -1.9301780510199147 0.2365067809456249 0.17422977728327413
Ni 7.044843735772106 2.587770190973378 0.7858676292126375 1.0001280193919615 -0.13831455144390373 0.29614763253670934
Ni -0.09007400570220153 8.050250773131419 3.5566197516900093 2.428312576348508 1.2718727976042743 0.8575498075756973
Ni 2.48237133849529 8.941717361635321 10.674075394453236 0.32946784395539386 0.1168016170727924 0.7916524335519398
Ni 1.514261987703331 4.44622516154727 4.42478130782212 -0.23321242646506932 -1.4730595630923662 0.21462874992561098
Ni 7.381634619395943 8.912284984530382 11.099410763647066 -0.16888985312759947 -0.057401934958236624 1.0779900219767629
Ni 1.5610462194880141 1.7982376425342013 8.317653692865333 2.983627664653152 -2.621852109703988 -0.9215029133888903
Ni 7.884727234656777 7.7908623165493704 9.077586182101491 -0.258501025828529 -1.7052204083644695 0.5400301371211151
Ni 2.1967095984793086 3.9503956824684523 1.8480920316284775 0.7100903564077319 -0.3520948373262904 0.20298448081846332
Ni 6.599318886117215 0.8535268925776033 4.889153254733003 0.9637672213747402 -0.23576244658043266 1.492519728699507
Ni 6.987331555392044 7.957645786810687 3.0943220601249855 -1.52966342762934 0.10718954790432507 -1.0422380611881341
Ni 3.5817544644137764 5.42774908018561 3.724453782720511 -0.2819245469587919 1.0557690057950335 0.3497119389164106
Ni 3.5791326945929716 3.032285242358064 3.700454861445616 -0.5905692835212474 -0.036742863946988336 -0.14755535331588135
Ni 6.415878376499688 1.3493962077349704 9.728247381456395 0.36314363894128426 0.3850147279827627 0.05022572892477157
Ni 0.8119204245839021 5.989187654214749 0.1481235099324639 0.9876818232088085 -0.7784019962999369 1.1379813149287306
Ni 6.4673688240757805 6.178992672195856 11.489546788550618 0.046480660060042533 0.4088596529211604 -0.10878286053337394
Ni 8.396268804251799 4.205809795399881 13.131120251195465 -0.012000109784669656 0.3112839739575155 -1.049798132923579
Ni 0.7517818422808782 3.3349004762682974 9.445241688817179 -2.0422586084679533 1.7255748036511054 2.168107680454995
P -0.22527117135562216 1.3566686081213022 10.213920513345995 0.398833636143726 -0.3515651900750655 -0.6486101376150636
Ni 4.368192768612144 0.7524896274904525 11.786559031691867 -2.38304496275996 3.1037285213025063 1.105195378746961
P 5.799067653286973 4.7466169864221905 5.715228457087958 -1.328605731519944 1.1895733280734093 -1.3635099995962967
Ni 8.315392300592336 5.001012036879102 10.274611242226122 0.8877679830302905 1.461527908303683 1.2058466113121362
P 8.535102170098384 2.6188238038332305 4.515072095905265 -0.9316526002283826 0.22967458851513994 -0.05245744646876772
P 3.3673251913665925 2.304174368519373 13.272975600489213 -0.32667639725318576 -0.7078956627492583 -0.8099358052421599
P 5.573280465751073 6.893225767972478 9.456265165530167 0.4161127349391479 -1.9585779423188463 -0.3410144111424127
Ni 6.480913090782554 7.133103810269665 0.41652881657313257 1.5881208004352843 -0.1498163814359162 -0.7402486251586671
