# total energy = -340889.4524128182 ev
CRYSTAL
PRIMVEC
9.09642498753117 0.00000000000000 0.00000000000000
0.00000000000000 9.09642498753117 0.00000000000000
0.00000000000000 0.00000000000000 13.31353744998443
PRIMCOORD
 96 1
Ni 6.705875395623985 2.275679925433213 11.411565192627283 -0.12249275392029871 -0.26437393966953826 -0.7055112216774817
Ni 4.730341108687309 0.793179149316732 5.974729316428696 0.004634670558533954 -0.21030106908453458 -0.2850723485591542
Ni 2.901805049357133 1.7351339676802051 4.430985039878658 -0.15403324773074117 1.3934615516530646 0.5775391898101666
Ni 3.807708916257112 4.666893544482153 4.696244069308584 -0.027963575092461515 -0.5996447634599544 0.1532814571663812
Ni 4.462542357404183 3.0361319569725524 2.5903480064033753 0.03680174220938178 0.01940874354391496 0.03512512583790725
Ni 5.386957449129608 5.26048985269315 2.451821279376699 0.10710393016905424 -0.6297958331220379 0.5991706520370133
Ni 5.592018157355679 2.908918453688091 13.570222339676256 -0.7495053678702447 -0.3060026709539182 -0.0847078218620412
Ni 5.831563412664438 7.959990410591833 12.25407243530197 -0.40567045655990136 0.2630073983393148 0.09820302813499862
Ni 1.936856287940213 6.658055489526994 13.75341706154586 0.5918070125830905 -0.29443013562497033 0.3051449509393132
Ni 0.5892827834875439 0.3004958508581001 0.25279783685578333 0.5307991054411504 0.050304661791823045 0.32980260158699326
Ni 8.128246983366427 9.168741554206116 6.753784446685736 1.2399216986189743 -0.005863400759312482 0.5548489473015025
Ni 9.125169678572755 2.4944125603976857 1.1027141176731352 -0.5268982277248474 0.7573336056654119 0.09407075113417993
Ni 7.218750028601066 1.0840300607731506 4.810807174379408 -0.5826073483616935 -0.06412948349005729 -0.992502898746536
Ni 0.9760100141873105 7.684123130355305 2.713272545311818 0.11175325601560752 0.07513689034415447 -1.8347343307976076
Ni 7.532494822436201 4.395428933933839 3.451241852881341 0.09692596119478791 -0.8292838707514686 0.2613739765009499
Ni 7.783219584040033 4.086141388336773 12.501744436683973 1.105752793912328 -0.15814752700943085 0.30108954992301695
Ni 8.334235526940013 7.395284348103501 8.57258642164947 -1.1708711236782159 -0.3452261352309151 0.9879589881295954
Ni 7.163789428898191 0.7361836793468036 -0.01004973031309779 -0.7441669863764667 0.13977596648077864 0.745529156831316
Ni 2.170306938515287 6.7070215451709165 8.891911872207166 -0.027392018859707667 0.8094701784596511 0.9943132124823971
Ni 0.10030991677647952 4.922976100396643 1.1367283795845822 -0.025874810884232855 0.23424960948033205 1.1284119260727405
Ni 6.665296243807611 2.1526780669124777 7.049305462724654 -0.29713622170222376 -0.6888193628440976 0.23389376880281013
Ni 3.558948982448019 4.441011119486819 0.5472099986901688 1.2636334404136174 1.0012276802140434 -1.938895119177938
Ni 5.972357878437544 5.91636938271242 4.925702298961846 0.1522422172685894 -0.14379897159724267 -2.014962234645846
Ni 5.868522187340503 3.1397493338701783 9.105154814698832 -1.075366982531619 0.4721776962535158 0.30073268080423043
P 0.5637909621357832 5.557815599447236 12.442060063491242 -0.267948544394674 -0.7803650335635786 -0.06896547142611995
P 3.9663414714074667 6.299055981438003 12.676750556790498 1.6294726239091937 -0.045135973106690014 -0.8007870488633563
P 2.4817048547067033 8.693426059953493 1.2151213700247312 -0.5479823020886563 0.1860113432992345 0.607189922797064
P 6.533798324359619 8.117040187796427 5.596957516117456 0.8745638256351906 -0.5103994587388757 -0.3503547147067321
P 4.739428437237983 1.0962920416403266 12.43798577474465 2.7758277647239167 -0.3221263159886581 -0.6605148594724496
P 4.172575618455396 6.635005148638697 8.006615046447024 0.9084391382263969 0.42373708425362505 -0.31583842609741736
P 5.040210825482816 1.355203585722244 3.8076579762772482 0.11866206732029887 -1.6041452008879986 -1.6637611127784184
P 0.2486871624092872 5.717239543570473 3.3570483722584883 0.7775777006264286 0.9422671425194352 -1.545903800747602
Ni 0.627325852020706 0.3105292076062417 4.648780743070638 0.12798951536881184 0.3683573219317398 0.3674031855485866
Ni 1.9025991514819163 6.842503698758243 4.686471779957244 1.2884571843255166 0.538993982547117 0.010950328363916625
Ni 6.101563498791672 5.9685282835227955 9.145947732502133 0.6454376534243529 0.2200859163854403 -0.08401490956007467
Ni 9.040954976148189 2.590952918664256 10.070027166145959 0.44494560001044015 0.8022422932526442 2.015392637315045
Ni 2.689512683275421 5.630778024176922 6.597256804274746 -0.684767561372227 -0.7279839488587011 1.1123168202830906
Ni 0.6112934030011234 -0.004862948791982331 9.046588392135611 1.1708315286895319 0.9135121818739299 0.780249848141953
Ni 1.6728507458719317 1.212917306253131 11.649784189174593 -0.5810302336825607 -1.3769427280624351 -2.2074041640617725
Ni 4.314316112425971 7.044153247618446 1.3566499172933721 -0.5333460402327201 1.1437781241161655 0.4200110415522895
Ni 5.972166853513055 8.496934184054485 7.609259552805708 -0.6832827492965846 -0.6078841206506111 1.8588409940378248
Ni 5.453397737151753 2.937863277960609 5.029654424298575 -0.8108251498256487 1.0809609316796287 0.13453117314207153
Ni 1.2173836509161753 7.863049809626335 6.904560419584623 -1.238637175479596 -0.4011555994086833 -0.5756851673205633
Ni 5.328249122336765 4.847421194548896 7.1265768639653055 -0.1878946763648764 -0.24206550598032506 -0.5198001832274854
Ni 1.0457614009005924 7.234577808058696 11.288082133225338 0.6716603345663077 0.7437090729034417 -0.8447711677537904
Ni 5.061978570449546 0.5982818767159541 10.36115369927914 -0.42754077427043147 -0.8801554607903552 0.0766867513297776
Ni 8.529262878417944 7.400423828214742 4.518321635354866 -1.6780968126748004 0.5493681266925894 0.802178015673612
Ni 7.511563948567231 6.274350091204139 6.5747840863724045 -0.16958687919462406 0.813030899227716 1.435626872167205
Ni 2.634133648023665 5.334598426969768 2.683849249085581 -0.7903041470541615 0.3509877203050407 -0.6353992953517444
Ni 2.639964456433056 5.428455339868521 11.267033915474181 -0.26687330905262424 -0.9209966631764333 -0.08199865046099425
Ni 0.9813496156480169 3.6993886876470747 3.6351279030490953 0.3573455442022684 -1.486497690875143 -0.7750508204395168
Ni 1.3920077211737225 1.1235813165672757 2.465666947832135 1.6797649444058425 0.635634294180686 -0.3680963549608693
Ni 1.4523534044621826 3.660792556475393 8.16603171343028 0.004796650057694965 -0.4585853022810618 -1.0399158408128608
Ni 3.7675481999896183 2.8528480901381865 7.014929163099176 -0.3440444562179881 0.3771096142030731 0.024295896432887192
Ni 4.383203338766566 7.446369870766749 5.7419690845092735 -0.9540139986427183 0.33125913152786174 0.7570073326742446
Ni 8.663580689608388 7.370669422119391 13.56955648136804 -1.0490172888934968 -0.9234263556638483 0.33929460023782854
P 0.47930973445943165 5.936354228383923 7.624729842761796 0.19311324445133837 -1.4064991015633133 0.1064200167281522
P -0.3084361202193447 1.8544335812358508 8.199315532416183 -0.35672539411976634 -0.537134560740875 -2.7551301271652484
P 2.1357041379079154 3.4605529534864163 10.3267255500313 1.0275763454109013 -0.49075443081443865 -1.4438166070668488
P 4.075844235264338 6.6347049666145015 3.743154317132418 -0.045513153940450655 -0.5854515026787078 -0.6361811678230914
P 7.297324947540728 4.213491337995869 10.272153367674884 0.5370044629209139 0.6848423804742206 -0.38741870943856505
P 6.816851780326911 7.825117717477876 10.246697932023027 -0.5322090984147995 0.5965414419442824 -0.4893331249868798
P 2.569885598420651 8.971631121408764 5.591911729183464 0.5924742138534442 -0.5571130607453308 -0.4701897192892096
P 7.074626271286872 4.075071039141408 1.2153105756642248 -0.08018165185691353 0.1284155471626369 1.794754962191193
Ni 3.1241398686119632 1.776868365468486 0.09345848948482018 -1.787079705034122 0.5638292964232419 2.2531016660988876
Ni 1.5429356043697025 1.2160009943198764 6.915650780914936 -0.24498679339217808 1.4625404087285971 0.6520502736448641
Ni 7.2228434198401095 0.8264929865050539 9.428300763746302 0.46161817557011464 -0.5632199449740172 -0.9089726421323636
Ni 2.8549766535824888 1.4227809268663456 9.313751303312939 -0.21651748230789164 1.5321262873475356 0.056137723533832354
Ni 6.774853586214337 1.9984390850253613 2.359145082439784 -0.34227065214701696 0.5294906710423719 -0.07863796151887746
Ni 4.33125365573063 7.081676000643001 10.42264917068452 -0.5879660415704455 0.5621555082652447 -0.1418405623192912
Ni 7.811163801565229 6.130562901614044 11.366672516087457 -0.5268090104451507 0.8312839319006329 -0.729431222828189
Ni 7.870845445830467 4.116114108631539 7.820119231953757 0.648265095570819 0.9909880047639064 1.4704298387790031
Ni 3.2102102417315606 8.449969341905206 12.472986998765954 0.5049615755527561 -0.1585545326398624 -0.49534230729543727
Ni 0.5512633656593184 5.1140646998601165 9.843430671790037 -1.0242470239273522 0.07789851224969165 0.4193530962533165
Ni 8.855669895819181 2.7304647885157958 6.119061381874832 0.8888951546561982 0.04387973210208572 -1.4919764546015273
Ni 4.214655680392752 3.018466699669841 11.48235357178779 -2.037130800323085 -1.1994805598847922 -0.8386146612340912
Ni 1.6003158531161008 3.32360627547801 12.3660930895921 -1.1485778594976541 2.286043668242547 1.5001584761916873
Ni 3.262478299641644 8.776649252055712 7.735537943602672 1.3387821578323136 -0.8374540652670868 0.5339371368494997
Ni 5.699255911393614 8.297531452163266 3.5389914260514432 0.23870918791358242 0.0393749022531967 -0.21729601234512902
Ni 3.213603208247478 8.685630423749362 3.358059894715781 0.08205392917896191 -0.7237812236312632 0.5877778368190393
Ni 3.6797586025496227 4.731087015535313 8.933423407583543 0.06546825690613886 -1.0235358567929405 0.9634270644265022
Ni 5.417002940824178 4.8175212456539365 11.341043338718563 0.6332557666461803 1.6262165788657412 0.1707392476315124
Ni 8.037191769360172 -0.06985144738801406 2.405170263889079 0.283006467169061 -0.23611623037542562 -0.3179421027039815
Ni 4.553624860685363 0.4895977911068915 1.5543689009215966 0.7566229527516325 0.7176689400859382 -0.07568376398655999
Ni 6.268046268696013 5.9129855126214785 0.2414373117036944 -0.054340265313777385 0.1040278623468918 -0.09341511982805202
Ni 8.468007552631917 8.659032477120562 11.546764447397868 -1.344385362951704 1.5808764601680452 -0.8455661528512598
Ni 0.17150490613339703 5.303188471528849 5.393899840671023 0.37289120524635133 -2.160322122972305 1.8276936219007427
Ni 7.546539702598603 6.625763180863438 2.3651368975712446 -0.4410156688284147 -0.016228803154036568 -0.2432014193569812
P 8.72692819313881 1.8465833664818652 3.3503252045589855 -0.8814865208969529 0.5609200931962469 0.8370113213027134
P 2.5091123831583357 3.272466174264907 1.8176703796967626 -2.4550301948490105 -1.5346421117908537 1.0235021753415277
P 4.919774158805215 1.3549761750978528 8.284441696623308 -0.3817959639351489 -0.5184015031077459 -0.5016584793214521
P 8.719105267659753 1.9976931781773581 12.30704728543266 0.4169761113807076 -1.0820788473341558 -0.12947612721666735
P 6.2480159408996325 8.244990501503914 1.207841501116719 1.7072500371999886 -1.3601917338563412 0.36232448547409857
P 2.0368078055726517 3.5747039905058444 5.645951770678804 -0.17473319928225392 -0.32514864775474966 0.9783047528692829
P 6.958819684921876 4.110119564572586 5.796846906744871 1.914751174941883 0.8962960751059597 0.2882173219460391
P 2.462247601683788 8.638729256574912 10.312240402900075 0.4073504153654855 -0.3082241040852692 -0.5820337352464106
