# total energy = -340885.17666099605 ev
CRYSTAL
PRIMVEC
9.09353287809218 0.00000000000000 0.00000000000000

0.00000000000000 9.09353287809218 0.00000000000000

0.00000000000000 0.00000000000000 13.30930455548291

PRIMCOORD
 96 1
Ni 6.536831651814688 2.2407101914027265 11.259765359450308 0.3093916420308091 -0.9453298406051591 1.0367163600389564
Ni 4.714860469018505 -0.039667809749467244 5.927990516672321 0.03762578077257391 1.1765630318566707 -1.2632266918935018
Ni 2.8626351018574434 2.015745277966371 4.489508171075404 -0.9068453113767155 -1.2981646414212675 0.435098017792399
Ni 3.9062544191509208 4.640793642552637 4.4950715945783895 -2.016452703148443 -0.35597334644509016 2.102020559017935
Ni 3.9361903298600236 3.056591067688076 2.650853992596682 0.7784027676308852 -0.808632255939388 -0.89103019872133
Ni 5.495767617300451 5.096506956427471 3.0076896845078607 0.3643446012279209 0.31613333163001683 -3.8243146350352393
Ni 5.7716563156611596 3.0400590246537056 0.254216990462188 0.8652705732587226 -0.7087130164442311 0.33551482148042217
Ni 6.0556655390106995 8.145632233504317 12.16547670169552 -1.2374171870295656 0.45619289078948533 1.288338399359465
Ni 2.0330593648406516 6.488999668117884 0.03910492005539269 -0.020526659198442068 -0.48972341844676304 0.6414275038236953
Ni 0.5020194027305118 0.4374398592667111 0.33838491340912275 0.6311628886728936 -0.09170765021864206 -0.7294780169057243
Ni 8.079949644484921 0.16114558933321124 6.939604235140843 -0.35264788161628297 0.5216063831982888 -0.7485972542336785
Ni 8.694536073790717 2.730624282974078 1.1313600893648372 0.3319512724988799 -0.29455097747355075 0.4727610795608116
Ni 7.400726382457285 0.640468442993599 4.566515846120653 -0.6955253141093635 0.5728199299576263 -0.19714524842886694
Ni 1.03789948502251 7.529090694598746 2.06845230471638 0.6446244134944382 -1.1938441875346213 0.11108991139999577
Ni 8.098309487656756 4.223964275880756 3.629766456964048 -1.0247987826657639 -0.5382241942606278 -0.5403546103400694
Ni 7.960787987761934 4.3166364709100575 12.583229061969154 -0.7553096332568475 -1.3317612464297903 -0.5353610137802199
Ni 8.511810621242509 7.7937761602760975 8.807791480815784 0.4837180927929476 -0.052434306540316146 0.6494804560351589
Ni 7.042213843056811 0.8624725020779243 0.3684572271135582 -0.5462236675263368 -0.0414261283552706 -0.5978506476740091
Ni 1.9083506529741177 6.8503584833543085 9.265884572282527 0.4457169309588259 -0.6403170443683359 -0.07341065168166712
Ni 0.2657121255555586 5.176748291815417 1.128581105673251 -0.02308002174791509 -0.23822710607084135 0.9127367371604862
Ni 6.290842490030992 2.2149754929498835 6.610172814345384 0.8330783047968944 -0.7362611012658288 -0.11250478946965141
Ni 3.899388801719155 4.239959800466816 0.33111190569796234 -1.4803455552308182 0.27088217310170126 0.3868052442242822
Ni 6.468439189954677 5.9060951078614545 4.807200750092497 0.35308779736717905 1.6086459169718295 1.3493797308425017
Ni 5.419991206626407 2.8611619495078457 9.060788119146391 1.4612062632982061 0.8725007724585748 0.22870168307890934
P 0.32748722343531106 5.844495515169029 12.208571864041057 0.139220865308257 0.5793165934255636 -0.3557059517163164
P 4.074248348203155 5.957737281894563 12.464563002795876 0.23079636082440896 1.2006763799651063 -0.34645743653485495
P 2.6085254150849178 8.751397935778572 1.2369305516328362 0.026288501382883758 -0.15621431454246 -0.14843029972166696
P 6.664486668380417 7.951739922404839 5.677736487901211 -0.4037056195240467 -0.44404571390399006 0.6978400782854691
P 4.816271549282147 1.040673012594283 12.370466760495297 0.9180617489178254 -0.48990570966089825 1.2545990981254909
P 4.224009743545867 6.211956091063355 7.952802047061832 0.5308276446862407 2.2115950622146685 1.9548547278309882
P 4.862457603501931 1.3062405509747885 4.043033886751131 1.7914413244369276 0.8273979665826653 -1.2902649269582165
P 0.3445357791453429 5.9688222986486315 3.560691980127371 3.036547395470319 -1.2195673033323384 0.00301847511134964
Ni 1.0694722316756096 9.093414806276764 3.977205801203381 -0.5839728612506523 1.0357323988591323 0.2859992312487978
Ni 2.0175185169057017 7.086635751870288 4.853304962515081 0.14639398601792852 -1.1965770130847522 -0.24822072694844347
Ni 5.821979927406049 5.619103205680631 9.179294132138478 2.2299581381028886 0.01560119687236668 0.6471119558029823
Ni 8.91461775999415 2.537004777865267 10.104650233771562 0.1997333208710173 0.19486159460101282 0.7998591377324482
Ni 2.5384051819506865 5.550256067169509 7.098850185425715 -2.8307349582847574 -0.680064499469603 -1.176268126324071
Ni 1.3299292044976352 0.14094248701777604 8.978577124505835 -1.543401603151039 2.2196099620993452 0.19316852316930602
Ni 1.6997631925107555 1.304139944846659 11.66616444374572 0.17509701037957587 -0.6430257015487506 -2.18290206515535
Ni 4.256382721104921 7.0681395057031216 1.3247977238132043 0.22537056182314735 0.3138121396960079 0.17375129498495884
Ni 5.695143328812318 8.053351060394968 7.900164131162793 0.7087266432909859 0.04641895358417166 0.4846796853752685
Ni 5.901430125421062 3.4931443074851223 4.615240814760238 -0.059123288524717536 -1.8348783125746402 -0.0012277017595140147
Ni 1.0391452990465522 8.104238471187234 7.011581367718208 0.6168207610186086 -1.0569895084656955 -0.956262942577895
Ni 5.151832011334573 4.537973064670553 7.0257154460946225 2.1166023134868515 0.6625956532608782 -0.386358900715483
Ni 0.8862038952059753 8.300613316801773 11.324155757427247 -0.5484157900816491 -3.1853515335916365 1.290813600372835
Ni 5.141838218543168 0.5833374124282872 10.193556796776369 -1.3319893032801964 -1.4499216915233224 -0.11479641371730552
Ni 8.590196875893925 7.459334202785403 4.786638453222684 0.24624766238247264 0.837064800248468 1.7200780422025927
Ni 7.224502806019954 6.292915815560055 7.307953249211437 1.1369665005109708 -0.626076989509554 -1.2950371515358794
Ni 2.829161806802703 5.284997708911758 2.4613293054077703 -1.9791573091320949 -0.19222981340512055 -1.1737882973250109
Ni 2.219094863408943 5.3312474178626985 11.139475195279264 0.6868218727980946 -0.2783550844399787 0.07001422440560845
Ni 1.2866258002458901 3.6302656919269674 3.649956828333252 0.171874132566904 0.5673139125377327 -0.003185596816833223
Ni 1.816424127652637 1.6032899006781713 2.12167584414205 -1.5001355933735518 -1.7295805823763888 3.1116989411024925
Ni 1.3812985725400773 3.9670901550694793 8.605197567967357 -0.6684086603982295 -0.018361790336639344 -2.6084350649671335
Ni 3.9208040719864505 2.9176782572408566 6.331821587242262 -0.2879260159578654 -1.3607887440103918 0.5244065716512454
Ni 4.26211164690891 6.618409736556898 5.834865463698514 0.9572996113725255 1.0219602847757046 -0.7148163011284915
Ni 8.2422692089313 7.430580451369187 -0.009476370762440928 0.920182394805254 0.5826029774863192 0.517679794450373
P 0.34080288383972734 6.0265298592075505 7.9495947579649 0.2256343570074953 -0.29422599003396427 -0.5728289288186909
P 9.052648497738215 1.8577633287715856 8.070070430209597 -0.41262503350086355 -0.5888037069803924 -0.895881099055728
P 2.0560478163207887 3.1771440349634616 10.321924746331037 0.054392715818267615 -0.14576972217036832 1.8663478439378307
P 3.8867124166862 6.662822551837353 3.57309555916966 1.2172579384728712 -0.33275242824393664 0.5259605464019265
P 7.073577438450401 3.977502250379905 10.263244177738741 0.6308425292189974 1.8950297852535558 -1.1624566743622755
P 6.733970354203093 7.849255805244576 9.8472086764997 -1.9310992772826032 0.07224002841233365 0.8381549479888533
P 2.478806166523148 9.143456518497963 5.704181391283088 -0.020233553438055475 -0.6277150393336093 0.0395268544500287
P 7.153973363899724 4.381900757410431 1.513188447434247 0.35346497820093964 -1.6126596661169128 0.9014750482037377
Ni 2.998465204610135 1.6493759260347118 0.26807462543472776 1.2158422890722673 0.4692564088416628 -1.5336041574446426
Ni 1.7553246792764345 1.7713565779945837 6.850432140971788 -0.013327056126209305 -0.6660352750700466 0.6908777880350231
Ni 7.133913030052737 1.09288807920779 9.034715141265123 0.46808707112390996 -0.45259874568032377 -1.0015362125933978
Ni 3.2312323693795433 2.0846742582746933 8.837791046256042 -0.8493464458292985 -0.8531447365294662 -0.020445412338545434
Ni 6.623274776723779 2.1867764470480227 2.4978234721324877 -0.07286840602495193 -0.06097422569052724 0.7592112823040988
Ni 4.5987087717258675 7.069458067991341 10.556767964689415 -1.2327102684721998 0.14261523570178664 -0.3953767879433771
Ni 7.351994138991283 6.3218150635046255 11.34467804275176 -0.3355441320564609 -0.4465142300491407 -0.8576505948196197
Ni 7.692928879059832 3.6854998115038464 7.87886889553139 0.6238802389685514 0.22956454529983691 2.0272351384759277
Ni 3.384094659482827 8.128527297889546 12.519065092964468 0.8244532821320446 1.7456034401672067 -0.6655976733119956
Ni -0.06460682406286734 5.141910966807346 10.003725657524608 -0.6589428869996393 0.2980250520650803 0.32883895212214337
Ni 8.787926657928773 2.485171639638692 5.713352219335984 -0.4832972032054451 0.40837242887209674 -0.2220011311302822
Ni 3.8319238802274085 2.6726711970235586 11.421273780751106 -0.5389685286258202 -0.13429334609965257 -0.3941493432941792
Ni 1.3653757962181945 3.326632624315507 12.48740232033445 -0.9320115262296981 1.7794846662956838 0.9690698645345761
Ni 3.3939975169440095 8.512228923761532 8.130148674827405 0.08409564219933904 0.069327482751229 -0.277543901392593
Ni 5.83975778446446 8.10496595382901 3.321763037382116 -0.8615121346575549 0.2717913151795319 1.3132891557675317
Ni 3.4375282595213097 8.709704086871756 3.508412349429406 -0.5177101334676761 0.8358486684531798 0.26365814454943626
Ni 3.7841191771296714 4.43931732491264 9.248888759064025 -1.5251958787762896 0.6555611150116 0.4991804500946049
Ni 5.270120688887429 4.34657238161916 11.391939861928073 0.7000118891258074 2.172021413687104 0.37901634430748277
Ni 8.375062071654575 8.930313197990477 2.2445076507928 -1.2934600368567466 1.5369046825727852 0.713389595984294
Ni 4.662990956659843 0.5870584861409739 1.612528930228733 1.030605104934896 0.08394857509851349 -0.11511497339898885
Ni 6.282803806839362 5.9255734555950195 0.47789607832920356 -0.9049745767165639 0.5731361756464646 -1.227596344284402
Ni 7.935253347035579 -0.00536427512979935 11.182491243887508 -0.2281347548318458 1.1323066331414564 0.14943405839583296
Ni 0.2139471888266507 5.056786404186475 5.798092125510014 1.2369482178129472 1.308226910753276 0.24088819784277227
Ni 7.702740801190792 6.667041951159656 2.7735393933657746 -1.7914996884786887 -0.7300444309321557 -2.2937014418981208
P 8.978990880258346 1.7952180086448524 3.471839068967396 -0.6376271562409986 0.33011319084887664 -0.44060017855755096
P 1.9525270363959948 3.48934321068184 1.3828635695731988 0.4660795537755779 1.7056140442584624 -0.9523831479075147
P 4.910362335462914 1.1830686461890074 7.824194028235376 0.04817990213933638 -1.0084717633709663 0.31657119049838384
P 8.503026268343058 1.9221910102339155 12.24963098434292 0.8079771388538923 -0.29409383533147415 1.158349079951805
P 6.499539072890621 8.004346010938301 1.312025856683516 -0.12075263130074042 0.17519985450602732 -0.7716394807651227
P 1.9379955706265095 3.724347384574711 5.903860826797898 0.5969240220946815 -0.36335241251798067 -0.6414750692321791
P 7.358177741446384 4.365186843715616 5.936509338407523 -1.7982876579347997 -1.0730853855862938 -0.22900815857573462
P 2.680664412550078 8.637983391925617 10.437835464998587 2.620735222490725 0.009664005452325292 -0.4740959963221513
