# total energy = -340860.80915164767 ev
CRYSTAL
PRIMVEC
9.39856354551086 0.00000000000000 0.00000000000000
0.00000000000000 9.39856354551086 0.00000000000000
0.00000000000000 0.00000000000000 13.75574777021985
PRIMCOORD
 96 1
Ni 6.376351998871326 8.744592622307769 2.162335015324775 -0.16378184247707275 0.6261577221488184 0.39758613688987016
Ni 6.096650750142389 6.396258156290945 3.7676303320468674 -1.6606613908071723 0.40058918538225197 -0.19010196842884033
Ni -0.014945595622605983 1.3185338671179827 4.210427672159132 0.4279796615800629 0.6058789172951242 1.1210434015228112
Ni 8.384242300482631 8.245604090805193 11.733034110403114 -0.47860699681862734 0.56394962405119 1.120358973861277
Ni 2.294038964877474 4.242455156880019 12.569741222906258 1.2011618042419572 -0.7919200853910298 0.18591724092353143
Ni 2.7664201632096335 4.346074319085547 9.273437570370737 -0.9495649617324291 1.3422066101328305 2.1014091506861807
Ni 7.360541369272803 8.891915104627193 9.195909760201378 0.412921738805676 0.9324229027355039 0.8525508116992091
Ni 8.611565355019149 3.6879775066779925 4.30564545848298 -1.1100874167319397 -0.6095846482814856 -1.7488725978367816
Ni 4.844705705176439 4.751904289519534 10.438081239019706 1.9839760706769767 -2.31546557304809 -0.028595295139189462
Ni 7.691107643476236 2.3556935412101963 6.049860001930124 0.006653757871091767 -0.9839740353399182 0.8617206511239353
Ni 3.779669891845986 9.408243985723349 2.4904097303535413 0.905028826993267 -0.34275041999691297 0.520005357259756
Ni 1.0489360741143023 8.840815115066064 0.29031786601939996 -1.847386986564612 0.3197254198566494 -1.2663410691527675
Ni 6.029742376832534 3.72164316101089 5.093766697151975 1.3412398753441868 -1.0221983689284395 1.3027792573751436
Ni 2.5161176210003244 6.171059177097597 7.450526035459143 -1.099778578606764 0.5101189513839796 1.8742413877532949
Ni 7.277025734319668 5.2876318056081795 6.423824142934829 -0.018209323919175093 -1.1652499208366964 -0.4204643270396243
Ni 3.6246123917945754 6.418457563196112 10.837465674629152 -0.449284079484794 0.4278462213259922 2.4578152137933156
Ni 1.565161571012338 8.799301660239596 11.461798147787423 -0.1267183619658721 0.18606327958309246 2.370967462770136
Ni 1.5421350905222206 1.435715156404017 7.629322427111346 -1.637133739998877 1.3409611677615034 0.9190580513928236
Ni 6.984580033531712 6.457658971410103 1.2400849977290191 -1.930942697100081 3.1230074241367762 -0.13818213963109752
Ni 5.201306000178903 1.1882321832343146 11.953180421877487 -2.0347458450306766 -0.27513066396541 0.3856518473461294
Ni 0.3242786352451102 0.21996773876853193 9.607839398324378 -0.2752296514371195 -2.1033151094596416 0.1099534838027074
Ni 0.31834250256039265 5.288609256208576 5.287571654802002 1.0091646756729329 2.22009512926588 1.3466492192852162
Ni 3.235079530409512 8.658586368036314 7.910737973816361 0.6699520936259494 -0.44191709759676145 -1.1598742583470798
Ni 5.898876779140944 6.498721295190236 12.986704731621304 -0.5865385650952996 -1.4538212836880446 -1.8155243335280602
P 2.7594370305548748 5.3559405648743725 5.57520435123935 -0.16906031726719273 -1.3659126955005185 -0.6880092082379764
P 0.1376945939055158 6.658177322943431 0.5570321797519098 0.5931211034088236 -0.31881344956534124 -1.5763186655940336
P 4.964255432455744 7.627000042079056 0.8393340109917092 -0.7867048597386773 0.7453077848491293 0.8880448908407609
P 8.518331605442837 1.292340070740041 8.293051798603686 0.8720228043808917 0.5757648715185633 -0.1735782597422043
P 0.26967110179871023 3.22122604786158 6.175216161718323 1.7281677611892623 -0.12376673553671588 -0.2986205195572341
P 0.292150585895144 3.2143650965318713 12.163340759669923 -0.1062544376845654 -3.0250861889082543 -0.6841882918299894
P 7.818523968376041 7.339178434516054 6.237791797270651 0.12635532219949852 2.0714385724660196 1.3697253843783894
P 3.6692555682550068 2.5252812203790445 0.0662297970276568 0.5902517522808286 -0.8217065726248429 -0.5072670837574812
Ni 3.590815157573162 6.174809203920273 13.510510169954147 0.029176107343323945 0.4248760829540747 -0.4271473954867547
Ni 6.137186754368462 8.85451822059855 13.026954079661682 0.37974319517117827 -0.7352750832034757 0.8649160181327813
Ni 9.052592945630886 6.860641177114088 10.15856420213469 -0.9572443326545579 0.25135901546710904 -0.13750979615442124
Ni 1.8643178461145569 3.7410042017495195 4.050297767405469 0.1537951635780061 0.7854781864204279 1.6873885223893712
Ni 5.0021410417845855 9.127978823186492 9.448369272725984 1.0880566621841457 0.26246129602785767 -0.04888566995710936
Ni 1.352152528633554 6.362009791023195 12.260181677904237 -0.4427249382100375 1.619816331766352 0.9179851300436191
Ni 5.986537180582301 2.359264995327031 10.313894260526595 0.39018778754326994 1.5260042336101978 -2.108145183858434
Ni 5.152207904635893 1.4437039353495678 6.0139443315036205 -0.07156845626660577 -0.8458559161775369 -0.8760722918599171
Ni 7.332627635780702 6.883611266223413 8.255058105794992 -0.08747201487073968 -1.6638354176597798 0.7453219259165164
Ni 2.0739434056458133 1.6787526090546068 3.0757165484346225 1.1819384372359707 -1.1142991408204421 -1.2157659273083772
Ni 3.5843583444724643 3.8380631666562306 1.7340772528934132 -0.06570376995571264 -1.3361457486507313 0.49157255584035986
Ni 1.9646475111072113 7.246123257645583 9.903285120570475 -1.3976699333074574 0.24431676390834697 -2.530991895087306
Ni 7.283792700014722 0.038232416320713676 4.849712319934434 -2.681066929501247 1.3382931340110369 0.15481383465050758
Ni 8.149738743458581 2.593317421304742 1.596464426490046 -0.5256180754608432 0.2653270476114269 0.6288928616917943
Ni 0.2748130558706054 7.3755320780000435 7.377069682982976 0.33811009301142414 0.05314547367472783 0.23544928621538808
Ni 6.478204231145367 1.4360817003791655 7.887930479854987 -0.8202158470119293 0.24509709371779723 0.9386542283571964
Ni 4.339429534715542 5.941001140592661 2.2120759726088144 -0.2623476532681288 1.4381028445115234 -0.7958703282880294
Ni 1.5285729634417147 2.0719321130642276 9.943163225353972 -0.10770659675005967 2.9650447594446416 0.2449556830439265
Ni 0.7621116541349744 4.682834246612647 10.757806270265851 -0.38477895782287275 0.027331855045733572 -0.9404701985200127
Ni 9.11733964934371 1.0103455725255586 12.38350210884584 0.3234491485651397 0.6765986524081895 0.3665156407373107
Ni 2.4277617258625313 7.722470649760122 1.5544406296674085 1.0359864238514676 -0.5359739647738705 0.90028745565354
Ni 7.394930712992535 4.079794218985136 12.48107141574872 1.2694325635938974 -0.08765276342297808 -1.2907871180102737
Ni 6.191839400919495 1.6221638584297102 0.35111811293312173 0.31583482655299155 0.22602645023959136 -0.3561718356091414
Ni 9.12276262046322 8.313170363557624 4.651850002436414 2.109743124473173 -1.3016531141905001 1.6300223257650766
P 4.4975979592739845 7.0190351671957 8.341100074607615 1.4756612623812715 -0.3018269423096737 0.5735876613615865
P 7.489931392500333 6.153427472036593 11.6439244504754 0.4998988163178681 0.3578533370766224 -0.7624169337255902
P 0.5643282845700641 5.6162055843569565 8.810019782015484 1.094663883088018 -0.5429162004196585 -2.020600920988862
P 3.8079313721863057 2.8242401256484913 10.301473119050783 -0.19144202739650254 -1.0671924171406266 0.2524777024525845
P 1.212189121507502 3.4222895160758986 2.0923044392317287 -0.5347082106875695 1.781080550027894 -0.7321159687492037
P 4.328940737888207 2.4530532601477986 4.316828809150405 -1.375217260730896 -0.38019828043072584 -0.3046003912897528
P 7.456782659158029 1.8987917769054754 3.6380786535277347 -1.7926456291576742 0.5896498570307716 -0.1629691167677903
P 7.149242865444714 0.5576797407746726 11.129279791952236 0.2858467648313335 0.3020776248678991 0.3306382101144112
Ni 5.359793975895167 2.110513216089506 2.443626500992049 -0.51623020648804 -1.638188920736269 0.5100343620899732
Ni 4.59025839647891 4.826331513601673 7.841683908467366 1.472612705362935 -0.7753215576024002 0.637375959462141
Ni 5.217772283370203 3.6695093294685712 12.728853263236623 -1.5620356733124583 -0.018628156624148563 0.4069868613784797
Ni 2.4767282415170255 1.690914350178775 5.408883612731058 0.29518012641711744 -0.3684964186127654 0.5977917694116156
Ni 2.05540003992867 6.212318870710501 3.827812153484569 0.04744842328995054 0.5520580148199267 -1.674035241010917
Ni 9.47196624601845 4.523303030351728 13.706818904911342 -0.2568066688452416 0.0891638007508658 1.5156411452083187
Ni 2.7745217249167684 8.322672311221096 4.771758754840095 -0.07799595705950438 0.8942337932602922 0.25211337713463033
Ni 5.789214340627193 7.015144161921043 10.333744026565425 1.1235075467925875 0.12144631493365536 -0.13293066142417106
Ni 1.9374386698750112 5.423488040499872 1.1901071966456527 -0.9879237640162858 -0.41775926940363534 0.7536695265502632
Ni 4.3903039587535035 4.605963396029517 4.098648677152983 -3.237504561446108 1.2404564880765216 -0.3220365844883292
Ni 2.6486749601156774 1.8739889679204063 11.98032065359639 -0.04181642181515379 -0.5234187538166791 0.3279431797807513
Ni 6.361680841301907 4.060207612723339 2.82100138067833 0.6043552815617462 1.0813327131967507 -0.5102912152957857
Ni 8.996539913123515 3.6282496358556675 8.294041467336587 0.29830710208187333 0.015261039924128559 -0.24518425411496486
Ni 4.534346342423519 6.368062465894883 6.17450093103861 1.5441654779002567 1.3981921243595148 -1.8856154339181912
Ni 6.083276594331191 8.374542982986386 6.919884082061601 -1.4469862630440822 0.9402241439474776 -0.19085864408920677
Ni 2.5408640386046013 3.5675443144329453 7.32529299685234 -0.8984887118819043 -0.15475649905001088 -3.066767884917757
Ni 0.8293038640614835 1.8437255935619663 0.8001758361696583 0.40658525506468685 -0.8172588212661344 -1.3571843144885851
Ni 3.901494071483905 1.661628426420732 8.01392010282075 0.4519387434988216 0.36865736967066187 1.0798962378605401
Ni 7.378990749355293 4.863023505370415 9.893931670209755 0.06417396357474754 -0.5331164407204173 -0.19626413137549426
Ni 9.333779167387348 7.60917096718528 2.345203804526515 -0.9100329650760779 0.439022806768102 0.8786544507647964
Ni 3.4872429881849607 0.03864595311318925 13.401496232319506 0.09046349339889581 -0.2368063144639147 1.342423868349959
Ni 2.882370240681706 0.2824512683988986 9.82077889133352 -0.3146374638107807 0.6505310087868602 1.2622800117095165
Ni 8.396826976962739 5.202142472327319 2.1218788988881583 4.197125878973274 -1.0872076839202889 2.7590826840550933
Ni 8.378668952347676 2.3626484781745583 10.358367322988306 0.5720660825107374 0.12174944799637095 0.3216396061602267
P 5.096361640524759 8.506310842770649 4.439447167401146 0.13363025859435695 -0.22029854661687864 0.0362371279551634
P 8.035236044760174 6.505676232154597 4.294806095238387 2.131437064506839 -2.016043383525167 -1.9560891144587216
P 4.074032899580875 8.373932076361138 11.615490976423663 0.15460634662539177 0.7174560527441838 -0.8829929302391503
P 6.702510346809507 3.7997170277175862 8.03127924954126 -0.6786773893140892 -0.2178788814317925 -0.04300195748282272
P 8.29317022050335 0.3565880768699578 1.2586029873248061 0.0496513444785403 0.45196085498600874 -1.3661821471118214
P 1.6074927008602924 9.06543138332456 6.731994580256668 -1.1718142043177755 -2.180262056429342 -2.917588365734891
P 7.026845373435409 4.427052341903037 0.7659707042938487 -1.1712765866467505 -1.7611814971111217 -1.014325393938266
P 1.0677801938623372 9.156635043192356 3.2703880536361543 2.9242719484026543 -0.4131593087377788 -0.6629196122592003
