# total energy = -340889.3840682983 ev
CRYSTAL
PRIMVEC
9.07531570078228 0.00000000000000 0.00000000000000

0.00000000000000 9.07531570078228 0.00000000000000

0.00000000000000 0.00000000000000 13.28264187506768

PRIMCOORD
 96 1
Ni 6.064715757803113 2.5363147429481825 11.381045600168637 1.415198171999208 -1.2753548426156034 -1.4590079700953065
Ni 4.733448641871713 0.22677943059331082 5.845942570603566 0.27671214951991696 -0.2647500920620343 -0.40102755847125127
Ni 2.966557303378446 1.6384120960023119 4.724237196570568 -1.0075600501899744 -0.5275235200136722 0.058489768705776685
Ni 3.5267765333683245 4.667498323641737 4.81558206282189 0.3518829784258004 -1.525195364555657 -0.7660313905497259
Ni 3.346613368719708 2.85796207729617 2.5545706477440295 0.9901842779156881 -0.9235338277759901 1.0641276621723736
Ni 5.191316462889847 4.238263123239481 2.5622746831293917 0.7858126869417111 1.2464204189694406 -0.07298744810131946
Ni 5.256649659661224 4.771183804001924 11.270679780019117 0.3444684311292842 0.3059545913248021 1.0805102172954553
Ni 6.038533472390497 7.958171447202567 12.0660576794659 -0.7651726420938564 0.3633112748674001 1.8353231134215424
Ni 2.1678115543245147 6.434153703930247 0.4258056386492485 0.1358270091353596 1.4700043212058103 -1.3923593197278215
Ni 2.6433127134905554 1.9007159418535589 0.3391309297890292 -0.3572403860829718 -0.7855357791312407 -0.5546872249126577
Ni 7.993274767818164 8.956247427383952 7.035244525110509 -0.049800725572211005 0.27355817727196763 -0.1571327125916713
Ni -0.41361204465257906 2.4234178172868495 1.1277876505264248 0.5561046740854746 1.4073995018903953 0.4496280930877741
Ni 6.975695934481941 0.7295019988044614 4.598450600208528 0.2391046235797882 0.5436582207920057 0.04901936732149622
Ni 1.060486925339985 7.572788171623104 2.676013798075401 -0.6356530632337634 -0.3131752774429574 -1.096201916999099
Ni 7.6468790479172455 4.130058135726613 3.6392051727463675 0.9076714068224367 -1.6290494203288461 0.6173943741338915
Ni 7.631641593079193 4.036282899966279 12.380099899368213 0.2834528106778602 -0.2480096393789019 0.9407720460311475
Ni 8.358311185894996 7.352666392530208 9.160373962788897 0.7193211309773805 -0.3107047044152778 -1.1281139352163474
Ni 6.989563016669281 0.7112624295766361 0.3687763556222536 -3.472744559864167 0.9992206770863438 -3.0587689258726805
Ni 1.959505836100674 6.671282624396885 9.13432689957824 1.2170429942485876 -1.053077060785167 -1.9953660576814731
Ni 0.18986467699041384 5.296635500052208 1.4198748670075239 0.057611222755565294 -1.545489596028319 -0.14999661576752232
Ni 6.5489564458607825 2.0408025129555147 6.767545404154306 0.11295318986097967 -0.6356708038455762 0.4024635195868295
Ni 3.5586218156951426 4.434135659135666 0.6407690083735034 0.7690462661166497 0.490846990528245 -1.6305008080633918
Ni 6.044877117972271 5.601783910698241 4.733070201212543 0.8242067133388773 1.4426040748159865 -0.616247662123958
Ni 5.564039673252463 3.2516764925667174 8.769811404614988 0.2562685369535844 -1.0271068619736505 0.3726847456625001
P 0.4159425856903468 5.73810422583963 12.509538402714668 0.11007535409255237 -0.07546624865911519 -2.0131894590161394
P 4.196834307673244 6.3616328572293055 12.505420932041632 -0.45862155483563594 -0.7038767713978523 0.11168949265720764
P 2.29142642767122 8.681855261196619 1.1576073224185475 1.2986950600034406 -0.35295152889963083 1.8668291544496236
P 6.725516710229049 7.825154546927794 5.587847856112587 -1.9306639895173974 0.5569338548549893 1.0454133735923221
P 4.742932346639888 0.9969597163665659 12.40026252796482 0.13656440152201643 0.5680014255230604 1.184012031935548
P 3.9442773507416335 6.195627184866194 7.889570229295284 0.0821788847926004 0.8171148394891024 1.6457523349058236
P 4.695132659545175 1.0749439030392214 3.6072999933368033 1.6466689331828221 0.24171069374406756 0.028643888988937764
P 0.3962809145130736 5.405811546330812 3.6101950190028775 0.10817428041509757 0.9890249675002645 -0.5161011371093434
Ni 0.5946772956686177 9.095372015035739 4.672727520471806 -0.6485042081648187 0.0505705138587 0.4849290823819133
Ni 1.6759022246121966 6.70673988231962 4.793625244337563 1.4156198329176588 -0.22837412453616154 -0.8112082441966803
Ni 6.1593712991735075 5.729174115321081 9.062241668024544 0.6513509335849944 -0.11548135559947208 -0.35888126412050453
Ni 8.739365535948698 2.5589485799738547 10.262235251801712 -0.30125050098091344 -0.10043011769330445 -0.14732626802421078
Ni 2.213215358109374 5.429008052921677 6.637389043346452 0.36836349257932693 -0.40954022392795275 2.125467991407598
Ni 0.8367867493187713 9.270253346023992 8.880880561721 0.9447726825501083 0.15001307082775456 -0.33512709912370026
Ni 1.6155332254563135 1.4572052700634182 11.24125942201197 0.19577690732643055 -0.39581773213553767 -0.10205865443566295
Ni 4.545262898261312 7.2062361758464775 1.5818166130594498 -1.7790282954845555 -0.605616407662357 -0.638929677102506
Ni 5.774341960901182 7.825608312706176 7.768339441348196 -0.5997126405834123 0.7326507582067511 0.3969888696255034
Ni 5.237872831751795 2.7428961512141727 4.88752027426339 -0.24997704751791788 0.801430081763994 -0.6643244630265269
Ni 0.8881230868901911 7.640798586486933 6.875919192536732 -0.13504385111243195 0.8039032258948349 0.4803239795097341
Ni 5.283594271581522 4.795423971883067 6.884167746856152 -0.8497534514597301 -0.8357612509456961 0.31827891721810997
Ni 1.0418734531107732 7.384892838110866 11.059273933997373 -1.1331018753492423 -0.334348826196779 2.121121027292811
Ni 4.847915597126247 0.5006670092350821 10.327825280003655 -1.9430564496444795 -0.9901845350260043 -0.22121231668039967
Ni 8.42086733610268 7.059406645277771 4.689769148044705 -0.03676600387543991 -0.06405260750553485 -0.40294765831209955
Ni 7.475482638106962 6.338989944888065 7.063323551476761 -0.9689505653478926 -0.48761562807514086 -1.120219362959619
Ni 2.418517146880329 5.479285301166355 2.474794993778324 0.27974656547086657 -0.45778646052885036 2.1969526297111455
Ni 2.4515966721243445 5.1170259296532175 11.356924318921429 0.2821999121073656 1.1699822933153592 0.48467582872052656
Ni 1.161740221128047 3.1903545852762334 3.751563024662983 0.2093253354348266 1.0809084811751384 -0.6722673720226874
Ni 1.4789588014790305 0.8940057064411298 2.7475145793065407 0.7432161924274233 1.0483755415444396 -1.2689463679860984
Ni 1.2970804021881321 3.1823773828922852 7.9899740755462165 -1.0495147973552055 1.0352899120050751 -0.5850115869278119
Ni 3.553902651599974 2.629173371836186 6.91369428605544 1.3172818218666926 0.6063759115362009 0.060196724094554385
Ni 4.166159741054651 6.724273391996283 5.799094884111897 0.0826905343216963 1.961944544798234 -0.3045021751489917
Ni 0.7547976258861201 0.008243109130079486 13.14157968010678 -0.42398519570868914 -0.28738891250747284 -0.7719310438636124
P 0.2903846872806114 5.804217899749825 7.685628830327918 1.0239503186225396 -1.2890626791199993 2.1516266520808367
P 8.591791829503448 1.766564627132833 7.96089857953064 -0.14183310612012348 -0.2349980576105824 -0.004907207493630258
P 1.8928022666785842 3.465463701393407 10.077673281697466 0.6415159497724436 -0.9392828630801308 0.8840031166712196
P 4.34102292141177 6.14525918346584 3.5298085962994703 -0.5380167062355121 0.5948270303563369 -0.7754886793078838
P 7.1652429754274864 4.097214568687355 10.121186697249588 -0.32521986731231733 0.39583547274735054 0.1834556667569163
P 6.586010959323421 8.005063602740517 10.087741436788196 0.06645118964469847 0.2101771419121606 -1.315771041649121
P 2.5001586857267397 8.493034245496483 5.717074904606316 0.9616578883412211 1.1681195290750077 -0.12994123977854394
P 7.227472414274734 4.198395261950877 1.4935401110015436 -1.7091752792471595 -0.26795934302795144 -1.2870214803202544
Ni 5.240114434697 2.870440636201663 0.22046119589512594 0.27606885950896326 -0.09847865039388846 1.2849774533070322
Ni 1.3539009529570716 1.1680021888697125 6.625767194230543 0.5166297559193038 0.06813166267091492 0.6531615044311719
Ni 6.72493589003272 1.0501138396461822 9.183897180740198 1.6815189509824717 -0.1722824237489162 -0.7625130929838223
Ni 2.9803880843035158 1.8785903224996734 9.036220923229031 0.7169978821608426 -1.3172774509913183 1.1279267589062059
Ni 6.355879107159427 2.0724209123931425 2.391658750457924 0.7922959806732097 0.05152439313153707 0.5467492010125036
Ni 4.594151623224142 6.953506787919082 10.24892630152178 -1.7663093052559902 0.6852879526520714 0.12100459941054645
Ni 8.369428447465346 7.181596694080358 13.479489979951962 -1.2047613486677573 1.5233770803999958 0.4733418917649462
Ni 7.831180556464702 3.8597589368602834 7.816063803323698 0.6435604910062981 0.7845001387778747 0.7381873717542642
Ni 3.1855174420786856 8.371025703005248 12.466675687288744 0.6593727754482064 0.7062211032603127 -1.0650170067558626
Ni 0.28645416810827024 4.916270873981645 9.80880616762771 -0.4166423821903728 0.407733252626201 -0.1529680396910204
Ni 8.65928495137992 2.577807085723393 5.622555492969436 0.12728297622009047 -1.1643222668161046 0.10359231747136997
Ni 3.7104246191949106 2.8081385948298743 11.459744921708023 -0.5642154761180671 0.2886574948072513 -0.1629871144899193
Ni 0.9923948326360474 3.7056056266284987 12.682758043422488 0.2963566632237219 -1.3800208527671267 -0.22072740662418114
Ni 3.3188247524516217 8.577788617582591 7.839083341260996 -0.08091055960313807 -0.22771823611971748 0.5733686033722447
Ni 5.811841164826635 7.951346809895708 3.5668413290047463 -0.3409367638269419 -0.20132997593417584 0.10442612622657499
Ni 3.375491022855911 8.392879062892105 3.5976964944031358 -0.7156835342247934 -0.5564327468488546 -0.055377191218723976
Ni 3.8480971563558772 4.55373924300148 9.42916121408166 -1.5149826856887136 0.3997389215668148 -1.1432677601386505
Ni 7.6514802329100355 6.148598899594729 11.151972837331385 -0.22160620968470865 0.17374949521274594 0.4783375452073245
Ni 8.28294069010582 0.2124186512390911 1.8955257688804303 1.9662598843441361 -1.5066772511468116 3.516266908626835
Ni 4.366098018325135 0.696964269899833 1.5099836752785347 0.031450505199797446 -0.7308630701787091 -0.6818617005793418
Ni 6.070179097774827 5.894190578287321 0.19757143497044635 0.8629524666485073 -0.8663789758315531 0.46388434589647204
Ni 8.576499922771989 9.154996838315077 10.722704965793085 -1.3411092633035937 0.22632315554440374 1.5545445071417356
Ni 0.05059942194732816 4.84656337510667 5.747651457816779 -0.37197075031461097 -0.004895894639720601 -0.5168907228901743
Ni 7.357058845264942 6.211109673224573 2.5189600169882014 -0.281764881452476 0.4767709720511531 -0.33249120416274996
P 8.650726928799644 1.7544944574278836 3.5702146238012347 -1.1468696185572957 -1.0508625696323515 -0.8425420213129554
P 1.7611738896856604 3.56035520096856 1.4595766500212404 -1.2501734582539696 -0.07398709301042741 -0.4498877745070639
P 4.930455592213854 1.162275664746537 7.906745264007028 -0.5486451324836358 -0.369069517507416 0.6896125481693544
P 8.509605771722978 1.545644220269985 12.40497806193376 0.5126347758272978 1.5062067392682963 -1.740529882299041
P 6.50888892762969 7.958997300919221 1.4069243916925138 0.9641747412258039 -0.48965297022014387 -0.42841083558021054
P 1.9944004244582163 3.4101859542709656 5.751901428097101 -1.2499171192687892 -0.44908404765884596 0.30516886219871314
P 6.908084833503087 3.997177365185356 5.786316839792672 0.8285253953188892 -0.6879379886804088 0.011389987004496513
P 2.581927278991097 8.50967837424752 10.096029922496115 0.8416179668367892 1.7630555742053833 0.0945003824724308
