# total energy = -340897.5290544122 ev
CRYSTAL
PRIMVEC
9.01187957853300 0.00000000000000 0.00000000000000
0.00000000000000 9.01187957853300 0.00000000000000
0.00000000000000 0.00000000000000 13.18979669793752
PRIMCOORD
 96 1
Ni 6.398722748052612 2.0808159158419675 11.400151794088826 0.099753403341254 -0.9579814679308987 -0.6896279747883219
Ni 4.633989489985502 0.33942432658658817 6.0553295897820405 -0.23335383713894006 -0.07312320234823536 -0.7005376797222903
Ni 2.6984000105363553 1.5485382714668137 4.73991151560056 0.330667777800766 -0.7375559088178524 1.2828614354052938
Ni 3.27853974635937 4.179709661743135 4.603450033103838 0.18203076138493168 -0.0577354070382554 0.6355368493708732
Ni 5.087683546067425 4.397616905427803 2.8090839132218433 0.026250963276728982 0.53234588110298 -0.8903660827747698
Ni 7.178718933139269 6.146561350801136 2.6119490515344106 0.8012300499380459 -0.8647144436449365 -0.5175813211992957
Ni 5.138925092287071 4.478138047790189 11.279980184780046 -0.23787795026153868 -0.08184746959511066 0.10277856332082298
Ni 5.411201004340208 7.981398018654145 12.348392557909884 1.24854697839414 -0.670061108399988 0.5795639335496794
Ni 1.8015828328986494 6.621460359091084 0.35622246977220523 0.7196993402524057 -0.504907325276053 0.16874612846088358
Ni 2.533428546396921 1.6256979828161984 0.44567438461149456 0.7944783330365092 -1.038829035506585 0.19465976300285187
Ni 0.6883967393883917 -0.1883816232345407 4.698521755931621 -0.1500907181432254 -0.02599411007091652 0.9044153617789843
Ni 8.65889308754273 2.3270114489363203 1.537244584213479 -0.09576587944841572 0.3449302012570511 0.35512745350502706
Ni 6.890699267789311 0.6434085362784566 4.798448178187565 -0.6086351398840228 0.07210324572415323 -0.5914593994356846
Ni 0.7870083284411257 7.441361146122974 2.515611159652133 -0.6063869672797944 -0.6817773683956516 0.18202073408260264
Ni 7.472659403249394 3.8876977338227747 3.6656819743235562 1.088069774810268 -0.37772770740304623 1.0796028749898374
Ni 7.6128301753036265 3.853533699049881 12.449875331736727 0.8491217314130022 0.18971553162369906 0.4830979427104454
Ni 7.919891941807667 8.71574002274384 6.930235283867433 0.08529403338281438 -0.28605142464297184 0.1275493425075997
Ni 6.832500550679486 0.6919825661982398 0.4287987392631112 -0.5277430922236459 0.10181388541470854 -0.8164463526671681
Ni 1.7326960268305929 6.574102932889143 9.216370650260126 0.7933236506067757 0.34797284473811685 -0.8651517882926713
Ni 9.122725507940007 4.9066709366112535 1.3764348059770046 -0.8594999893235326 -0.3106473688147811 -0.0923923349904925
Ni 6.438996837052893 1.9397529677279846 6.855383514830193 -0.24463480936939808 -0.10639610546875225 0.6112419813792506
Ni 3.3796079737342066 4.352097902621713 0.5709431129040651 0.5936744048091324 -0.4963589214854096 -0.5217084559937918
Ni 5.891065558174832 5.646483151491545 4.852961036626297 0.28136147536647027 -0.4589660826592482 0.0933780959425295
Ni 5.372630160544908 2.9971348004827183 8.980998384314876 -0.12667979541845278 0.5730963235474646 0.5344966088973956
P 0.3482316363158283 5.539367953045062 12.375089349419042 -0.9577546966320732 0.20418595732573222 0.1899998956333373
P 4.034221880847962 5.952887050800011 12.508740927921519 -0.15432429660859873 0.9727164601482281 0.4271453386042256
P 2.4753289599604003 8.455314732090429 1.4432272512744935 -0.781459552179338 0.34967465792057195 -0.3997867440856147
P 6.225054820300452 7.75832696807819 5.778107057130949 0.4009959339023675 -0.7323987900969451 0.766991183359834
P 4.647543356590205 1.1301437469611029 12.385179049585682 0.1928517632598356 -0.24562622674838988 1.3171594373562154
P 3.8694486780551385 6.272736674160484 8.314715895765103 0.23450543424488 -0.960205986386043 -0.2926792143721347
P 4.733507674105013 0.9216088578435174 3.759052254322237 0.12482705848043017 -0.22426241636063313 0.2899772420599393
P 0.23486940307520898 5.503933243277976 3.607646372230715 -0.49172862180224985 0.2640250409705518 -0.0979366618474894
Ni 1.4345199734064982 0.9695069968089438 2.7590418481491965 0.2340729746931517 0.6411701363972506 -1.7213522809293256
Ni 1.819597579802109 6.39605523175275 4.8427262452014554 0.7467864262771848 -0.2754343112487579 -0.5953646480273618
Ni 6.073204652554933 5.638859101526399 9.282490809355014 -0.43693841343524753 0.26742455357040396 -0.4853072916569383
Ni 8.637913432319491 2.3356177937551315 10.210340393677095 -0.0884228088197832 0.20226122949919362 -0.07367470397633119
Ni 2.4409666638408956 5.015597522815413 6.821129361263385 -0.3777246220792527 0.465173754131857 1.2185211214560112
Ni 0.5608534127374253 8.941316375790612 9.079697388597706 0.4632320570244538 0.025779680067265276 0.9076184420973142
Ni 1.4069976937450848 1.094006110601487 11.392198810525894 0.33394387744887644 0.2290816921261474 -0.22432926504282655
Ni 3.990973871648511 6.669881187061213 1.6855503797943505 0.8792391196236727 0.8417151545362858 -0.8116049654144668
Ni 5.702410874994732 7.838541706541269 8.05014153583988 -0.21883224648399732 0.01784294171869185 -0.4829423909691876
Ni 5.294452106824292 2.804614021043696 4.759485317638736 0.06460539468521131 -0.05964290847361341 0.006147507658634574
Ni 0.8348983567150998 7.22790577085767 6.832697009650219 -0.2569200544946543 0.3928537644112073 0.4852319583343127
Ni 4.980712537691206 4.755001006453563 7.164460337566156 0.44791882370615116 -0.39221741637878904 -0.14747333512503635
Ni 8.149884115756235 7.011116000217538 9.093731588373974 0.38997747130467675 1.0077780797380513 -0.20047714101557731
Ni 4.612189753737643 0.3215627816327829 10.332108006826097 0.5117207486534606 -0.1010135010006002 -0.39066909805506267
Ni 8.060125797017639 7.150601869438022 4.7804307277202875 0.35962894091980646 -0.3934479463517805 -0.33930642731237043
Ni 7.246506289921572 6.03949121175161 6.963737846692998 -0.4372662290883115 0.40020480545963977 -0.0013829963904556826
Ni 2.2741477644262185 5.149090492240599 2.4955092614816192 -0.4616544281246888 0.6469574325029891 1.4483067816277184
Ni 2.240659620607681 5.448077614809922 11.234857704667178 0.09433866008358592 -1.1145025150805 1.5262811414206683
Ni 1.062158128832189 3.220899765771813 3.836278653579119 -0.7949642715339921 0.7105539263077119 -0.22036282419591083
Ni 3.627885250967979 2.532464275302038 2.7342979309041597 -0.07819958842987822 0.09883551951267495 -1.027125888137044
Ni 1.044467809586821 3.3252663410039114 8.312235826556583 0.6916727731324925 -0.1837783402036577 -0.7157359847292835
Ni 3.8247407443942767 2.729382851884076 6.762105156001304 -0.6384187989043586 -0.36721215258370304 0.3997898294094082
Ni 4.143157478931513 6.806591397429138 6.118640746070621 -0.3757147907380755 0.6796767771128811 -0.42607370280660173
Ni 0.7978586312284021 7.486799042014541 11.33256720459283 0.6977236073122628 -0.20900857552535615 0.10287343702747445
P 0.22404703711404614 5.503725970051974 8.00093036604712 0.3543882613461574 -0.5510717396472574 -0.4869152595740065
P 8.440490190491532 1.5719060747287796 7.974010079929054 0.5209705493865028 0.6262729075704441 0.4197089369308385
P 1.7653100183481618 3.1807518430830126 10.42670570479789 -0.4500232716436637 0.10280427435243585 -0.5187902539057324
P 3.9770505179887583 6.085523891683011 3.8031726134467783 -0.5735130993699091 0.06281950642938212 0.26056947832178345
P 6.964037942276732 3.932477762518768 10.270511811185704 0.41711495095141704 -0.10421735264987858 -0.03664439069591108
P 6.389819011213883 7.771898858441677 10.117074651479355 -0.39372768237572836 0.1715368038321433 1.5239866889595366
P 2.5439904690436714 8.431063764648101 5.928101678909774 -0.6804241968018669 0.12797151764668283 -0.5640265000357125
P 6.9183927731591615 3.9754554153364765 1.5757190008992918 -0.10275799449553272 0.20316728625323074 -0.812947081264658
Ni 5.412552786248922 2.9457040047958536 0.23753241343537523 -0.5157450393215053 0.02841737480042848 0.5068153409320434
Ni 1.2862925811763322 0.8688632289534434 7.06113102965201 1.1507141891143666 0.8371391051298294 -0.9597226189917214
Ni 6.861996431927621 0.807341831911999 9.127642389335968 -0.9361489454368395 -0.40041640724981364 0.484300961879611
Ni 2.9888258476838243 1.7065615765954592 9.01698011516102 -1.309882444078828 0.23229351419522573 0.8897587882080742
Ni 6.238149081056193 2.0064859346214905 2.458802074344465 0.3980036840432629 -0.12013402388013504 0.44418841012944144
Ni 4.13043270523082 6.838322224766347 10.497244388358395 0.3219085435508972 0.17894003827474989 -0.6906394467719719
Ni 7.99387947161127 7.229320635922123 0.27789752241750904 -0.3323500505991953 -0.7432784131239264 0.42452821269635266
Ni 7.714511210477079 3.862437435888609 8.078526252359051 -0.6531113679195268 -0.5014430208765365 0.036248955029705314
Ni 3.078313810040679 8.456378133858617 12.456456707256283 -0.1937627051098792 -0.09822771072534696 -0.43870630396894766
Ni 0.008183687675353473 4.890846076399911 10.195712311048933 0.4996411917811073 -1.2051197604484407 -0.37395615617575595
Ni 8.61589741096624 2.299471145516124 5.88999584809107 0.37137682548435397 0.6038490313492891 -0.5952507481573167
Ni 3.4636527609386407 2.7893749329927955 11.620830190686357 0.2484251296497657 0.18834770474189497 -0.055352765738691766
Ni 1.048766476056531 3.3880971641209294 12.687331144197273 0.1199861854483611 0.0083753685478888 -0.5929118156114951
Ni 3.3137761947798436 8.385779070706189 8.033350602157773 -0.7270632368166446 0.26348356664478495 0.32774880438175813
Ni 5.644167098487949 7.6826091574314335 3.5720079939893843 -1.3003729619264959 1.3243024761589 0.3509969762764213
Ni 2.873753159734712 8.239200852404654 3.632971555696499 1.929406977181845 -0.19453095073447144 0.14855705510751835
Ni 3.3311691220052952 4.414171727869851 9.380517527435245 0.5381678871013957 -0.32455780824828623 -0.7868185024984062
Ni 7.498027843736256 6.232660846506815 11.358973813585585 -1.184931972646656 0.1767242615703537 0.10990617550453975
Ni 0.47359498934200894 8.88686660050762 0.29835358744810575 1.1339503393924666 1.12405596309689 0.4474639955569197
Ni 4.555063450275397 0.31032046209197967 1.609365753795118 -0.1936441772541439 -0.3863357607870314 -0.5924294766584377
Ni 6.0778908298384735 5.518901974947135 0.17889842255094365 -0.6639210569405211 0.9021157671115303 0.9834253619252997
Ni 8.082087747094542 8.934196991071387 11.117679841692228 -1.0659983968325255 0.5701724650324503 0.7947148745273475
Ni 8.984185886055624 4.799961272737384 5.803365552689236 0.2929826045451664 -0.2365792860547732 -0.2717550626249578
Ni 7.7984118076112505 8.86626544421882 2.482662827409143 0.7923474027364354 0.01970981972410154 0.6572169054474681
P 8.610625461522254 1.5092104298026328 3.779337994832336 -0.7514902595107573 0.3557763999429357 -0.5157285842612731
P 1.810090047044155 3.2122303377972616 1.665752181959328 -0.6461974144085129 -0.2556332173624307 0.05890962985201467
P 4.806918443627565 1.1259712468028729 8.126774052244865 0.6606009914283526 -0.4102891862788353 -0.2956861195192585
P 8.522101770260283 1.6617455003819002 12.606688341463105 -0.2626962948567992 -0.09313846912789765 -1.308412801511837
P 6.223757109668087 7.7522079019714125 1.4641068746364874 -0.3856361636168455 -0.3666693927063556 -1.467632221429208
P 1.7244411453080473 3.169712290828516 6.011922070317361 0.4903628518029749 -0.8324087895336955 0.04691260539113856
P 6.761414846039922 3.912696687254589 5.979660443283997 0.45155487779684167 0.7128272957229208 -0.12916656639604854
P 2.5784158483189166 8.519208956975636 10.157185625462649 -1.8890571126098885 0.4124856797095219 0.4952716019585019
