# total energy = -381175.8857882687 ev
CRYSTAL
PRIMVEC
9.17025724868394 0.00000000000000 0.00000000000000

0.00000000000000 9.17025724868394 0.00000000000000

0.00000000000000 0.00000000000000 13.42159842725654

PRIMCOORD
 96 1
Ni 5.496780649557256 0.38916096297293046 5.510196736085603 0.25927055700470186 0.09306467846716875 -0.4544021174376497
Ni 5.738086801920146 2.5513948560144866 12.889458822309157 -0.9988049297051637 1.7885992270024422 0.1990013278009992
Ni 3.580517818801331 8.423459118070753 6.160675187048326 -0.5271885052717566 -0.16863711368684506 0.4346542453867612
Ni 6.445443774203492 7.055348421444635 10.156325054712491 -2.370438072629227 -1.2347926049225249 -0.6552497544187682
Ni 2.8362505606146415 3.541342479328265 1.9233422694434736 0.17652602951661858 0.5372296915578425 0.36783950175505686
Ni 1.3515767225928912 3.3490513525935435 11.35793413939792 -0.002191351224363968 -1.5332020369102175 -0.20595461919038077
Ni 6.136873784051522 3.944081842384943 1.623248348176092 0.9694205630057757 1.4625972301084618 -0.7483635409563176
Ni 1.710794044184407 6.801148887223334 7.291552242608366 -0.36820536973490775 1.0760097583219403 -0.7104523677328409
Ni 4.528915005983914 0.7416289751421201 9.262164437703012 1.250502302348298 0.45611781457717576 -0.39501811905237777
Ni 4.35156222850051 5.397329208408987 2.5312734772991776 -0.42972235530278247 0.7222439610511303 0.6143514735425097
Ni 1.722715378761885 7.679558670178754 11.362161628044241 -0.16782155976408517 1.4452109163112141 -0.9883958185566979
Ni 5.56412701966264 7.6458304635818575 12.3667147202669 0.8736557119986244 0.9090142940035765 -0.5632402566889912
Ni 0.5345278827592245 8.245950446212102 5.0401192561551715 -0.5415121209832803 -0.6878503140626089 0.5401376092332568
Ni 4.766305458450972 2.246694714471515 1.551724925839907 -1.7143349690712282 -0.9280296587638146 0.38412564050959
Ni 7.724584633852151 2.137155990219226 11.958751978613815 -0.9410782644176567 -1.1483320620354354 0.1625096606328685
Ni 5.307873347791066 7.427413273607726 1.2335224973493362 -1.7333413349704019 0.6328323059555166 1.0963564402990926
Ni 7.271665622481658 4.882749386500831 9.092703583709898 -0.263023853399547 0.8787889194601317 -0.5939551692743448
Ni 1.8004241396923075 3.003726970913473 4.116310280051505 0.9295851761763926 0.5869090610608408 1.1386210053952583
Ni 7.682594025367327 0.7859726716673917 8.692377832392292 1.0006088156831219 0.06726211558176803 0.13418587398751083
Ni 8.369391280633206 7.949155066519737 10.601921615575204 2.4707856579110548 0.7076686343401167 -1.2198964045369831
Ni 8.817000712988039 3.5312276854521434 3.0575472114021034 -0.344132130835788 0.6253015447961101 -0.11154833909365305
Ni 0.3968676472644017 5.390286450750908 10.563764174669906 -0.813375169941012 1.2124672019524472 0.41024727729730637
Ni 4.086211661320583 2.9789489355070535 7.973194896208089 -0.22025380942187228 -0.16611511859593972 0.11010569310985555
Ni 0.3522561792240053 1.6131216329653926 13.411196947118222 -0.15354499524041298 0.760739031802535 -0.7218076448446601
P 5.110052555863868 0.4651062834116228 2.7278865463311024 -0.7474919369846417 -0.41675551072946937 -0.5639812486200739
Ni 6.829631706606139 2.042674828564029 2.7136588920257507 0.034684181645746714 -0.7708712351405306 -0.5600515745483645
P 0.17157001318759077 8.523543306977365 7.845689803721805 0.6904882659060882 1.5725265455414532 -0.885683846807752
Ni 3.9932711029030905 2.247455845833 5.7033874650680545 -0.13347702084594434 -0.0063663085376600035 0.1225464899763696
P 4.382640230718258 5.886177288144526 11.263995856978866 0.2910007982284472 0.24716606043168401 0.09233011429398938
P 3.2305166058639423 4.840181051801866 4.506247963823445 -0.4469983687744108 -0.291830236108278 0.3468880963143703
P 2.1000989801980037 5.631005706642291 1.1306487161515943 0.9327502041679355 0.4181220520596928 1.2682969073275578
Ni 1.2315288833976872 5.4987430846338565 3.306424328247429 0.01154733851796721 -1.43538878801447 -1.8341177802595316
Ni 0.924261069791874 6.4840964090066215 13.039915234934298 -2.6163910865894167 -1.0287911916546089 0.6237485984866936
Ni 3.3825686432709916 7.399379796835917 13.162319830272896 -0.6514607196899812 0.20518354535231118 -0.6425549325599191
Ni 8.806399895471449 1.2595348493973932 4.005031957976641 0.6262518245245214 -0.18226653154482156 0.5628782453638821
Ni 6.662091104505737 2.3742621647078974 4.896092110970239 0.6047715431635584 -1.0188217391467227 2.5431419001862783
Ni 3.306959871277679 0.6238104255129046 0.7093744289041481 -0.3151113181234057 -0.7473163306387258 -0.09122119750052676
Ni 0.9178235491200357 3.9061628281711953 0.5141396495545267 2.0318960342867074 -0.7811484486968224 -0.1687821239051416
Ni 3.976489531920948 7.918416363824577 10.550503982516803 0.12720070091892932 -0.2798699784226083 0.6436491940653624
Ni 0.6920178827850768 5.420282362599316 5.584150276624119 1.0161495916311982 0.6143026225824453 -0.5013705157673881
Ni 3.62144467743155 5.44727960028862 6.7682304143519705 -0.19907177602761844 0.27220783389166026 -0.9957196059116207
Ni 6.024033767147008 8.655503310492678 7.694750118533408 -1.4133930004696689 0.2498508063526987 1.5484106263298558
Ni 2.438114666756343 1.3681473776555857 9.949779679926054 -0.7971527945448788 0.3758106928859915 1.3736368036176538
Ni 7.85683808560322 5.409791588171135 6.6091035233860564 -0.1620491760566822 0.1452786414665627 0.23353407147054622
Ni 0.5025805401430568 5.048896109481405 8.262819134639235 -1.2080119943945713 0.03600444311906703 -1.5288671569802894
Ni 8.264327641976154 0.377728403113129 1.8053659913875404 1.3060160191448862 1.5227587300897065 -0.5276659591288074
Ni 3.9765537237225197 5.067007367781805 0.19274322042292852 1.391812446085416 -0.9285251103429945 0.1093086511298569
Ni 2.9617638732007507 7.738688489683045 2.010555085109356 -0.9090238070852732 -0.3712474989953413 0.34933604363423065
Ni 9.051887685193824 7.469238817459939 2.656792292039707 0.5843045335584581 -0.9801392349748604 1.4516602714809839
Ni 5.817638784581395 4.431251765022267 6.7280188357964 -0.7921861945682227 -1.7898953201060466 0.09521694892348116
Ni 4.297081729481435 0.847562871223327 11.763400736995628 -0.3974305851486123 -0.1246275408751144 0.30106538155330087
Ni 0.13859835282349664 1.0617323979849305 10.790696865635304 1.0945857215519148 -1.0874771355315915 -0.28050221268996856
Ni 1.6498668542361268 1.083383375629104 5.908563720429556 0.6933943838092897 0.5524454800663324 0.41899365603136873
Ni 8.457095622093975 3.204674820602917 10.077392981449274 0.1857082102365189 -0.15705892193094242 -0.6582018950685569
Ni 8.98139591681146 3.271205037802612 5.621341172402904 0.004779680776830478 -0.6298495691781089 -0.15893454168710047
Ni 4.775906717914525 7.507167001931054 3.7107501458286487 -0.5276266212504397 1.33054922839956 -1.0758971440034761
P 5.983602102414624 6.420124693612401 7.695702908273869 -0.08363695739536563 0.2880463435858136 -0.15383167324289637
Ni 8.37577377976084 4.242894678698113 12.387035093567082 -0.04039691575980785 0.47432328184160893 -0.9266803438247718
P 8.096365208036856 2.994996885899812 1.0388938720116927 -0.24678193761938794 -0.140320526130339 -0.3197974107451654
Ni 8.482698980663452 0.9614189526441362 6.3944388027266195 -0.16155655269097982 0.06988566924754415 0.18681301326492342
P 5.765175742183123 2.373216755368026 10.731964118275018 0.4848691756782552 -0.269597907072639 0.0201168253545331
P 3.0150797495341797 0.7945716220007003 7.818256061781818 -0.9274820137904607 -0.057823595876687506 -1.6960045461931565
P 7.9101264511645475 6.416364888091811 11.93622982651975 -0.16902920691894113 -0.27661856136484614 0.42554791221011873
Ni 7.303623969406667 8.136659318908732 6.0362430478058196 2.159020630552062 -1.068052965368709 -1.321639584614756
Ni 2.174625661821976 3.5558406562259512 6.554921057731419 -0.855525578056817 0.14288237332024425 0.32864046295809207
Ni 6.205852459968284 4.657546206074903 11.239421401285998 -0.4629176111078286 -1.2598786013568755 -0.958577963864317
Ni 3.2571928845453915 2.722300942568686 12.960056965676984 -0.8666222021906107 0.6249217928591881 0.03491995180563663
Ni 5.72226810796157 6.535165572285064 5.403844676268447 0.12236805541697633 -0.8844990824710316 1.0795987612247793
Ni 7.027672584710152 4.481679010284999 4.409236728160612 -0.19472892567789044 1.2695042973720976 -0.41769936269997743
Ni 2.062189136241624 8.346199699751327 9.118794799971315 -1.3779971374688784 0.5172488775605415 -0.5143615287104173
Ni 6.827467525867459 8.761520655915929 3.536980187898645 1.125188019818804 -0.6080345301855464 0.5889384327860437
Ni 3.9805061046478216 7.39070473336646 8.27793171878053 1.3317684455186418 0.22331573617664766 -1.039760803292235
Ni 7.886127887634347 3.0818942447122604 7.757294941881278 -0.5161435603115047 -0.5784622158450683 -0.8421591840522399
Ni 6.714902616683964 6.021264349422086 2.485263545010269 0.3414612688718442 0.40697297742140875 2.2170386018277433
Ni 0.9183921050768078 8.605076065229946 0.3837239173798637 1.7947919860767154 -0.32067081448905416 1.6307311789066432
Ni 2.54292153820711 7.042610933961469 4.287502478635563 0.5720542554361955 0.2803662013327365 1.4925564954747133
Ni 3.315799999379747 0.5218591722063122 4.115786658355833 5.60500489160325e-05 -0.024217734896784096 -1.0636306679312972
Ni 6.383150215907484 5.6396899403691165 13.295207863833781 -0.2943658580459382 0.33476611623985575 0.7942528472892644
Ni 7.505892336157 7.612432386250186 1.0972974071324944 -0.06627815440194391 -0.6641061763681336 -2.4142013337581067
Ni 3.8586792355233634 3.246564556256702 10.371835273101192 -0.2513214773609543 0.99510665491797 0.6779155714474001
Ni 2.4418928127916675 5.247074541445928 11.937639295077103 0.5891430925976822 -0.11921511161029145 -0.9845003401570336
Ni 4.812441023265812 5.16213961771008 9.023931238583902 0.3007794748817659 -0.1384428494916519 0.5982972482931244
Ni 6.235078070197839 0.5543484770328868 0.5075700771765996 -0.4563810955408914 -0.8401308407683015 0.26349950748438494
Ni 8.380716548481809 5.296153758875668 0.964334177461198 -0.16596162373721096 0.9988920901023313 2.3753229115253545
Ni 4.848012451593533 3.398561572119547 3.786608348822351 -0.5620025276271482 0.38450127868145395 -0.192718580116081
Ni 1.1563236027285353 1.9081471529858725 2.2032625415285523 0.4976177335931753 -1.8157292504500149 -0.48131231156493226
Ni 2.573917008108553 5.91435748903421 9.402031037120407 -0.6040315796737404 -0.8058549503045669 1.0017138758218427
Ni 8.039151972322328 7.029818424934097 8.35832736511957 -0.054383459846886986 -0.016625267261506853 0.13645230142418435
P 1.426461044254188 8.906410722319123 3.1652023647911505 -0.12178467210968058 1.217547701799148 -0.383251722545069
Ni 6.405287217192124 0.2735304367515504 10.561844839802934 0.5960537036745864 -0.15766801626985105 1.287052590668506
P 5.942125028342367 2.158632732973421 7.088778594677095 0.23339497478952062 -0.7951902715018693 -0.3158070586388496
Ni 0.8266189204221714 1.8678438718566295 8.23874078986994 0.041628988394696045 0.1744902300335124 -0.2032292498394177
P 7.954739753256417 6.467782521150212 4.623458525389209 0.5789224433109383 0.6836761280802612 -0.6262081157707797
P 1.9870297068593084 0.617648012562085 12.278682083592383 0.8217253416779203 0.2732581295330455 -0.7810150084427517
P 1.8058804428258453 3.746095985825134 9.10652774669109 1.3335875010052518 -1.5945801829073827 1.093530026593891
Ni 8.189113191049636 8.823511595718815 12.668942560423652 -1.0969539646737754 0.46695681417420876 -0.4314941024912246
