# total energy = -381168.09700651665 ev
CRYSTAL
PRIMVEC
9.25797781952340 0.00000000000000 0.00000000000000

0.00000000000000 9.25797781952340 0.00000000000000

0.00000000000000 0.00000000000000 13.54998634960728

PRIMCOORD
 96 1
Ni 3.962201656825151 1.2549374358574477 10.444735997330675 1.6529532235296371 -0.5620205253492773 1.828766286139631
Ni 8.664291658612319 3.456938248691327 8.86048487710562 0.38772312805286124 -0.4866710047736844 -0.027549627483494488
Ni 2.5030517419180134 0.3627099884602711 7.209839241749873 0.4998021428390037 -0.3072869369829805 0.9864343239549528
Ni 0.594722323892698 1.4297650926882728 8.064287658262199 -1.0207819481968872 -0.4042944021479811 0.011693634287844378
Ni 8.647729135943905 4.273260460143246 0.6625036841299996 0.38105805732785986 -0.903344754422625 -0.6120914738637394
Ni 7.953677040132989 9.24535939073104 12.224391556322175 1.268087876640545 -2.3286941559232215 0.5377238575854417
Ni 5.068270806205175 5.582060812090597 5.608570106338076 -0.1925763981112619 -0.4809754970508039 -1.0306259308705024
Ni 8.187802046148386 1.1868635235148794 10.392379354263774 -0.16696178286695115 1.6785927784746122 -1.5154303147490933
Ni 3.477176188631604 8.669337256630365 12.212101590507574 0.48668411739980705 -1.0001203060824777 0.2313920854268789
Ni 2.471833840052225 3.3925027217085617 8.706462674267376 -1.0406056677910338 -1.2948206646496991 -0.4394755780348044
Ni 7.375349669506639 3.235515188512189 12.190218507874073 0.6989086287592995 0.8055996397606513 -1.5027617181424893
Ni 1.0632139691496758 5.27933418898579 8.871582415351918 -0.20333466506903047 0.3801699982959517 0.034419358020134266
Ni 1.715021911279217 7.525134495807524 6.013538135446742 -0.8981511260368275 0.8016290851486775 -0.9634594603263343
Ni 6.144547782333684 1.0749808592064423 11.719965995198686 -0.6771689230893627 0.2960411888658321 -0.6668829677823225
Ni 4.670992453635572 4.507172532664303 1.7350487693207572 2.1455084549982404 -0.6185287448486508 -0.5813084270446117
Ni 3.5817172763743317 6.2569026035208735 13.368186040314564 -0.06333475550290382 -0.24499527803261031 0.23855029373821499
Ni 2.5308071600062796 8.371591425697503 10.164983046669509 1.001434396908211 0.671135058190457 -0.20177014879538796
Ni 3.9031172411349195 7.534716503052806 6.429983279900314 0.9947374445040094 0.5132389850701999 0.21091504851944964
Ni 5.208325497612542 7.859208632470326 10.81054555683029 -0.3190160524944506 1.8683011110094598 -0.8257874275624357
Ni 3.3289281866811695 6.371127536267047 11.042155170219075 -0.23996825713166411 -0.44284732272051475 0.6440034920809877
Ni 3.041625354948962 3.6873878374348616 0.15010144914899057 -0.16301668217627407 0.1827956645754142 -0.612370695667055
Ni 5.752592767122571 5.620527710741946 11.074810836070556 0.6617726431389506 -0.7978940435862775 -1.0228303460854835
Ni 4.4104359203880215 1.4057869296300314 13.234231430621128 0.3133421420381249 2.690631690371547 -1.6002317247662055
Ni 0.5428943113704395 4.385763408978672 2.9364176927891705 -0.6170233639477181 -2.145247745137686 -0.17039420558726784
P 3.868048020414989 1.5857342483030217 8.406574547221897 -0.20676477379650196 0.5616729122018713 -0.7586752072949707
Ni 0.03150952817325323 5.8699283804817055 6.552855164112277 0.39335152998323225 -0.34436353012030374 0.7982717386406704
P 1.6322926197392758 7.86951276200076 13.531084792473365 -0.07500884940672242 -0.7230780269166516 -0.388876267820698
Ni 8.603318615407076 6.545066427208455 13.025764910673653 -0.42720627374914816 0.6293572029227226 -1.4272661589073354
P 0.07380645232931085 2.9026353310132924 11.039187988265343 -0.06069423255626321 0.2662174206361802 -0.12147202596526824
P 3.0868505775510897 5.797123641373592 1.9231357022643294 -1.4027779439579842 0.4408457189094536 1.1292678463151327
P 1.9711438730576953 0.2797001801864822 5.22070156262268 -1.2349013625862475 -0.19106973165874835 -1.6502864753307516
Ni 4.105042999614962 4.7412975386796985 9.41736243846956 0.7731556602993329 0.6279621223474088 1.1300029247089443
Ni 6.136882176537458 2.7528690206684363 0.4785893218776822 -0.014285820495052814 0.13349527567838942 0.8723855870369491
Ni 7.381839512094989 8.302304718235002 0.6768785465935254 0.2747077174953785 0.4580736527519659 1.5615253093349428
Ni 2.305106913984319 4.245847587241526 11.02150525025714 -0.6336620009456635 -1.4433887755008108 -0.8925108970319144
Ni 8.70938726952224 4.964405550857524 10.680343205626237 -0.7070574831186791 -0.4149207715135757 1.1488138867678603
Ni 6.725310001177918 1.3696345254823732 4.532036684218557 -0.3798781780871458 -0.6977467472407145 -0.46252448943446794
Ni 2.277610719280467 0.6549241775293114 3.0292890992442874 0.23723337469900435 0.33120796657495216 -0.1659744792530174
Ni 4.720624473772728 8.806836746105658 8.423498131032888 -0.47958555868181285 -0.641950723317017 0.5800030779696269
Ni 8.83691591667563 1.227172759791167 5.469871708709871 1.1723258538468713 -0.6955309705363183 1.0718877657337669
Ni 8.077548785970547 3.4927018177623648 4.6140142279436995 -0.16566183310860502 0.44109742990894363 1.2905305219147774
Ni 3.2444213633623926 2.885313654147667 6.4922459594430135 -0.1960121632656882 -0.9347415235663514 -0.6412092171653021
Ni 7.162360627298952 4.653754098572079 6.956820554201944 0.32070295327857024 -1.3446509579082648 0.20742837552242988
Ni 0.514945401541665 0.15213172372762856 1.0841768087685086 0.16794805803962043 -0.29471604229650533 0.5840422810360071
Ni 7.413066671938792 6.040932492392432 5.104971282651307 1.0085532673411792 -0.09677143789479463 -0.18577917268377037
Ni 4.818786814663283 0.049233927082521146 2.652721769291516 0.3616534275490029 1.0673523397572584 0.630417782976753
Ni 9.048145943060511 1.7743933242879062 3.273758044095581 0.8823897494375126 0.5323471666545606 -1.0728321319249072
Ni 8.166230957373983 6.670410191550361 9.042502279662711 0.38808051139228 -1.4951324837320057 -0.06173450089531948
Ni 5.166229471579405 3.3788472041367834 11.225269643170916 -1.189344757002371 -1.5109761356324816 0.3757366451149464
Ni 1.209388184024803 0.37904939385853015 12.245285886903698 0.1764779498875025 0.3188152493375542 0.03729359424413577
Ni 3.558359397843079 2.2865816999767743 2.029354335623333 0.4986675150139282 0.2030086491881794 0.3897733257136706
Ni 7.413335153301221 1.8334221921100489 7.344377104058243 1.7182903541745504 1.086706575914154 -0.32006480547393906
Ni 5.975478587828043 5.9880231480380495 3.364203860310829 -0.4431322009507852 -0.9694493593611822 -0.26655552070188937
Ni 6.014917574170942 6.757712924229596 12.999992551476149 -0.8846350938282636 1.3718601713332053 -1.3853787746449302
Ni 0.9141151590196842 6.65306074075069 11.085800055974083 -0.3006933429258628 2.3046643686675274 -2.6070330424132844
Ni 4.942565980720693 3.367293247574356 7.8778403132250405 1.1887981404702819 -0.20679742680665034 -1.4717845530346845
P 5.389541159273555 4.544778439360279 13.05184833793245 -0.0814630896724984 0.6277608049698801 0.15280888840533685
Ni 7.3067295364612 1.218609130127509 1.8976892238929457 -0.7133872819914489 -0.698179721013075 0.12337721340778106
P 0.9353890666998131 2.560793750796104 1.4965419623109728 0.4039866410995752 0.2544823915874391 0.195019974555748
Ni 2.2436987458123823 7.700887950439826 2.5664355625983015 -0.11503681186288575 -0.6030355343090582 -1.8801577532377296
P 5.36963650654181 2.611212699064515 3.2831076760926923 -0.10752996196287933 -0.24813768031633396 -2.2507496209269426
P 7.263800292406734 7.436600452052325 10.89772608419973 1.5963251906229474 -0.13329370119054465 0.352993952101792
P 4.074797185440725 6.824444429760023 9.092461106423789 0.4752043988949816 0.6551422823066266 0.05797477674257113
Ni 0.36277294271077154 8.695333658895827 3.3530933608953095 -1.6526310643035278 -0.9107130218622379 -0.030913401749404826
Ni 7.186940558928153 3.718179872311971 2.4544853150503565 -0.6512187788825043 -0.019973614908449473 0.4091075072659083
Ni 8.736577950951606 8.053672460670468 5.284440889658736 0.1648449936342645 -0.4725775027950958 2.0507974991769
Ni 3.7848002821062208 7.030240023050238 3.9969348129431457 0.7230014080424452 -0.18151319831856483 0.6044218731336236
Ni 5.323753967500634 3.2566974422099713 5.206216530220779 0.5214019804969665 0.7488175977746007 1.7435982368117198
Ni 4.970950941313963 7.239618453832167 1.5942099271755392 -0.7477855569656605 -1.1411471142512217 0.8767688037063094
Ni 1.9271592195095464 2.3490082457303356 4.520681774183448 -1.0076207282245808 1.1456131204423754 0.08692334145612127
Ni 5.445422314570678 1.05673338453934 6.7360103721673825 -1.0189724057919742 -0.3787679757421025 -0.20374912689862976
Ni 3.165645228434756 9.348891358870159 0.7824805986167458 -2.2594823728142504 -1.4377817137266788 2.954277750736125
Ni 8.738207355082203 1.8954599027869903 0.004417907108645936 -0.355487150837291 0.54781003817685 -0.5966494282770562
Ni 5.563156020984446 6.186051297773876 7.660687958304113 -0.43222635267155884 -1.6849701427558659 3.351953619126324
Ni 6.446080126274586 7.803077511766804 6.656051993447261 1.6404993140370003 1.779289519565742 -2.0346298882781024
Ni 9.297972479788951 8.320135583891439 7.79234010886528 0.15054040408613428 0.2672898277647526 -1.247485112788529
Ni 1.7850955468729746 1.3914833535972189 10.010960843831265 -1.485455622763874 1.0498755231287338 0.953011782630449
Ni 4.074139869001677 1.0991812137370385 4.789052966673261 -0.23547062637162675 0.055688037590923445 -0.4083942832489676
Ni 7.082251343537189 8.619205305680413 8.722600255744913 0.28136378935931544 1.2342213058000873 1.17740583947294
Ni 0.35946136397489 8.714460641474332 10.146636511637649 -1.6252351887890784 -0.6139892051070844 -0.8089929817129163
Ni 1.3283439435365205 5.914635156315006 4.418881047933089 -0.038760665707965505 0.8231412481888404 -0.5414108195187257
Ni 1.4059350572782674 5.4444687428351575 12.660104404620077 0.3441254459675686 -1.0778411551037244 3.5545506346983817
Ni 0.6154463076787499 6.0875556696747894 1.4199979258826956 1.0668376049043693 1.7033784700597243 0.1947834330649097
Ni 7.009289218802825 5.928235126018696 1.1716739589860543 0.9725732497021443 -1.3188450525887545 1.9740379856276584
Ni 6.133317855001774 1.4704446480851512 9.205454728093997 -0.8915531611043356 0.5684554823413437 0.6955736508487955
Ni 2.233524227974155 7.284177102017232 8.19793119989434 -1.4919070348161725 0.48647765781595576 0.5512301196019925
Ni 3.043995397320742 5.373265633923599 7.3043502361114045 0.08994104523652251 -1.150015106164813 -1.3567371996488375
Ni 6.463392545162196 3.9456854240468098 9.356211642086434 1.1054136654053541 0.9140796243416258 0.3619971840416669
P 2.733482814705518 2.348610152675701 12.007551195260344 0.02152527566628551 -0.9204078805524987 -0.3281313845321575
Ni 6.971655538172804 8.189996186937885 3.8131148820665786 -0.3244948162208347 1.127781234467277 -0.7351254449994887
P 8.254626131458961 6.732457160205317 2.8565000491723134 0.24072261879918544 -0.48626811290831096 0.39721898335843847
Ni 0.2923178784228056 3.1946041836649415 6.637176827870758 0.22723461161507963 1.101314298525 -0.5902517522808286
P 5.174644973594826 8.427454065038596 4.950298243958625 0.3353633835042224 0.8341118882677312 -0.46462868026166426
P 5.342853176145094 8.90157363513075 0.3860447220464867 0.49892616799195366 0.5224913569064035 -0.5523747747293971
P 1.941675729036698 4.261965726965232 5.588149784230907 -0.7174529674203901 1.0441103385101824 0.11650208355450259
Ni 3.5529249647484127 4.61151920286872 3.886189954132723 -0.5577656067276652 -0.6536690401952097 0.2156955006272285
