# total energy = -340896.67668243893 ev
CRYSTAL
PRIMVEC
9.04948916166293 0.00000000000000 0.00000000000000

0.00000000000000 9.04948916166293 0.00000000000000

0.00000000000000 0.00000000000000 13.24484212448279

PRIMCOORD
 96 1
Ni 6.493343241674649 1.9347264670819622 11.337306695850181 0.14825932136144143 -0.3937238257209864 0.4989577925608374
Ni 4.513242636375763 0.5587272197631717 6.021251305561202 0.2628960695724311 -1.1196886872671297 -0.3441524425507621
Ni 2.6349668821372734 1.565869292426636 4.649853723436529 0.24481581503195257 -0.30135385932799713 0.9721500461217967
Ni 3.3265559856378615 4.0803874749892675 4.725945447366161 -0.23849990011625374 0.6905047209663204 0.2435696013296773
Ni 4.960052109914332 4.3848846833504656 2.782860872175474 0.5371427882709909 0.5860788518500616 -0.0640675199038703
Ni 7.0694337161240615 5.9678213121706225 2.6133793259512994 0.5605441979140668 0.5705247061655465 -0.15599525655311844
Ni 5.194261936637946 4.36810693060731 11.299267168527717 -0.3672738590595739 0.2840058549678528 0.6793271070829462
Ni 5.52029692899521 7.806532700177683 12.421820995147247 0.00668795354313687 0.5788460815470483 0.2810223468594967
Ni 2.0384879088041887 6.409698814163874 0.28526432923227296 -0.5317897514891938 0.15510668330057803 0.4619701595928947
Ni 2.7369184260447046 1.291950307646409 0.4683363981477468 -0.505973047536406 1.5024362164822707 -1.2336631193037721
Ni 0.5997612230202157 9.128219628921181 4.874618598413632 -0.11966942553889069 -0.43913490686593404 -0.2575160362074404
Ni 8.52623856623112 2.4527463701436605 1.5110375331784986 0.7327680005109057 -0.33716932636470964 -0.056929880417824534
Ni 6.785343105624683 0.8157046560480057 4.7666066116733585 0.1161146183080968 -1.079491546222954 0.030187065106341563
Ni 0.8060868590601823 7.276567471538334 2.4955269247919825 -0.32099014550168586 0.3647649765947911 -0.22850190836327744
Ni 7.509709458551218 3.858792636034779 3.823190136119936 0.3487619162983155 -0.23650061029803787 -0.2713164324256424
Ni 7.422218998184004 3.8372005551042685 12.623354021773634 1.2417888337347 0.06656380396316279 0.26571039909277466
Ni 8.007431357619986 9.070664878410685 6.805120763995861 0.24391747158739924 -0.4321793014837073 0.41184778901520686
Ni 6.8998100929214266 0.8489841521175582 0.553064954449584 -0.31945493980408207 -0.678564774995625 -1.3609957178148753
Ni 1.8836330517702848 6.6788125202458195 9.291111337201686 1.1025152608116369 -0.17385671021457155 -0.9697735754698201
Ni 0.10441933957790507 4.814898305167731 1.4955411880882195 -0.4275631428679347 0.032276086424886344 -0.6036155751822443
Ni 6.401391383193963 1.9939010761367015 6.902827192578689 0.08706783745378553 0.04351412123255087 1.1162117844621227
Ni 3.373531883420879 4.330144323941974 0.5921506027090006 0.5561445261844744 -0.1960461018274172 -0.5771964617587673
Ni 6.099690466956624 5.880756177789885 4.827982961419796 0.16546385816518602 -1.2975830578861847 -0.14393729694731985
Ni 5.523419002725732 2.8766063393906225 9.23818449540362 -0.3752381082119731 -0.2182048973126436 -0.6271013170090103
P 0.22595578773923872 5.579914963014574 12.616387725084488 0.02850350675633156 -0.18751363887637384 -0.9802050552157893
P 4.0553746871887935 5.953124941914483 12.526203231819947 0.18312296600784592 0.3210346255863762 0.8597594136325065
P 2.3599981566244645 8.347827889137651 1.2873604067880873 -0.30792405634634706 0.28984740135029435 0.1354595984936119
P 6.357700449944798 7.889416970606244 5.903583513978993 -0.6009560260722102 0.524636171163548 -1.0278784500323521
P 4.833377361856795 0.9794352519656672 12.578587104273575 -0.07651551585923597 -0.5217966448322239 0.125144589720849
P 4.035429613269748 6.2525453869051795 8.14843868647289 -0.21003624545892213 0.3098701243291244 0.8187721725868673
P 4.583149939472239 1.0908163634881831 3.6736690479462344 0.2575090942289049 -1.9167689767028602 0.3504400753316868
P 0.07439494472826226 5.560739095666817 3.5846899466263498 -0.018784736806670876 -0.7692771511805333 0.6369807809062514
Ni 1.4533388957917248 0.9321697705322823 2.6125585372922897 -1.1671538227276288 0.6578231715728994 -0.7815413132598669
Ni 1.6600744736867425 6.377907959046991 4.885797432266716 1.266633660692522 0.5363079510745214 -0.6470265951780276
Ni 6.1165406156123705 5.705177990776571 9.256065380864893 0.11564976285653632 -0.15922379079274512 0.4603588492417168
Ni 8.799361195972837 2.4079423497383976 10.305268573795297 0.17599098294875498 0.8649209032287878 -0.834651562821285
Ni 2.4266023962089394 5.212921983108487 6.962230753707002 -0.1846535437197594 0.2023231930853806 0.3215832990009946
Ni 0.63359997751454 0.06090215651896169 9.011035985004431 0.3496283780636688 0.3461589314578296 0.13848630113507765
Ni 1.3331435819111548 0.9821862966441565 11.474337679203979 0.6024421236994334 1.3588213358713759 -0.39640934297294955
Ni 4.003846896401566 6.879991711849415 1.7386502823671826 0.5466314444877167 -0.9919344278375755 -0.3905544268540693
Ni 5.655351503935251 7.897199531209864 8.15210734934348 -0.7284464903174164 1.206044586255555 0.44626920391787006
Ni 5.224541527079475 2.7106206107957256 4.894525664478568 0.10838022577831657 1.1078572418498405 0.14029430087809386
Ni 0.8070913523473938 7.47588246839269 6.9601113633658755 0.2889166620059089 0.06579298723540927 0.10613411005661721
Ni 5.1939995014548 4.730937145539368 7.104758396724333 -0.17961032486889714 -0.7551797925472027 -0.24063494418138556
Ni 8.325403255212334 7.224306672136113 9.25084654051593 0.06927528935705489 0.08892031728149202 0.5992819808038969
Ni 4.6268770706777 0.31596110112011233 10.361930139734193 0.5620115264882127 -0.7797016889479669 -0.3676883208891732
Ni 8.197850706714622 7.115712803248383 4.812009708255318 0.2601092508559133 0.7509241025946423 -0.060715829822818014
Ni 7.303978373943412 6.532943805862375 7.25071670104961 1.0482066200667433 -1.688120001238757 -1.2055473349041623
Ni 2.25696972351723 4.980585400623187 2.618333016270395 0.4571447131797934 0.997885760325004 0.4349514649122057
Ni 2.329048903991461 5.236251565941202 11.345769778032166 0.3411558218162834 -0.7324119027230677 0.3195464710766238
Ni 1.0079139940814748 3.2734083363063915 3.7912961168276094 -0.6018407426700086 0.26381626739385533 -0.19493152860699975
Ni 3.5175545020332324 2.541874788033266 2.5626913277501364 0.08004872582347505 0.47192752791592274 -0.5878948220128779
Ni 1.0388270487581819 3.4040015131329615 8.175405258964435 -0.011491545579367306 0.6047579163168036 0.6734624207720531
Ni 3.588240061190071 2.7477597139553294 7.0286666727947 0.3278696462303386 0.47193009901908395 -0.5288802911518827
Ni 4.326035855902389 6.817333049501194 5.918470828454594 -1.487225313069787 1.435091311378709 0.6973657097522119
Ni 0.8161336018301122 7.371369919077323 11.2689767186993 -0.07545545002583778 0.04783408876414343 1.0685453316240952
P 0.2784627332442714 5.648890168736432 8.105141405998443 0.06078344983595983 -0.4154247077331878 -0.579465460298602
P 8.487642495330606 1.7704148939657514 8.004043228910689 0.3027718227214463 0.2229915200680095 0.26653855142102484
P 1.953368414574356 3.2876341331306835 10.339731743035726 -0.5440456860384114 0.22834044308474868 0.11389189962516515
P 3.8804028159434374 6.067085157823083 3.8744473471838528 0.08977160953819378 0.2991059438340849 -0.44379837377987436
P 7.088012317192938 3.905705187394278 10.37304200736813 0.29167931235271055 1.058911408078757 -0.5669264472913268
P 6.5826435998566595 7.770841515269916 10.405584875027062 -2.254426298447582 -0.14062443052400297 -1.2854145408444506
P 2.5394676239395877 8.544925761168884 5.847054975529485 -1.1225436402174216 -0.16823036516672962 -0.5440945369984759
P 6.815134023656217 3.904021982426519 1.5255013315654369 -0.1965225272432035 0.4576576482604699 1.0997996616526864
Ni 5.283272711169589 2.8785067320961577 0.33613150731710095 -0.3634755683594063 -0.16430583330134282 -0.06763852508458028
Ni 1.4789760983383033 1.2826021854329899 7.03213715185457 0.0011418269139270658 -0.387596629777326 -0.7512169512447127
Ni 7.223048793154831 0.579122053289195 9.347917694965766 -0.9474941952463296 0.022384024122154997 -0.386137014512664
Ni 2.90180916646165 1.6725989665651275 9.099934545871557 -0.927948669014234 -0.293293708027682 0.7729229754632365
Ni 6.284327192532988 1.8973792256736566 2.6395251097838357 0.4117452019990715 0.7980398251355224 -0.5238715250833816
Ni 4.186203150731288 6.621864085503279 10.521583035875121 0.2512021781742706 1.2593535820913406 -1.1328020847206361
Ni 8.127490929164447 7.106437076947556 0.44835422132349684 0.28450722008430357 0.4308163596979097 0.608135831650101
Ni 7.61373333545659 3.968879670619716 8.002348259607132 0.41585073952701285 0.12079094073784358 0.573796949158915
Ni 3.014185721782303 8.34359272825103 12.273120695632556 0.7537662000291276 -0.2726708895710079 0.41700979283212053
Ni 0.20499988589062884 5.114852670013792 10.315573227003837 -0.9462382113520413 -1.4859212495463827 -0.5574141369255176
Ni 8.514401834522356 2.465533298205191 5.736685596885439 0.5711132316791647 -0.38486946065415006 0.22893848168006378
Ni 3.716661360638887 2.4238151535741546 11.387716874736775 -0.3319412451965509 0.6657629952452664 0.20826835492522194
Ni 1.02109909966226 3.357532386738087 12.593036423477995 0.44315508376892065 0.5845948111053674 -0.1560428219616022
Ni 3.190723154637458 8.39068626939201 7.949924569401579 -0.14677579483737946 0.20307678342195346 0.4988145821147538
Ni 5.565743463124725 7.993884272476241 3.4684003922301083 -0.2289963315011927 0.09890596773929418 0.6730240476830538
Ni 2.9196728578936813 8.290463177897708 3.456307559980552 0.7469597186302555 -0.3738219445907368 1.4371839322416795
Ni 3.614999400381823 4.322081229177061 9.123391726500214 -0.6381172085035398 0.15924358828708704 0.5141825799303918
Ni 7.330963950362013 6.142150669691727 11.566574596590495 0.026413199886206124 -0.8762275864908587 -0.14124560904776964
Ni 0.48129164670605307 0.08722078559281068 0.1990869497296919 -0.005489305249345385 -0.6256198473674773 1.7226270338766914
Ni 4.5202197924518 0.25213505468134845 1.497209913873461 0.9593109853755993 -0.2681858572164607 0.20824521499677037
Ni 5.964038625737701 5.676681149682616 0.4594832829866745 -0.76514384573845 -0.3385785480074105 -0.6153179512208371
Ni 7.972192647165917 8.752421496146114 11.633183360919508 0.14296259173887638 0.8435396093395343 0.3950363738848229
Ni 0.07883552901686307 4.838227888000446 6.007184779744611 -0.7851192604191123 0.3644093930275853 -0.2241875972586397
Ni 7.880331283575971 8.794221086178817 2.5536852762237134 0.3636825421638898 -0.00670955080969167 0.21010540813396075
P 8.540916837509112 1.6192341294958819 3.639271939976046 -0.45081208609354617 -0.44261309522252157 -0.239646097905555
P 1.7613111079573298 3.0940203143929335 1.4575152349993656 -0.8714931571296668 -0.22420585209108485 0.2115907344302356
P 4.761126241090157 1.1277744768663076 8.127366046215224 0.5607455152915957 -0.5016957603172908 0.5683559806490018
P 8.577630614682239 1.812096840640492 12.42717195803669 -1.7471211623633136 -1.1955940803461924 0.8069091026006942
P 6.235568545402398 7.780162489016113 1.3395433805842716 0.21346686840702594 -0.2740690554701151 0.6530113520065527
P 1.6810059419148529 3.2878060734230896 5.968364281515062 0.5683791205774533 -0.5142391441999401 -0.12475609603317869
P 6.821731101191147 4.007367147651342 5.924153002644145 0.31896128799711515 0.3221381430632 -0.4770082848729398
P 2.388051572753795 8.731082800909675 10.245309374037843 0.9277627782556732 -1.1792868585457368 -1.5258705362458107
