# total energy = -340861.65886180336 ev
CRYSTAL
PRIMVEC
9.33703528428796 0.00000000000000 0.00000000000000
0.00000000000000 9.33703528428796 0.00000000000000
0.00000000000000 0.00000000000000 13.66569494054881
PRIMCOORD
 96 1
Ni 8.892107086412556 0.12678106915900028 13.239011583324931 0.05352882515607555 -0.42205481145519574 -0.7654994293056558
Ni 2.6461438724190924 3.8065319705567267 11.828711194047091 0.3122136848606365 -0.3341395383994504 -2.1280930877352704
Ni 7.885808085167095 1.4419183925988097 10.917947806356196 0.9012927569896027 -3.4299511188477254 -1.812938060858123
Ni 9.123385455801099 4.076493678030723 6.9994601116108015 -1.0245005346990548 -0.7210242297114162 -0.12920821826726137
Ni 8.951957483981412 8.040401381976382 7.989389422213874 -0.8728972365660451 1.9932127587838964 0.8324147030709663
Ni 2.198003516457346 6.72611092765662 1.6278850623989116 0.248993600558726 1.7726715000285924 -0.24783223326077317
Ni 0.5399252823550947 4.560096094829679 10.759534728322974 1.585910937268159 0.045816544113482384 1.3227485014082188
Ni 3.139167358039729 9.0292307897973 6.525997715367193 -1.428836588718249 -1.4222885031870862 2.3719534808324894
Ni 1.5124130106401295 4.477229904747996 5.43572141681529 -1.2774443781547806 -0.4945768898843224 -2.039343748814004
Ni 6.736727137022577 5.922873774512167 3.196816082637175 1.1754610570417434 -1.185365717749965 1.02047161604532
Ni 3.76615862904538 3.3239192795209997 4.913760590766354 -0.15414997581426354 -0.9444109283353155 -0.02355953248749491
Ni 6.75785684836397 0.1363646023984189 8.8128151135211 2.976019513288591 0.13598616042104322 1.5641876866584543
Ni 3.4644136527220244 0.934114379778251 10.464123063180734 0.024752267244015434 -0.3812274930261886 -0.9490882792063269
Ni 1.7929442423025734 2.7380016276893575 9.511460662377438 1.546607768793162 1.307407243065458 0.39311524560271005
Ni 6.04024964780984 2.5272460623345667 8.971979822912248 -0.26928243271474916 -1.7198260740927864 3.5140436757232707
Ni 5.39680652024938 0.28341637563261196 2.8654232174838064 1.8708305622995327 -0.746734747103643 0.9567535090610684
Ni 3.9978665020670214 8.005751643227862 0.7779823395182058 0.39209811719210536 -2.650569275133022 -1.2173628394818519
Ni 1.5610869767128976 9.11444991282553 1.2593130555794856 0.15078722998961774 -0.0819377153160718 0.284758159752845
Ni 3.1074494484388864 5.588393151718234 3.6396530024336933 -0.32736571001072656 -0.48747138918779276 2.0008970148020313
Ni 1.3009665046581786 1.5415072132648646 12.11306687545122 -0.22572280295624353 0.40809037885530364 -1.0147159445084655
Ni 5.146517946578438 5.074762828744327 5.594394064435473 0.728173696272004 0.717240594299268 -0.24600803556784087
Ni 2.3780308979745235 2.105072002104332 2.5255709981654793 -2.649475527848211 -0.004182670622779893 0.12305556840230421
Ni 0.8106460908154176 0.7911438247620527 9.739773589290495 -0.8620407534675153 -2.0941257296508904 0.14491971546524718
Ni 3.993832902730087 0.6741890517655273 1.2851878483630756 -1.611083836989361 2.437282383947286 0.5315336696143298
P 7.162944133625248 5.003876055211916 6.494648618668686 0.710064645376119 0.40563651799817235 0.3397756536393052
P 0.285407965305223 8.888250890750163 6.102812454192073 0.9451166961530884 -0.03457156732728239 -0.6493935527483075
P 6.8180900643884135 7.4143811626629565 7.882045259859723 -1.0826213501011872 0.5308482135115309 -0.1613153832144512
P 6.7209288729529195 7.923193575317749 2.397632136604211 0.2365504896993668 0.6263824365651147 -0.48848646071586843
P 8.24154913779945 1.5975014151713276 3.5906344997508954 -0.32760816503883583 1.0998731952030993 -1.4563039409005822
P 0.8260335253229799 4.564615220012725 8.715898552415762 0.7148798073765753 1.220328864088711 0.16189619541858571
P 8.698204870139167 3.1117071366278717 11.693106626338547 0.5774209190647476 1.1437737532407914 1.3203080102875262
P 3.029811998238413 5.713518764482701 6.111312891313243 0.8851171756710046 2.086525291595813 -0.3977555725881989
Ni 4.799973873915712 5.881566729450604 1.9486327733762658 -1.8089207121686137 1.4560949102135698 -0.6556950694863031
Ni 5.963396508591549 7.537405942439437 5.3561596035978205 0.2643718827870092 0.9148694672327727 0.8234783198132851
Ni 8.820818820353553 7.177444549760105 2.850596005106374 -0.37344630641887294 0.8131738525634834 -0.3399268345051888
Ni 0.8917149015629354 5.475368336964568 2.8959936054214332 -1.667129772140335 -2.436669690063952 1.140721853788345
Ni 0.6682749734784581 4.623746665847915 13.49576231926692 0.7624459871913127 -0.23364720000964279 -0.6752123135836242
Ni 5.102437801972734 4.692822054492906 11.776768331845016 -1.4652876324564312 -0.8321745620357024 0.18532563008611952
Ni 2.065156175332591 8.337038999880056 11.46141836109146 0.15609887201051825 1.1179238820572233 0.14789011094748078
Ni 6.75198385303311 2.6821661553864313 2.1454322717659755 1.5097638604919352 -1.0039931587743225 0.47230676563221236
Ni 7.790019437950419 3.8727782374445625 9.813267263135108 -0.4477951536440934 -0.5745402550828428 -0.26810435324624793
Ni 4.916303999237142 4.147324429350121 8.048301447714762 1.1445571683740352 1.9275532118025576 -1.9404282679930132
Ni 7.365090952247046 9.646651599413238 6.442979331606824 -1.5794849791371572 -1.3112860092945742 1.659987247558283
Ni 1.0431336063014893 6.708977467510153 9.59033900459615 0.46726226122976944 0.3725500198568487 0.9984274917610869
Ni 1.6132623310989762 1.2018538728027337 7.595885663196576 -0.7216014423711249 -0.2451631710690423 -1.1209765528406177
Ni 1.5357836105020395 7.060124698675446 7.340665267373391 1.630101258632128 -0.43364637294753705 -1.0948245770355984
Ni 3.525440516764153 4.7652867870251825 9.528952664687187 -1.3189949479030574 0.4358711485129977 1.894279794461409
Ni 0.9646838340123278 0.6542507461542114 3.7358459432876123 -0.54970545542735 -0.8256082216720944 0.7975801118902844
Ni 2.748356400061255 2.965143690350442 0.1673691624868966 0.2502495844530142 -1.340416093891311 1.5775453389122833
Ni 7.354997616869209 8.306021367941876 11.394142219187737 -2.527120070836725 0.481161644919681 0.6273160041229777
Ni 4.409844519528895 2.661914125382243 2.521075215571188 1.0600084977976776 1.062852395004376 0.39646899256629137
Ni 8.631099595985132 6.296635305663695 11.462935629360562 0.10146601515698656 0.9030061401362836 -1.1489483554631954
Ni 9.137820512687439 6.8098361250045025 13.722135010202624 0.143787658743333 0.9819161243696252 1.1616339213506637
Ni 6.578585766722467 2.8940328279659795 6.932101803794658 0.8793877293863952 0.26107135765886647 -1.9468092318186925
Ni 8.276086832121946 7.1666509367196065 5.724395477139169 0.39737402087906404 -1.0203554021824297 0.854530304023083
Ni 6.4370456455452 7.400982516717355 13.839113125787907 0.4604825193037747 -0.6009213161795328 0.33175586865862217
P 8.174761322852488 5.2212889268797475 1.6409354369202829 1.1746133643294674 -0.3961797434606467 -1.0102617653918537
P 4.292730083225283 2.8952933277587714 10.491194863915702 0.40227685749732006 1.3215184856558595 -0.32473804257989236
P 6.389109305277103 6.249053772744679 11.593811922290811 1.120045042165284 1.3961879494452925 0.008023641635424891
P 0.9175812910145734 1.7070341786471848 0.5384462959315524 -0.04973567666223047 -1.7626372557210417 -0.5680181376936089
P 2.098900221637403 6.928155038887894 13.130040909386304 -0.6122231143455973 0.633395120437522 0.9776064412506776
P 2.8464979802244748 8.862546032012713 8.817475227940228 -3.5594994940632243 -0.40010761776014314 -0.007215286801516605
P 5.072465918010796 2.445528327619649 0.4879086575725527 0.4372423178289115 -1.0040126991583485 -1.334991837551946
P 2.8048548018848343 8.64029657595476 3.2124500148819943 -0.5183521379270492 0.2373652722911783 -2.0045510666148507
Ni 4.757303621670833 -0.17576782592109091 8.23671068600223 0.4363740562913453 0.8429989063447159 -1.2449672314626818
Ni 6.085011396007204 0.4207856430510634 -0.10813967777893474 -0.1725701301926641 0.920604312834021 -0.4628114245472674
Ni 5.7937238994462685 4.42351393950406 0.7648413957524636 1.2712338784686945 -0.9868662692860488 -1.4638730114970917
Ni 6.455346235129437 2.732642169311117 11.881447704266849 -3.063688988882117 0.6364452201177555 0.3089494122870679
Ni 4.145783818492265 7.565865226650026 10.003931395496346 -0.37922408944291464 -0.033852686883386864 -3.522927865586778
Ni 3.918464352156639 0.39455697662194145 4.735491373034234 0.6050548787319321 1.4475081969858232 -2.87910769316119
Ni 3.4336948059199135 5.1991694897751275 0.022132508954323758 0.5483414852002879 1.1550974057837269 -0.9571587149192871
Ni 8.64179983867061 1.9843908182388938 5.742612033403886 2.3489040552121936 0.9726051313813443 -1.4616657194331277
Ni 2.6036790349552614 4.141077952599175 7.462917874313844 -1.0931952689622915 0.19249052326567495 0.7008737229054703
Ni 7.958627625048452 0.21093296902933178 1.7583243820676586 0.15179818775263537 0.46514084401139244 0.1596009716265058
Ni 7.880420615682347 8.98089295700261 4.2911241131189115 -0.18230381254066022 -0.38425496699860273 -1.3372335823982713
Ni 6.220295703398022 1.9559408710638078 4.764681747124642 0.5599878111899645 -0.5199107406634207 -1.4524768538450081
Ni 4.568452741604114 7.593334785097386 12.049589973293324 1.272623045506737 0.2992545535968072 3.3712734025008584
Ni 7.5786196171459785 4.826789839877921 12.912195732974721 -0.13679888613032568 -0.10727208031580235 0.6595499244560189
Ni 3.8711816043736933 2.300580188484093 7.3421956074921955 -0.5315691508379554 -1.4753118494616526 0.5077036570742676
Ni 5.799008661540492 5.82651556812986 9.455239570508272 0.6166256142886671 0.7145576481504662 0.296746699573289
Ni 8.582080159598783 4.979935896184373 4.784892694172621 -0.2900075810772425 -0.10606263338873347 -0.592383968132483
Ni 8.238159793912166 5.902444340833438 8.65821528078696 -0.2751998266404487 -0.8701654394571787 -0.5841348407498134
Ni 3.4725088625023988 0.7244260375813573 12.76911593464315 0.5818550435767011 -0.3684894766342299 -0.2961736006786383
Ni 1.849629384836196 7.62631319449102 4.85607731913755 -0.7821154405957821 -0.3872531303949782 0.24164487350313868
Ni 4.535418309997466 6.923365139675285 7.319182616090019 -0.06851347149036588 -0.5790785092728284 0.5424323188047045
Ni 7.854052827424243 2.3943426989967995 13.62849761596565 0.9581578456077626 -0.5285745869860058 0.7210226870495196
Ni 2.88284705943439 6.1284192740567525 11.354020043931397 -0.7184456703509626 -1.2531132576085837 0.03466361282045643
Ni 9.529471803861108 3.1685603458005334 1.687467487048855 -1.2979245003860034 1.613787609073769 2.2779161540394055
P 2.519841793181353 4.567733789870447 1.8080805105551274 -0.2464286680450272 -2.022396065216072 0.2988506332901692
P 8.47973691345959 1.8687796446511293 7.910934047703411 -0.24746482261902544 -0.2527422689678808 1.635116195348216
P 4.853811220621176 6.736092218608431 3.8371219662689082 -0.7397673146468743 0.7313466946833468 0.9911124461569126
P 5.1453508171406686 1.044739576407861 6.3716714577732665 1.1815394020253394 -1.3527517326385283 0.39379761638171534
P 5.727683047339481 3.7722837243347977 3.722398744757399 0.06671267083620123 1.758480810350507 0.8763373725958455
P 5.483267468999397 0.2028489636915603 11.352981765583557 -0.02882566598244068 0.523262430744473 0.12263056504974364
P 1.7991440338760085 2.377461338808891 4.881563691244251 -0.18074109603923064 0.024010503981984455 -0.24538737126470642
P 9.333225991676677 8.461819142330942 10.970847714697241 0.7505464075402494 0.2587347391058899 -0.41002410554290675
