# total energy = -381170.80787246977 ev
CRYSTAL
PRIMVEC
9.14148075047197 0.00000000000000 0.00000000000000
0.00000000000000 9.14148075047197 0.00000000000000
0.00000000000000 0.00000000000000 13.37948111334700
PRIMCOORD
 96 1
Ni 8.275279705958118 6.081470599081357 6.668828103557218 0.7913271890020371 0.8060338990845924 0.6378742392547982
Ni 4.152517612835724 7.544372615734056 6.550821643210856 0.3646742166531977 -0.32919350724808466 0.28377625545554996
Ni 4.005988818523905 8.191351771553176 10.588013077844597 1.1228148916009373 0.24948031038715746 2.679239132263889
Ni 1.8048482441171627 5.0953882162988 10.01700328332368 -0.12622162483511165 -0.3447152570327676 -0.16132592473741247
Ni 5.329858055047559 2.64868918704122 13.276753834323607 -0.32886954824976267 -0.6684194590315069 0.5188229069158807
Ni 4.547859229131391 6.63933860093257 9.019469367654828 -0.7687655016514374 -0.06355818436761958 -0.7972497251340592
Ni 7.427919292960442 0.7148317963942955 1.4091400544449972 0.6123717241083196 1.2453971199112488 -2.3014024100868045
Ni 4.483923713040752 1.9704096012686603 9.007093631068683 -0.3077872736581667 1.2764241644203824 2.8684682111694726
Ni 6.111518646177431 5.5931052750736026 10.490288820751065 -1.6361042702930984 -2.211813348873062 -0.7033083004888919
Ni 8.863981922246522 7.382988915267348 10.457991055252089 1.1794236412339172 -1.321807734761504 0.5122583663244855
Ni 2.5234691842660437 1.734961624083857 7.866987353939602 1.9391720269884087 -0.6324466404813237 -0.02013945106235241
Ni 8.976531832756669 6.030909069270473 2.197392567315355 -0.20760166787550055 0.30511486903232615 -1.3311485525464557
Ni 7.93732830556423 3.274067023940955 1.7978815216675381 0.5965103315960307 0.4215842995766804 -0.8769387536252703
Ni 8.55715726367257 6.671681159687028 4.400150269659821 0.6713358613473536 0.2510265718283548 0.24112165400981697
Ni 8.391541057636807 1.521553756892553 12.743447162845905 -0.8143002528584429 -0.03262215691039543 0.14702776294718548
Ni 5.636499884007298 5.680671518801403 7.033258716977722 -0.08047424339666785 -1.430468210784401 1.7234942669729931
Ni 1.9282856581537522 3.9388903501073633 7.62325353863862 -0.4420626220356903 0.28087425131740656 1.138867831298742
Ni 1.4045519452762965 0.6316891151824028 4.918925643399792 -0.7681448373483029 -1.0888812149679699 1.5507266760575422
Ni 6.384035327644124 1.4768336332558059 11.15150309033289 -1.1168692155404636 0.9692588406169308 0.16872324564274813
Ni 6.978524101222403 8.015734785619909 6.693366580228952 -0.8001309033365963 1.8249870216028568 2.2902780180388684
Ni 2.0100379201495473 5.069207015543354 1.1817027568069807 0.4795004551671742 0.14910907095624643 0.35298752434388886
Ni 0.9689969553342581 0.47255513311859887 0.7750494722798933 -1.601416746213242 -0.8006474379616986 1.0812347541663057
Ni 3.0503110005851375 1.1679978489254983 0.6614720593378653 0.8857962040159003 0.2350559074317113 -1.117332271219811
Ni 2.259188976919691 0.40318500674544766 9.834360155316167 -0.29386397870885517 2.3969577161863107 -1.1027548876262685
P 0.658128105693891 6.5755493485333005 8.143247471757327 -2.360955844170405 -0.47369207601551316 0.6044756091896945
Ni 5.1063945590744835 6.712909237692287 1.759241396851478 -1.1685244778229102 -1.7506847113448563 -1.253641619308228
P 5.44849619171103 7.231633419140279 12.216095251903155 -0.797067433919924 0.49033636944041353 -0.4053274713981858
Ni 2.3983680207401066 2.720394961735955 5.789569407767623 -0.3967703258567941 -0.37237312795935223 -1.9597074279375992
P 3.1732456331826384 6.919214174371377 2.186822273169572 -2.7494276774638324 -0.018736914287870957 0.541517520299919
P 5.629241548323002 8.977701942287638 5.300816484977734 0.21892609174938427 0.40712518672855685 -0.6061000321669949
P 8.5161760056465 8.379355463849443 2.3267719438139 1.2562690296287462 -1.932924246306484 0.8987946731580972
Ni 7.885404695127451 8.89840873860302 4.783017421377665 0.48390604043403757 1.1823233313792154 -0.8644336791797241
Ni 6.285727844081251 6.667439512637263 5.174300220237781 -0.28028624002442054 -0.2792739967098223 -2.937590005667799
Ni 0.07229448605250421 2.751329732460966 9.139831587580339 0.825013782621205 0.3923007201212147 -0.7891846887377377
Ni 1.6673329497860945 5.979305410658569 3.64441034708514 0.794709989431341 -0.6802578464273317 0.39618308589475637
Ni 2.752673530125439 3.503106823147557 12.521080644558115 0.09107927260602379 0.5582574587624192 -0.8545344177881411
Ni 4.428965131008019 3.3445204157783244 6.753721378325211 -0.07112956895697427 0.4187851395649885 -0.24772501825894755
Ni 1.4099911262991631 7.382449567905417 0.5875247935728664 -0.9298857381359469 -1.6841052236524092 0.6974330726550375
Ni 7.59050052740025 1.776665059086073 7.807809978558882 0.7347526350411023 -1.7295836677001826 -1.0593186708195046
Ni 8.057968426503344 4.2729291967570715 4.0457679718365185 -0.6573020089621067 -0.8057919582771155 -0.27563228619217695
Ni 1.6921520699156465 8.48474759496311 7.365311119868996 0.8023790759408245 0.6337239645318505 -1.2820479383650631
Ni 3.087553393000532 3.947839859723139 3.800856733819998 -0.48875976898191303 -1.5270745838562412 -1.2914373499997631
Ni 6.909103696705343 3.0728904579405683 9.56471024220035 -0.41407822100762237 1.4799717168311672 -0.02773834645553287
Ni 7.077636035087817 8.545245914306527 11.203455953507943 -1.8603828846036476 -1.2189219564388556 0.17099224418258294
Ni 3.5720153047448178 7.621974645487193 13.543379745620324 -0.1172800993711077 -0.6665348404142842 -1.613983784244975
Ni 3.587464407145902 0.6723056281281165 5.632026043347481 0.6245811216903179 0.25297161136986757 0.8998287708495664
Ni 0.3928176534714422 3.0080682182209904 11.371300852540973 -0.3349314381731264 0.528712912336083 1.3229683307285085
Ni 0.02130147835207442 1.2788657269848747 3.0858165116654983 0.8839228982525874 -0.31559288574551453 -0.8359751667287152
Ni 3.71610332370688 5.857504321669195 11.288509204188369 0.02706780275106951 -0.009554733567970642 0.27571456149333806
Ni 5.115042399826806 0.02446717312219002 0.08330174297625875 2.0408059351818273 1.464589320837826 -0.269192186993788
Ni 8.832315833064657 2.2739524682674723 5.284333481108271 -0.11298815686397314 -1.5307826288354478 0.7162203805648697
Ni 1.9546496885234128 7.347620526397648 9.527555607999778 1.684032975653577 -0.4301501868688205 -0.20897463696362717
Ni 7.396042949722228 6.242580055126744 12.098395945308672 0.5210854776978123 0.46030922695070403 2.095306637332869
Ni 6.934398173831851 7.055934159880614 9.02051332475199 -0.9672119853902311 0.2581546982327038 -0.5113345689586355
Ni 7.063018807431408 1.7294675941767261 3.5227500368987106 -1.1950006697365678 0.7423080787908571 0.985149029484626
Ni 6.279374514987314 2.3171733890676647 5.7236748723606805 1.2782295930602374 0.9114352447402432 -1.4887111535866941
P 1.4672350785095702 1.3316120706856167 12.201391180179993 -0.5074601736048938 -0.12512247823366193 -0.3345321458521787
Ni 8.971037802849537 0.5610492371385355 10.479304417529086 0.5636714306891389 1.3895141369695423 -0.09091549333464986
P 1.3987471050250018 6.048698390733497 12.058003398640372 -0.12158026940835834 0.002098791510557676 0.0421339530555726
Ni 4.670355070654779 2.0647131162802475 3.9760477267521477 -0.7166222439889788 -0.24119955843560395 -0.6335866676230378
P 1.3140330032789398 7.510603985988728 5.275770656126557 0.2247738087794129 0.11268965178694786 0.012709734257184562
P 7.329374130899089 4.969903110583013 8.411478627066845 -0.3751692026472506 -0.16176172672325045 1.3249095136152793
P 5.6384378779179665 4.462029866738623 5.051436891189823 0.20436696298828674 -0.8870136213627692 0.1700792454500103
Ni 9.048575842237698 4.805255901502586 13.38911451618304 -0.16840674284359383 0.2527450971813583 -0.9357424540270399
Ni 4.001418078168555 7.8510692935780595 4.275426649287235 -1.0413728849743613 1.4184804422949056 0.19189454155288888
Ni 4.086360716932385 8.785310339250234 8.448098484645842 -0.6325510272696719 0.4095841897920107 -0.14169220966688498
Ni 2.283276778592387 2.8397278509334396 10.056071229437 1.7106899161194733 -0.23066163501875758 -0.306002413843602
Ni 3.0450089417729314 5.290010340629615 5.505389111062146 0.6173874321553561 -0.46322820036971185 0.5567806171065766
Ni 2.256464815667902 1.784938099129257 3.089616625196937 0.6929907206129678 -0.04553835075143125 -0.24833385548754006
Ni 6.784505314618494 5.8978273930840945 2.9134886304919405 0.49355461926739513 -0.47964880781958036 0.08297721232417966
Ni 1.746845549007768 8.296131423459226 11.576221769040462 -0.5207962285921676 -0.6244481956568795 2.6664394093960597
Ni 8.575522498420366 8.344160763113248 8.313501150957629 1.3447332332094262 2.2010604812319317 -0.23330138663444983
Ni 4.758314398053138 3.4774832527154635 10.831639937821263 -0.16698312302318982 0.2222459001512366 1.1418186863969497
Ni 6.098382338396154 8.392409498304325 2.8692027271889513 0.4709196554766986 1.624598583646344 3.3622943389306994
Ni 5.614761442877251 3.8169247144651965 2.486764310916439 0.12394414165484462 -0.0472681889583444 0.09251806193507937
Ni 4.446864150239572 5.814703908981694 3.8277893642898637 1.0640356166791998 -1.8650340102224137 -1.4998090632720686
Ni 2.4077380384685747 6.106966188783502 7.301624252053687 1.0986480645467467 1.2289909106390835 1.7916786372587143
Ni 6.853185259197987 7.610803756058717 0.9859297200546888 2.328389223088293 -1.1944941624137944 -2.993085724742258
Ni 7.787197767852394 3.883191308137065 6.631124980514005 -1.061164722889308 -0.6466121333484284 0.3059540771041699
Ni 3.5197717424831647 1.3758385543639862 11.715501369148695 1.4176342922445262 -0.4226975872455172 -0.7282595711175909
Ni 8.624721947605357 4.96268134082156 10.474247350399928 -0.8747191202661323 -0.04895766084562536 -1.0491553571332577
Ni 4.356317783800082 4.89900178619082 0.07613299380292739 1.3728400187479712 0.6724380932725967 0.41357042813326833
Ni 5.411747439254015 1.0915202212997777 7.284645779929703 -0.1617992648294052 -1.1518935541344486 -3.1090072532029422
Ni 8.608678648958078 8.108630512602048 12.943725121292431 0.6305918466607721 0.8455805510289632 -0.5378071613278673
Ni 4.046284465496673 4.470814829701607 8.803712139920874 -0.4064111913806678 -0.612382522741597 0.36471355453156545
Ni 7.047432582819663 3.7371927197064663 11.992925197460893 0.4131459390013401 -0.06245723799395695 0.315585686656663
Ni 0.6576161827740918 4.3064601480039215 5.527464872830417 1.4304239878100269 1.6083816075668491 -0.012349008483656151
Ni 1.6539406805449182 8.280874292153067 3.0697476168722293 -0.8016085163233873 0.6960292503289756 -0.5385095867115306
P 0.9945656768820876 3.658237750808145 3.014972778601783 -0.6335072205353541 0.3780755776607682 -0.25776260500060766
Ni 3.8872866914954587 0.08064522868172917 2.4237063769740264 0.25901010425446364 0.1198676575926258 -0.2968552001266952
P 5.602100492092932 1.5306860961225428 1.945336347975351 -2.278930197126217 0.8030863864204943 -0.3634228607445999
Ni 3.4959490437510787 3.1873783623613816 1.5809861795851015 0.4492982205521811 0.3157201553519982 -0.0648121113793787
P 0.6366867626869429 1.3852359965345862 7.386864903088686 -2.8035350008311974 -0.5270787191667696 -1.2290315340690319
P 6.21434202121139 0.47865889978913356 9.062096092208824 1.0497536528388887 -0.9041232844598622 2.2009365540595582
P 6.774623373970227 4.986659444725729 0.5500977432471162 -0.03475874363742401 -0.4526779356576914 0.8355087686152579
Ni 1.2095093128327896 2.78048191444739 0.7049580830786678 -1.368521079657643 0.6511118209909947 1.1261766089843186
