# total energy = -340858.70122329314 ev
CRYSTAL
PRIMVEC
9.37547728088104 0.00000000000000 0.00000000000000
0.00000000000000 9.37547728088104 0.00000000000000
0.00000000000000 0.00000000000000 13.72195868834019
PRIMCOORD
 96 1
Ni 1.8263991824526633 8.599084421191215 0.392806237113106 0.9086831359164029 0.09033159580672184 0.15287368020500122
Ni 7.034157918221845 1.4210973095256043 13.489494509346853 -0.8348847618780136 1.2169285801579106 0.7525050739285168
Ni 0.6307624075086601 7.461482786742372 8.101636609613305 -0.07906682152617997 2.4012059499397034 -0.911660730487488
Ni 5.63946195207266 5.552635659100707 10.700575101091868 -0.04548204359219909 -1.2271538574303444 0.7797410268263345
Ni 7.658883456057182 4.183675377457299 5.524762365827236 0.06114109028569469 -3.429137364697178 4.320676898954758
Ni 6.08978486579999 5.163075212142756 8.450503735977858 -0.5617958109329808 -1.024562498285242 -0.9848124720808136
Ni 6.512131356006285 2.9413684152997037 3.162939064452727 0.11910609683625295 -0.22288867594155806 0.13716526833080894
Ni 2.56440860949868 0.8100412172310407 3.9365284269083705 2.0101244469375703 -1.109767828608992 0.42847948403461694
Ni 2.9947805080608756 0.8916200556973886 12.418385633241135 -2.8822884048820163 2.039821716891687 -1.4109627937616216
Ni 0.6710244561576992 2.1176952544360943 5.409072729205197 -1.528632158151348 2.517980570429302 -2.198883785295587
Ni 0.8450576864698858 1.9850978824997678 11.07091675764239 -0.38311931073226274 -0.44480701755004687 0.6774005794841946
Ni 7.797471757829279 0.30933073963928315 11.599994616148221 1.5187287829947071 -0.03752242242549022 -0.631431568953248
Ni 1.9051250632523051 3.5903295613126134 9.605480942045848 0.3742865429319812 0.3686288304255716 0.074612128188936
Ni 6.881281389423588 7.395423175439016 11.519433016941937 0.36567257601072506 2.406650260883726 -0.6972831773407345
Ni 6.5598806606284805 2.2972356399682057 10.206886855811524 -0.3370140317337679 0.5257610287966107 0.24143892813991966
Ni 3.280676305262766 7.196091157851642 9.069651802515384 0.7198461502429151 -0.3630587925369618 0.425084599420455
Ni 1.6511246389788865 7.480149361551481 11.897170987338217 0.6354718004608927 0.6110602043857476 -1.61702848460857
Ni 7.326185277415275 7.464961088728399 0.3176767893103372 0.5507647499297998 -0.677121357680879 -2.7511803984888816
Ni 2.0458134718838905 6.176489277570275 1.6678898670419948 -0.006014067404563836 -0.18096015402857224 0.5938384411908225
Ni 1.2166837833764335 3.32220966859996 7.403133567765994 -0.761944622074862 0.3149645081328963 0.03924917530860982
Ni 2.296841869932052 9.172254210721535 10.406829216954938 1.7954854125993143 -0.18915837356864842 -0.27865976016459104
Ni 2.1351898946137924 7.874331918695716 3.599022503634565 2.939489536683357 -3.729758716734525 2.177916696125617
Ni 8.654043467665849 1.9100753151353835 8.906264426394934 0.35205575655823884 0.8740552614298882 -0.14389847328958444
Ni 6.745186964547132 7.848286843447245 4.16387343237728 0.6074917703081989 -0.38235080799735444 -0.3162266626747715
P 4.395026756624421 3.936969074329781 9.818417714382342 0.1344237010299298 -1.0169923992474679 0.49415497185555535
P 4.397726894015192 0.435934369096723 5.526162124550993 -0.40386734191289153 -2.7501375590466637 0.6480959169828064
P 3.831082436512566 5.945299388962633 3.0543297880998184 -0.14059460572733207 0.4248033207346103 0.6073562731715992
P 6.665673543675182 6.561090097168097 2.2195401240965 0.4541897443165275 0.14964925973043258 0.8051075306155812
P 0.6951334953950791 4.415268411578147 2.0813324666926847 1.3793711349982696 0.6556860706252385 -1.4887263230953458
P 6.086306563813963 5.980954328188671 12.871608382020428 0.16702348934282202 -2.253424853766261 1.060086916444097
P 7.980059173403059 7.992509806927165 5.983103187528825 -0.08253678235265141 -1.003489993885659 -2.0722728954418566
P 4.191653908427943 7.732649709496694 11.043130656305497 0.34404497043862037 1.032256781605706 -0.8436095433455213
Ni 5.012420671405653 1.235875384900414 1.2478103671867 2.7666322142675774 3.313951685961254 2.880515115031678
Ni 9.017736973439304 7.075072500073652 1.9119897875492562 -0.2785584587000364 1.141611198371834 1.436958446494435
Ni 2.3267871436338567 3.1199431266955324 3.54182928097861 -0.2075348191933071 1.045267334932761 -0.6117970825517721
Ni 1.254907603314523 2.576606105142402 0.07200366375387028 0.18817595505072107 -0.30609857310183414 -0.27948636983094444
Ni 5.440729965016567 0.3762275810433184 11.750168194912593 -0.48013680319959245 -1.0487354959870194 0.6854779571756904
Ni 6.103829330422815 1.530752889117436 5.787826063766132 1.0514377254095313 2.2419963002143457 2.4763348698640577
Ni 0.072096480976678 8.293687631722651 4.31648932291351 -1.8634432686965263 0.07494765715148383 0.6229366441083595
Ni 4.669990747584514 7.5755354650712565 13.283651222947361 0.18379068149883185 1.6471654132032665 -1.659144954162646
Ni 8.257854558432639 5.706796628254989 12.17502731296863 0.20662850532895383 -0.8719564699193305 -0.8257640305236681
Ni 5.921748190609804 7.414502271238382 9.362560456551638 0.056741161445786156 1.015876797585786 -0.2672381485912107
Ni 4.130488296145359 2.5905286885635608 5.207812175988374 -1.2026342750224257 -0.3868816059881724 -0.24432499143846306
Ni 1.126763582977557 6.04667642231818 9.577034807124543 0.67320428201466 -2.0237263539917207 2.148440541043371
Ni 5.907375584290184 6.020987615197659 6.237961467952436 0.629614056128535 0.19629292773090065 -0.3751848863765345
Ni 7.728083852172718 8.58839637735275 7.88337456631168 -0.21941151602623502 0.6603263976107273 1.8441440541472818
Ni 7.614837464870244 5.368501289813466 3.959745858278173 -0.8713226929900736 3.1017989083799615 -4.173970009682102
Ni 0.18569069847775455 9.274390657718236 9.740779388920648 -1.3632559746039619 -0.7663620344162673 -0.06237136314837001
Ni 0.6550045785201682 1.5422659749364143 3.1343147954674477 -1.996725399922845 -1.3750200571184255 -1.5144684650564564
Ni 5.567064518282635 0.5649596842765099 3.663831426299279 -1.157808634067303 0.4692309549203661 -0.6668837391132708
Ni 3.0903541211216767 3.8544742517555224 0.9962138152292312 -0.5016775054848457 -0.6858813632616961 0.11007895363697817
Ni 1.0967526809363932 4.4517765192158505 11.95289601028794 0.056828836063586005 0.8383076715166335 -0.6757167640238685
Ni 5.003167075556036 8.160349597099273 7.416499247850306 0.3256263587221166 0.7880451758166558 -0.9993602879880016
Ni 5.174653926301093 4.484159416950989 4.449234827387247 0.9343111208971521 1.5619796232635423 -0.6411346551736249
Ni 3.9909905730992863 1.4816722667539581 10.431844864823177 0.053177098243611644 1.4255111238894418 -2.4889623288200813
Ni 8.703949132009841 3.3038056071482864 3.0698630784783876 -0.21379802649419954 1.005337845727675 1.0334837120342717
P 1.0984777687138296 8.927169865123888 2.399366461678676 -2.330689846197012 2.2332846313729604 -2.9728244033900606
P 6.712129032464301 0.18877616797533248 9.58879446798997 -0.5083047809933763 0.859708762900229 0.3550665183601046
P 8.698370723164325 7.208804304733185 10.02113240408982 -0.5223458324674746 -0.3548045229479696 0.13623452898642346
P 2.7933671345681153 5.251064064269068 8.226273263985385 -0.9234129859274096 -0.7156984466231288 -0.2644572434119639
P 8.47998773620874 3.6846937378337987 10.904456100144525 -0.25466571124283877 -0.20787214792806782 -1.588228786768058
P 0.6460388098160242 4.296471741861311 5.522992275759953 -0.09103787784512708 0.3229431554629987 -0.9031514074648962
P 8.128276090106827 1.6624033378715828 6.821528661532632 -0.7366953605897699 0.8327754288444948 -0.40956567784924947
P 1.7857846158664958 1.4266944693252217 8.867225877501088 -0.3106869638034649 0.5791209324749897 -0.06352913090189705
Ni 7.739812573963875 0.8775484021911146 4.553178866359437 2.7764306884152377 -0.5211579828069606 -1.3475300792282727
Ni 5.726607011264355 3.8657810770793724 0.8146998917778243 -0.22777711438211096 -0.31669717455328683 1.3368756848382202
Ni 5.077580236912086 1.1673781495637245 8.113258450966077 0.48448556708659146 -0.6043056592707335 0.3442429453820394
Ni 0.13123605266847987 6.301839405745958 6.284958859315119 -0.5079589676181833 -0.36853010006417825 -1.0880540910809842
Ni 3.562700030442476 2.996430592021902 7.733421311258015 0.472095935172987 0.803267649193365 0.592949867938282
Ni 0.333826048531176 0.2803727036709786 6.480523810223287 -0.9823444701562953 -2.3683824756517793 2.0605440370407027
Ni 2.594194500090613 1.357831590383532 1.6450708934468716 0.43528288010969546 -0.3636257207840254 -0.41548410021621346
Ni 6.48152979891089 3.7554973405251046 12.333666947510313 -0.10923768868260543 0.3244876171319831 -0.9461201977169383
Ni 3.611527514925569 6.473260628151657 6.581448945584962 -1.1166092770108578 0.5936520362116293 0.07445914755083952
Ni 8.47816889366079 4.8340334695508504 8.589315174103776 0.40285175616418356 -0.2284684840221807 0.7086340835771796
Ni 3.2755385438386617 5.788147642628991 11.17491611192918 -0.5114700660952353 -0.8047365204294075 -0.2895041590782627
Ni 3.082759984710136 3.3196876652731637 11.64153079212853 1.5399223863531868 -0.25432092630891034 1.3978367979026247
Ni 0.5660012997769076 5.937573995872374 3.752667821551027 0.9325139197874133 -1.5812428423685283 0.8208714783180573
Ni 7.793309046018509 5.154206010852239 0.8918835066025297 0.6423739268973646 -0.6339543353751017 0.2825074160454554
Ni 8.71000569018497 3.417680151413197 12.983716586408876 -0.9841614687603759 -1.0472990206508093 1.3059864514585315
Ni 9.039928727619696 0.4854228247119319 0.5321830165052168 -0.27357514655283205 -0.08381616328570726 2.034277904255322
Ni 2.9561160407013753 4.652196092141175 5.1828659066503135 -1.484995909518636 0.9120857338400485 0.18405576223476044
Ni 4.265860809288865 5.868973630288121 0.8128285465583878 0.6768768457702407 -0.678345202785651 1.3293040431385494
Ni 2.782791596454266 9.076708724091889 7.875704488536024 -0.3332208832399229 -0.12745883967632243 0.3286630886659114
Ni 6.642487988927354 8.85815697854938 1.7608974120338594 -0.16559189910261804 1.3611111603468173 1.538835581046911
Ni 2.52115015838405 1.1817882577915497 6.1884523862877145 0.38514713979556897 0.4712757532645367 1.5660831039089544
Ni 4.311660014684393 7.790065130958765 4.349175048557406 0.8467223779428901 -0.08276741030621874 1.1436451980827271
Ni 3.9265341683717003 8.328367521335355 2.0270625177813204 0.39029783075857294 -0.2557764278085143 -0.6172419077164273
Ni 0.5208902543969438 6.674692752598519 13.561603178443697 -1.8121944978238789 -1.309358710364874 0.7454944469386386
P 4.817054480610974 2.5188062891212284 13.108394492879983 -0.22244541775655235 -0.05997458078141929 -0.8371959265096937
P 0.5968597449435078 0.08271702138037386 12.49425480618325 0.6943490344130752 0.1288858019308361 -2.882663271722932
P 1.8611259494506236 8.327439349107278 5.792642246327377 0.8661498905398826 -1.3746369627473938 0.16587652022257238
P 4.4922317026921466 2.716094452711423 3.0302882522972077 -2.3766783971119843 0.17098813041752486 -1.0023980463730608
P 2.393849930981699 5.7131063243105045 13.186513780314405 0.6780418126126194 -0.5472125138021672 0.485116515802371
P 3.9826557740006936 0.10985058951449835 0.13341678863060882 -0.6744335264360708 -3.652657246464832 0.9767968008651887
P 7.745615994258621 1.5011357571124262 2.1015319319996784 -0.16774931176525304 -0.7508875929297519 -0.03340942869838117
P 5.342240578592817 3.7140296055272706 6.62221726999477 1.2447201484488823 1.049925659640379 -0.0747090587781165
