# total energy = -381166.17503436486 ev
CRYSTAL
PRIMVEC
9.28681608435135 0.00000000000000 0.00000000000000

0.00000000000000 9.28681608435135 0.00000000000000

0.00000000000000 0.00000000000000 13.59219406520315

PRIMCOORD
 96 1
Ni 2.880956076864896 6.1215069582307455 3.7356923382924654 1.9830221914041397 0.7982866510390058 0.14949036555506512
Ni 2.287231352778356 2.0355772112952635 7.718667513750506 -0.006953548499697702 0.8240473049428775 -0.20047714101557731
Ni 7.575515887656657 6.509250102197167 9.471149139123781 0.8838881883599099 1.6997866389434082 -0.8551949341902756
Ni 5.863612076358081 1.26568158662808 4.583396622602498 0.3584115235729376 0.37533683857336647 1.331918340832945
Ni 4.05040767552162 2.540055633084493 6.223457624892544 0.7397853123690034 -0.898620352363762 -0.17527570204928522
Ni 3.1716891403112646 9.09912021660557 6.286865218877491 -0.060553593213340876 1.7663363018391838 0.09977011551180237
Ni 5.420807399996159 2.9726540986009673 13.548169114735222 -0.16638354176597797 0.3305790747417016 0.6574627029096871
Ni 8.752174055572768 8.968092528872713 12.738005855649607 -0.23698166369951448 -0.583352454057834 1.9484588516069734
Ni 1.279351779862382 4.562538433740921 3.8344529836390575 -0.3562466547111348 -2.2177407701010905 -0.2649866335528727
Ni 3.3192195001754765 8.458831396814688 2.489573429686163 0.3643649129428951 -1.5694152536059809 -0.27055307189705663
Ni 7.516098838530934 1.8600378142064222 0.7854603283768912 -1.4684354340567936 -0.4690936580115534 0.0053211551025972885
Ni 6.72423989389152 2.5481444498691923 9.977553646563008 0.2638622901404424 0.8314279136776649 0.08278823624182517
Ni 9.068808048999074 0.8139234909066546 3.9991630245251 -2.824030549681388 1.7661452688743002 1.1437603835043528
Ni 0.9610461595460118 5.434654042735524 13.211408733552545 -0.32838386686259574 -0.14187707198418145 0.4754044307209296
Ni 1.184078333944785 8.866021133602189 3.1427189176248485 0.7371404185469885 -2.864396097982628 0.7950046378536243
Ni 0.08796565036320027 2.847347089558552 7.038948730349436 1.0404976814582596 2.1249907946608633 -0.17661833212010875
Ni 1.7375818576931719 1.7790474913828171 5.238105081683393 -0.2508697345355163 0.5388631133962074 -0.0809198155745187
Ni 0.6365926670006282 5.3302237961867975 9.524839008787824 -2.494372701202375 -0.39321526151568414 -2.151042240332276
Ni 0.679549763348853 8.824527639464375 5.705894079280533 0.4568670340383744 -1.0854048263835951 0.8592925012984168
Ni 7.985649545133881 4.300204453793531 8.639185079346914 -0.15081834033786928 -0.5223394047095714 -0.4774998797973776
Ni 6.1632883436662915 3.804539220441361 5.463287153999111 1.0016778803775845 -0.8047290642302398 0.9469244387857887
Ni 8.196859602693479 9.128336539917468 1.8122469301010957 0.5436301957675476 -0.6839363237201833 0.1831921286828845
Ni 4.622921311736459 3.4644653032899337 3.67921642381165 -1.5052811421302335 -0.6039423623940438 1.2790813995375714
Ni 7.828646632892639 6.6214905610489145 2.8694069924177645 -0.1411813314687375 0.35337396114903014 -0.7314233135575532
P 9.08903473436885 4.696064274992818 2.065795582059594 -0.49839909184389014 0.20809506257215127 -0.9443183686215091
Ni 5.4107312045754945 0.6843705495634766 10.29067722352018 2.790086074415143 1.5308510201795378 -1.8727938566734907
P 5.818506010774518 4.5756235575637 9.077737322636834 -0.12043869960474742 -0.4797043436478641 0.17966457514560027
Ni 3.7118939434675866 1.0022703360182035 3.9486408878177297 -1.1427643381396706 0.47296419671055323 0.11138481693259526
P 2.372725781389078 8.13672746873145 9.961814350711448 0.3166724919629385 -0.6718004596885979 0.7471846901568681
P 8.224543601356151 4.6588055689765016 5.9936275011408435 -0.4348272806295157 1.8345996049919566 1.7584211607571651
P 2.4023228641592684 7.335043072704882 5.386137858296229 -0.5507768341146579 0.18260154628673714 0.9491610414257912
Ni 8.504931151716233 6.503232245392936 11.78263765544018 0.1823727181053827 -0.27234384524889227 0.19008319937576296
Ni 2.5023790203456597 4.786768607410907 8.398820920142994 0.03688941682718162 -0.5673213687369004 -0.05861421009878293
Ni 6.239375227612376 2.7241853350250524 7.6134497452002385 -0.013270748966977145 -0.05437703208898377 -0.3183537363201034
Ni 1.8968228926038884 1.174624355199867 12.544589337653136 0.8467252061563676 0.7749526042987557 0.057517634600494486
Ni 0.05401397954439304 6.6874826759422215 7.25774240190029 -1.7285745097093776 -0.9254798957587673 -0.03672075245980128
Ni 7.6260175933687036 7.026655771936226 5.1846204506541875 0.8700625953307275 -2.6889694721777753 -0.27462338531168834
Ni 0.3977803347596503 6.613810364170676 4.425591329454027 0.8469609763162574 0.9913865257539054 0.40315257523405407
Ni 1.1258964313544986 6.424702928824147 2.1558303350400516 -1.083171309067386 -0.1487069504218213 0.11054175220600962
Ni 6.683795809968025 6.1183587275877915 7.244000700182358 0.9653044839548731 -1.0145156555722012 0.019231080315470106
Ni 6.418322886193736 8.103768558549021 0.46424514859020405 -1.580286134882214 0.6458477443785781 -0.22107964775727731
Ni 1.3858065523112966 0.140835494169505 8.59689941979953 -1.8160686360673044 -1.084250658174494 -1.2942323962463969
Ni 8.89618471215179 3.172385651515458 4.7653281351826235 1.3365869499532077 -2.8621217001261545 0.16919915683790218
Ni 5.1664972291210765 0.4306250171045929 2.044130368882758 2.3017911608847905 0.9625289780922648 0.8026014763642758
Ni 4.208376416632676 2.872003586186997 9.342363288786823 0.6550978022219363 0.43765009479029143 -0.8253575391138689
Ni 2.2158064504923396 8.096979896012149 12.194413221996088 -1.2704337511649024 0.3795932998568753 0.6388309467411126
Ni 8.188204290129368 6.6806011452447915 0.512971215072361 1.1280056917732573 0.8017776949113998 0.14368584305814608
Ni 6.685978211741165 8.157446355352189 11.478906764241957 0.3286276074422857 0.37755724326345297 -0.0021345298444995497
Ni 1.6748494152354891 0.5587403593223158 1.2478072517652667 0.1475620381841007 1.9968786376712577 -1.5051908964092722
Ni 8.76186949153514 4.108301686814173 11.476582274183162 0.8529555033367956 0.677071221169234 -1.2140975384670187
Ni 5.292862935193866 5.742186956427036 4.7592527001188465 -0.5395228584673933 0.9895237615135538 -0.6036415433241733
Ni 9.197551179982177 2.3891262985438178 2.1116835975550647 1.6710373347248577 0.630963628177894 0.9806987070227562
Ni 7.5625979265228835 4.408451581741236 3.6342673054194328 -0.3289297120637368 1.9354932925852408 -0.03460781988185653
Ni 0.4664414805874271 3.103616778621433 13.315279913774706 -0.9726460119216089 -1.5937605152195649 0.8826476310845894
Ni 8.425733184391419 8.626542007968396 8.03206226573651 0.7134273912007649 0.042440171442081745 -0.00493420407682376
Ni 6.604319238161533 5.317742315407653 11.035896849245201 -0.8578326289234388 -1.0865988466916965 1.1049920044869033
P 2.030580904257183 2.0475200567431657 2.9758478346425954 -0.9756449466489328 0.11580917125253604 0.42726463779090934
Ni 5.468448766362986 5.344367617039951 13.5861187598661 0.6843322736070214 1.44617019490069 -0.009129473105093955
P 0.7254062036697332 8.021050887939015 0.7739261028354489 -0.8232453778668726 -0.04249390749815262 -0.6690185260680865
Ni 3.975750961248147 9.236518660152782 11.474815921769327 -2.3408048231438268 -2.5834079467951763 1.2322215017612392
P 1.2675482366553181 3.2700179487112564 9.473201525472138 -0.36335138407671613 -0.6258224502965867 -0.30508864378008105
P 5.280242152173882 0.7849189070008316 7.209979378243132 0.11635270246083186 -0.022304319924155134 -0.6014123968833385
P 5.907882328496611 0.8846583827597165 12.896994289163603 -0.14605100085621298 -0.9854624469599866 0.2559180955927012
Ni 8.778195714161432 1.6673456678623126 8.812118595850466 -0.07304838324624192 0.47820719027704733 0.8068520241105137
Ni 4.351857724696511 2.0952357176384395 11.72154154997155 -0.94162462383943 1.6390417556548675 0.2538051630147565
Ni 3.8982617680776204 4.913403631149317 1.8438629666818411 2.072501980733527 0.7996773607389455 -0.41950170601603887
Ni 2.160392019086715 3.731108365887268 11.868649359705216 -0.9311988005204157 -0.955674931284909 -0.9625929985609809
Ni 7.590579103299346 4.496620613376061 0.39435164227180775 1.2766262531288595 -1.5364832787646505 -0.6474585405091237
Ni 3.732371372870871 0.04480703010656228 8.579257255338117 1.0422817699418758 -0.5956875785844193 0.419650058668445
Ni 3.800592323617598 9.216161959358224 0.35223871750306546 0.2585570758774451 0.11429402015959025 -1.9547549690283303
Ni 1.9785840211601338 3.995680468504133 1.6277875461905515 -2.4141655954241648 -0.8499167165104718 -0.9173441540255104
Ni 0.04125946637320405 1.2293051281370742 11.188074331863792 -0.3169455431186671 2.0639476634056133 -0.7550332396670093
Ni 8.292653110310207 1.0318859924205055 6.347146870578018 -0.81608228445953 -0.1939066868869112 -0.43506356501003784
Ni 3.680597373359164 2.322094060252248 1.672057798329082 0.6880308055045312 -0.4913797231032634 -0.6452085681326823
Ni 2.1902862799706946 7.275951062141116 7.763698356124016 0.9087589834596607 -0.6884851194331303 0.11685843845265681
Ni 6.250556554143693 8.60009315584116 8.697482138456293 -1.8057258593803998 -1.5252925522551537 -1.433703687002563
Ni 0.17588858137254332 8.30027758629211 10.602509004363975 0.012505074445546207 -0.9096706966406527 -1.2243752662439429
Ni 6.647642235062361 8.505265477094246 3.7573584801509075 0.6129011142492284 0.26730731126624935 -1.0226706805791679
Ni 4.9498636709848265 6.588225185936638 9.158176008586716 -0.3320687719133507 -0.49756348331647215 0.843585117865489
Ni 4.65319633207873 7.100068052858206 6.888850565845765 -1.2315085348546146 1.4229001686291558 -0.7767423492093267
Ni 1.402689983900944 5.194682715850768 6.107801475095431 0.8387442448334199 -0.45895888357039666 0.5878318299854264
Ni 6.62695120888979 8.456899739075059 6.314974553715524 -1.616071005791307 2.227653915449744 0.6546704848765306
Ni 6.160214407551784 3.708244224757613 2.134286779153548 -0.4366555920875061 -0.9426065281367251 -1.7083257867626707
Ni 2.452982445744266 1.478823301927307 10.059501440121979 -0.16162802935886356 0.862151825124083 2.1488791712426867
Ni 2.6285497032812746 6.913133732468762 0.5107943853888554 2.325099239483112 -0.45045470275412747 0.016688516399274482
Ni 4.53471513283741 8.149208949510596 4.592435480669717 -0.08987831031938714 -0.8741136254716493 -0.07855054401139375
Ni 4.768297130275699 6.871863121916291 11.758879193924342 -1.1709690827086607 -0.09940733285574492 0.4192883044536521
Ni 4.409008790704591 4.827667745321142 7.246678089251278 0.8678540177151827 -0.802523829048805 -0.6793016531616495
P 7.3103587156282686 2.015842727176451 3.2640567414849673 -0.014997501850096752 0.13607974857611405 -0.9126675744854474
Ni 4.269362937671848 4.487110913734807 11.214266867867883 1.9283219716477822 0.1719507514411103 -2.0742716710394404
P 4.847467237152345 6.865594521078551 2.267844195580035 0.37705742080889904 0.5445143981447139 0.441362253534556
Ni 1.591230923468061 6.201401436759753 11.076047469781328 2.074488929256569 0.9915510763562279 1.4676443056140658
P 7.603794242546908 0.2230173154930835 9.954582707048711 1.2688039288709632 0.7478570336335443 1.176044440349039
P 3.233752932012922 4.248077555271698 5.239056980329124 0.244326791210676 0.8588813819029273 -0.11331725806861774
P 3.50074889362038 4.885524609349471 13.020452293129285 -1.498927946218696 0.8598638004208546 2.276038991621351
Ni 7.418178650037403 2.4959989777152485 12.200448723750826 -0.5318293464778776 -0.610177030449846 0.18875316771042977
