# total energy = -381160.44456236943 ev
CRYSTAL
PRIMVEC
9.38987175993437 0.00000000000000 0.00000000000000
0.00000000000000 9.38987175993437 0.00000000000000
0.00000000000000 0.00000000000000 13.74302646345470
PRIMCOORD
 96 1
Ni 2.3458716542326563 6.072833812085781 0.2725485388521244 0.7046918110999798 -0.6570348713436491 0.00028873488501240593
Ni 4.050978461630119 8.14961991216023 6.6986124236403635 0.08755788971632662 0.018997881258741477 0.1972442359005764
Ni 2.2875229913042583 9.415599978246222 2.521804046909135 0.7158403715176317 0.503977614372932 0.12088684288575954
Ni 2.5813414675985147 4.80391471614839 10.027434630282189 -0.43037721527796197 0.7087484976678567 0.27585622927752496
Ni 6.751834216604342 6.497143335807773 5.118768383091536 0.030518480303831315 -0.10482027634120011 1.8187369269280873
Ni 0.6128628429903699 3.3888422667381124 10.409490670207674 -1.6004705802498889 0.6531062257132042 -0.9223066402371083
Ni 1.7308068863216701 7.048638672108645 11.636838926023307 0.03827729831364376 -1.155565603669397 1.8103173354058242
Ni 1.9492622521132994 0.6435630286106464 10.59162695113597 -2.099151722110572 -3.4037942579466995 -0.28919639802985675
Ni 2.599069545424201 3.056816402375679 3.0249359098789785 -1.0268345821488702 -0.34579769146366895 1.6281251087423636
Ni 0.5403326567885955 1.3797853114500398 1.2502567258745991 0.5066736731478565 -0.3925807132554787 0.34475408069050306
Ni 6.889395837444547 5.635819791913496 13.13118724548598 1.1503308376330188 -1.7214024174409706 -0.2932692825476498
Ni 4.950330986029709 7.830073187326576 4.318635816298239 -1.2302777477713072 0.0761481052174882 -0.012113238323766236
Ni 1.4580405024454166 3.51094815871122 0.822549946560799 -0.18702101551067146 0.654155492913325 0.3968672564459746
Ni 7.613411287035321 7.536311050262698 9.412997105802749 -1.2721558760623317 -0.7626059098079447 -0.07658107898984876
Ni 5.760207422716923 9.479920599594715 7.9585726429604415 1.0058525805805645 0.05234971724630984 0.2833525376545701
Ni 3.2082280840172017 1.8987635219509362 1.1238014453162912 0.4316905347727469 -0.7032198545401437 -0.9481071462399799
Ni 3.873988769396875 3.2064346185168278 12.827891571654932 -0.9630419131729415 -0.4009378269709224 1.665597137545893
Ni 7.201994057198217 4.191788978088802 3.950144385073489 -1.6223303564374576 2.1046253436306332 0.22737987894369224
Ni 5.744826812823663 0.9506775632741676 1.7576093361869451 0.41574763829024525 0.20757775661610053 -1.298509426355196
Ni 4.475231646121733 6.701260367468141 9.99777672042391 -0.4011085482208318 0.4087406108447928 1.381185562499189
Ni 4.699856157639779 1.6298188158686733 10.240795051673281 2.244035699241877 -1.1954958642054314 0.4894043445444474
Ni 7.702389711546023 0.8399888163372106 0.4822112287560562 0.5266359752023962 -0.8283292201476833 -1.085266243923202
Ni 0.683995816278764 1.1427849489922397 3.9194836369144777 0.9991540855144663 0.3489025556412378 -0.12172887917108069
Ni 4.897926111906215 2.24327791571388 7.016254882487232 -0.06059447375360532 -1.8650149840590202 -2.182743170979983
P 0.6952326757777042 2.959640619844943 5.2440912451192405 0.23053719362575137 0.23132266564152418 0.16278065490606805
Ni 6.5969670621662875 5.547310860989279 9.688119408495986 0.28648542685659695 -1.3086105193449398 1.2515212305311154
P 6.865799089787793 8.13099979652022 6.4935526488583335 0.08533697080560787 0.4268059529869359 0.4900890293162979
Ni 8.921251401292347 3.4724027352607734 3.0060941932661485 2.6384948604669916 -0.21490514351544923 -1.214809991153011
P 0.6213550429827169 6.304106352788461 2.090644611760322 1.0477011411852344 0.4969585027426215 1.1946458575003103
P 3.813452266355455 5.72792504371019 12.317764254246457 -0.32786424691369986 0.2988616890337627 -0.19255968594071354
P 1.3983772574748594 8.110079162306434 7.331107610443205 -0.5674398965926356 1.5868056811682865 -0.5667683244469077
Ni 1.7458400709609307 8.417597461454333 0.5021496823869157 -1.391736598542158 0.24021919680020568 -1.2331941500871535
Ni 6.299420806795337 2.8166422632732377 13.09614236621637 0.7677082640315165 0.620694385041402 -1.8137816398053408
Ni 2.801656027992626 2.476165514354068 10.831923158570897 0.518759400667797 4.005898795801056 1.8580699201997548
Ni 1.7093979787779383 7.935803143003076 9.669799768751327 0.15314261759567174 1.296538418671754 -1.7679491548522583
Ni 5.391204243482903 0.8747294637627798 12.844315396297363 -0.6901046573144244 -1.543872629250186 -0.7934714890385496
Ni 7.803049136488481 5.944239518747447 1.7810821375368664 -0.7801251496386307 -1.93778723082574 -2.0409920830507047
Ni 5.924398719782577 -0.4243630459908514 10.496318814092273 0.4545620400542817 -0.07514280388142543 0.013959547503885636
Ni 4.255809123541944 1.1595364801580366 3.3874638335681913 -1.5462028200452596 -2.21136520559205 1.657833434440074
Ni 8.07113936424334 1.3332397172858832 2.969153498894309 -1.128326822558102 0.37508949844925077 -0.6238799818582352
Ni 3.170997242608914 6.77687700450747 2.4575829582009785 -0.08187600884020092 0.11131308315439539 0.3192744483621598
Ni 1.1966452532338379 4.791322898158853 4.253122681240074 0.38507694867926584 1.0426661498644882 -0.5307818790499698
Ni 5.110822673633858 3.0398770737752883 3.054827627543327 1.6007891399315723 2.190775811476472 -0.23395496105804872
Ni 8.375230360209896 8.97559058899216 7.945736688305932 1.2495219407128997 -0.7410886045614591 -1.7625500953238742
Ni 4.947692432073661 6.031668614422747 0.5470379641907792 -0.5655660766086905 1.0446201882670656 0.32758271111753906
Ni 8.80517380696971 8.522435379316509 2.063803663420955 0.46651946952647394 -0.15764487634139945 0.12244004630549234
Ni 7.078892838821759 7.7556960133555695 0.3731441126668195 -0.0626608693643308 1.0078634403630062 0.9471612373869429
Ni 3.5718039173914495 2.7606598480207256 8.586217022027716 -1.0887061228426864 2.1783183024394095 0.2163753003030725
Ni 9.371523920346979 6.337928670758865 0.05419458367517592 -0.6869517135077394 0.8805413833748641 -0.5348964154389755
Ni 8.019419950756115 4.110021975066515 8.437682397084176 -1.5121452162399183 -1.0589474035230149 1.5982802574667894
Ni 7.917023399543662 1.3707898143329806 11.657260958048246 -1.1306809246125753 1.0669404490308205 -0.08355365365293999
Ni 8.296468116141114 6.709467115359905 3.686718106606775 2.826842050988254 0.42600479724187923 0.8742892318175651
Ni 0.6006203282291782 2.266996731703119 12.464664102521857 0.34635690640124867 -1.793757888385246 1.2978090578540618
Ni 2.665277530990364 0.8727557127251955 7.471190411842835 0.2983518392768797 -0.8373633053254933 -0.07894263724348985
Ni 1.5343895494796627 4.284560910778306 12.38576476632582 1.2662091715605934 1.419557220298852 -0.026252763048941884
Ni 0.5693051060106059 6.465630926282878 5.917595757714404 0.47110091824956934 0.9899333382471468 0.9118671900713393
P 4.190784261813724 5.100418695757343 8.644239856407093 0.8809854128908181 -1.4346881624030194 -1.3665261607148014
Ni 5.042023083470296 5.43424741549188 6.1602976502864815 -1.6649728736983327 -1.262916873962567 -0.630128019650476
P 6.6939174877755105 2.331786846638096 4.630561721236062 -0.42891425757919033 -1.6905743763165206 0.16680314580189984
Ni 3.762756348886768 8.469194806609073 11.311995374546926 -2.6931657696473104 2.18988003913508 -0.14106228939236998
P 4.053006673923735 4.9161142934466575 4.060665992293657 -0.9506103722778081 0.2887497974107414 0.11706386959524356
P 9.383064072702789 5.629847833493403 11.830725692434159 -0.6434625319758531 -0.0730938917721967 -2.0898697825880137
P 5.56875732801993 8.095036587795443 2.0068803830211266 -0.5796863180601566 -0.5563425011278935 -0.10466163927614879
Ni 0.22832036503085928 6.24294072834115 9.499070304000277 -0.7757964403562898 -1.2960851331844194 0.798067078829032
Ni 5.182749091083412 7.724052145626457 12.630116459360808 1.1615403331955931 -1.4103984366177191 1.0512947720737635
Ni 5.7965368364391585 5.941544625561021 3.0518998655380045 -1.140381439729791 -0.08037268482179706 -0.85005298497802
Ni 5.792461632108465 3.3767387220785205 8.768558941146892 0.15213088850170572 0.6266346617852369 1.060343255429277
Ni 2.927977972372372 2.284283485557509 5.573374327949427 -0.28459463759178727 0.5020050640275935 -0.7844338043163136
Ni 5.774254670824564 0.43444213430551865 5.591584106194848 -1.5118631662231252 0.4289559094504032 -0.10170512775098614
Ni 1.2185424341075142 8.081496392761206 4.008634835065006 -0.5911061298613238 -1.1400001451309723 -0.3677844801474053
Ni 8.453401042359705 4.577740875794942 5.843562253048703 1.8095712012684193 -0.30620295989018237 -0.5097715953468899
Ni 6.632385658330741 9.120842514778996 3.6312371105046295 1.420283299831599 -0.633052906606755 -1.1674286736555701
Ni 2.4829450017429164 6.475527851085989 8.029995763285283 0.7317884102064559 -1.4292672484977642 -0.5819612301372622
Ni 2.9473211081355677 0.05594579475276624 5.077731826671199 -0.22764881633436276 -0.9200399556901188 -0.40168164711548243
Ni 7.330569570793092 7.482403796662451 11.799185113294074 1.6039266571192894 0.4000181433701304 -0.9730432473600275
Ni 0.6166892157202255 4.393126607717176 7.933065995393866 2.8856578355748823 0.2671057367784045 -0.6584721180108078
Ni 0.706258263162726 1.0113361346480736 6.280302088966481 0.34275684775481613 -0.32333550580541087 0.3467240599326803
Ni 8.615789484053254 8.765989872241645 5.0988552821143465 -0.6451453189949147 -0.23647335660452823 0.5190751321360029
Ni 3.7928884472673974 4.308260947024086 1.566663477601838 -0.04467985940587789 0.3107345292119487 -0.43515946715795384
Ni 3.783686372972284 8.97883948461064 9.002603371984181 0.05216639759091016 -0.538234221562957 0.738215139668406
Ni 4.89905289651378 4.140792584724765 11.078060805208876 0.40485438841650917 0.8378039924073377 -0.9847533367081039
Ni 7.841735408014872 1.4083586911235377 6.3467636010693464 -0.4845009937055591 0.1826622243213435 0.14347321282670777
Ni 7.817030655494014 6.178206952636552 7.398530645411191 0.7633864967277111 0.8396058215027669 -0.08048015693393883
Ni 2.5278379784826446 4.444385917489646 6.379307018510164 0.209614070319839 0.7184287010700982 -0.1374817711299632
Ni 3.9964514764957113 9.018305115490596 0.6601145555086007 0.07301778711862263 -0.6686719413619452 0.26490744357550505
Ni 5.617612830629595 6.714809952374107 7.942700003788545 -0.19230977471343652 1.666601153330375 0.19266201584653272
Ni 6.710218305098281 3.441697854704632 6.668006136737384 -0.19549562864058587 0.7072366890090208 -1.1651843577060834
Ni 8.851278077162572 9.042211728914431 10.435148494709098 1.2622468444787358 0.1308488391944779 -0.16404769454394974
P 2.475564562563367 0.8432762104297808 12.731182465749162 0.8295497228183455 0.167963227548272 1.1793467652493945
Ni 2.9916788621867023 6.85056871784221 4.992237044572217 -0.737375160265614 -1.5573261836519308 0.5049844583708916
P 6.008870005863019 4.047316411655533 0.9364321888730293 0.02593266070536179 1.3859881260941551 1.4342916982955491
Ni 8.291585382841667 3.0598868904312932 0.5944793521179499 0.21819204179683716 1.0696827876626482 0.6254943775332066
P 6.924701755148245 3.277872762636437 10.674813702763789 0.22035691065863985 -0.3359549943416343 0.03245349254301507
P 1.6279784010096507 2.137331992987597 8.955381707055485 -2.6504641170137258 -0.19475849336424522 -0.5545548130998514
P 9.091424046649824 9.057366981886178 12.569331124718552 -0.6815014890264457 -0.3097402836194795 1.3571336637563078
Ni 8.629555036009004 1.617170658648758 8.834072076205057 0.5789651236234158 1.4186501351035503 0.5620961157822191
