# total energy = -340871.88642941194 ev
CRYSTAL
PRIMVEC
9.22740173876532 0.00000000000000 0.00000000000000

0.00000000000000 9.22740173876532 0.00000000000000

0.00000000000000 0.00000000000000 13.50523516474567

PRIMCOORD
 96 1
Ni 1.9553417690628394 0.3298722262256909 5.605023638482455 -1.019228230556522 0.4729647109311854 -0.34688089722551874
Ni 2.536465068695882 6.810865096732889 2.1261695781141983 -0.6162962559737064 -0.8309306623262723 0.8437776934922695
Ni 7.514020782876252 8.167865234727657 2.576150277611087 -0.5508495963341222 -0.6306805497198364 0.09776825459042517
Ni 3.121999066306386 7.769822810765787 9.5606529271906 1.185893565228977 0.4729914504040629 -0.06664787903653682
Ni 6.224878956442686 3.4125145791147746 13.475226737842005 -2.5693396416275687 -0.6202331291342673 1.430456640820175
Ni 4.482699392353376 2.376203557247016 11.642944365090516 -1.5812148173440703 0.4021734991502364 1.7312916515302248
Ni 0.1930418557269692 4.993159250330764 7.461331396848836 -0.9979976033125199 0.6172167109054466 0.00394458647004482
Ni 4.20626489442701 3.493282025551436 6.949266893728602 0.030939112781017686 0.26395510696456476 0.13426095019982037
Ni 2.454904065719343 5.296565443211358 5.91278055122994 0.12596708562214437 0.28392820765238197 0.8149497135169836
Ni 4.485495295046202 0.2833098348782633 10.390860706329095 0.2749008073427911 -0.46400904439979446 -0.5113674790791
Ni 3.688229339714275 7.494689376468757 12.193917129909005 1.0864965167858773 -1.0750227118183229 0.4013546027933668
Ni 4.945029123446996 2.3837977087856164 3.879689618802464 0.5727623372468136 0.3648269401809781 -0.7139935481168801
Ni 8.337557150638794 2.7103462249454457 7.7634974269508294 -0.15655010061532393 -0.21530777827050662 -0.026398544598186795
Ni 4.990658624489985 6.828757028486652 3.168071482627447 0.8212430027248632 1.0430407595950875 -1.3181621675891169
Ni 2.1480283698271885 6.004860792060676 13.358595149503671 -1.0939966818176643 -0.24459881392514005 -0.7451100670160264
Ni 7.998828464331999 6.107017355467538 12.668639261387 -0.35449573345829916 -0.055947461899897195 -0.6114692668987082
Ni 7.3398535771762665 3.3517060023962104 4.022142245112205 -0.9933801591451664 0.6513409062826653 1.5915221128073493
Ni 3.8394572249708077 4.93400237850334 3.7218945918083586 -0.45640886345503334 -1.4696423098807012 0.21729498390386445
Ni 5.766784602695626 4.609677666135496 2.31089385401505 2.060246817515258 -1.1413188639423955 0.49904983805401143
Ni 2.5181209942624214 2.8602638191710175 5.199110240933191 1.0440026092877246 0.5994372754348385 -2.003295082720563
Ni 0.16440646025948494 6.750656301120046 3.3963232574807742 -0.44955044577230324 1.04933584857518 -0.8585340258658374
Ni 8.894919891083628 8.999586307732896 12.094909878677264 -0.16509644752343824 0.7901038581178974 -1.6894405198223934
Ni 7.360116951148037 7.119484771532449 10.342025605961062 -0.3585436782754277 1.7667098831285186 1.1862666322976796
Ni 6.230849085295025 2.427221860839875 6.292777868571045 1.135362903469277 -0.7512082094939644 -0.6261726345471538
P 7.876934488846076 2.9869006790929564 10.020168300788141 0.14936103906605247 -1.9232378722566554 0.052285439667277694
P 7.054874505343772 2.1304778519336063 1.9680229871181236 -0.22762799039875636 2.2550284508079548 -1.979905500152029
P 8.419394975664128 1.5591355980246422 5.782968542408326 0.21978381176398926 0.0271081690707017 -0.30188942011649295
P 2.8251074189740932 6.808899660186446 4.388850258630842 -0.25191900173563714 0.8728797530645483 -0.06630103722007936
P 5.477025736820609 1.3401509026247984 8.004958227232477 -0.3103326657878398 -0.45424142349006935 -0.73180075150163
P 5.846758492592409 6.223393344780822 12.005491743215769 0.3209145550687441 -0.33533021627344184 0.9532933184266097
P 5.829420204936235 6.080885354061321 7.644705703891732 -0.0957036587519126 0.29348576943383 -0.36150764599975804
P 8.736042489878734 6.852065444995163 8.740925630819472 0.47221009215334797 0.35104531301585346 -0.9573062962407449
Ni 1.8090228614715986 3.380246355626942 0.23634974252073399 -1.130446440004266 -0.7395577697392295 -3.3379269658299284
Ni 7.684294025089859 0.6671706652803804 0.4563568340207928 -0.5479154534064627 0.8749471771165384 0.6019178757648472
Ni 9.177832024951789 4.208534835227127 11.8202811832492 0.013509347340344476 -0.9232391793537068 -0.9652777444819957
Ni 5.743005588704163 2.2105809254531597 9.863561763123526 1.543684167388464 -0.4951721002661601 -0.709222866201114
Ni 6.275131385700548 7.6484455697709475 0.16371348239733563 0.31720111077289886 -0.8303992153028344 0.34996133592305534
Ni -0.09181725988438166 1.3395880311255826 9.73836806881597 0.3192114563347083 0.5004901700449639 0.698371782419223
Ni 7.228174335290866 1.1364744665233002 3.690116343346892 0.30203443033478955 -1.8423270555432014 2.267664651514727
Ni 7.484419278458475 7.257176058602923 6.735384951428207 1.0208562530782483 -0.17493066000504065 0.5175751505517087
Ni 4.6950588133854 6.3043545666516385 5.670591708959963 1.6322111058862794 -0.6814058439888457 -0.40475848626859323
Ni 2.5565808042416283 3.2091334198653247 2.360296439583111 0.3201391103553003 -2.254852330241407 2.7208470376126628
Ni 0.9345789189357147 1.2475354724997256 1.6685587402123654 1.0535105487781597 3.468640050777491 -2.3987446328834046
Ni 3.973808192652492 4.875897430461338 12.144015341912953 0.3375328803517154 -0.7206257087214171 -0.3403176421857042
Ni 1.7046794038792576 8.494275339863089 0.32263609787019804 0.77865216463753 0.19667345099877095 -1.321397386696963
Ni 1.6389433946921481 6.651646281667816 8.141144525097669 -0.7814217569628672 -0.003777978985193493 0.4511167618181585
Ni 1.3428914409078656 4.8712560474432145 3.9602346848599264 0.2849381369741351 -0.5152153920702804 -1.452688198524866
Ni 4.198329329028229 8.593931277429173 4.429528335961057 -0.6687986967477967 0.6964267428777103 1.013793432694196
Ni 0.9943355718688592 3.5476129663282046 9.4038978283598 -0.232677894117838 0.5563934089704871 0.2385490081866343
Ni 1.8959911218012602 2.3463713677885756 7.253324541164026 -1.834532756309763 -4.231145944672461 1.1159248493493235
Ni 3.3673003111449775 1.5166803231411652 0.30725309661867767 0.057529718785352534 0.2229976907155966 0.4822744183678856
Ni 1.078609430923586 8.586041849038525 9.461808078227484 -2.3979650744049024 -0.8843170483672125 1.222627430314901
Ni 7.86943261132374 4.907934968908509 9.757788981019242 2.0236217100930567 3.3088799278653016 -1.4394094791380887
Ni 4.023691525845293 4.026109105071433 9.842872083196612 -1.4466306794768764 -0.9871619461495967 0.3877318698036097
Ni 2.1863866783885046 5.795730961597923 10.531328518548978 -0.20245277668470937 1.7573634089166124 -0.21115673221661052
Ni 7.4815864661591425 9.2528692549784 8.898018452549803 -2.0584879258426225 -0.7544493421390813 0.3595798328494259
P 0.22098058237165344 1.7774836027122582 13.070109665053108 -0.45745118867661855 0.043464498941538046 -0.07556240791734728
P 8.71224502108402 5.665689190475809 5.2223660612524325 1.0218803234673886 0.1732987808285725 0.8815741955147527
P 3.03026023933583 0.21395668425356978 11.97540210925195 -0.20493337701471803 2.1816805340434233 0.3600243765860122
P 2.444929244561108 0.33555538288744563 8.176488241547611 0.447666598486029 -0.7212013787192288 -1.49545695695096
P 4.340089900215984 3.4238366009104775 1.3358500107266917 0.1221086311080026 -0.8513722180100757 -1.650275419587158
P 3.195809051916674 1.2669222433169796 3.8787705696004653 -1.4268766367784005 -0.3665125554135172 0.4585220531432942
P 6.576756690067229 0.03702956272710152 11.047876616119524 0.9418902187959908 -0.2762164408304211 0.00043014555888313015
P 6.403133901063207 8.424386999944058 4.438711446059739 -0.39439951163177234 -0.8857491528280488 -0.025633127187071985
Ni 3.1061925273202102 9.10977993795643 2.2247579053120976 -1.4082885893635682 1.3421947830582883 0.6262492534213602
Ni 4.495802302662991 5.620788654161313 0.8220747473449067 -0.5889384327860437 1.3226474570539801 -1.0481443993702402
Ni 6.964298330978153 5.702192791310201 3.962868185284126 0.4940446715299363 1.3906611060897922 0.5786180246966423
Ni 1.050041395487975 7.46106472494183 5.849859822279071 0.3826567692735474 -2.183320126529375 -0.14366784533601706
Ni 8.720817277195028 7.855508462269367 0.5786263647529144 0.5141414422798113 -1.366379093613976 1.2355719062907107
Ni 8.568934246423014 8.655321180450207 4.971723073612266 -0.3262873893448832 1.306139432096628 -0.4754273135390651
Ni 5.891271478038592 9.041248026076493 6.531699287925082 0.5551466810475794 -0.29161966275936874 -0.6379657705273399
Ni 5.356654282603056 7.852740241781421 8.544491782254605 0.34432907733794244 1.835062403560988 -0.10700854224177055
Ni 5.346162726953738 0.41581347675432423 12.829878877408273 -0.23631780486327042 0.23389042636870042 -0.4514353214998419
Ni 0.02957751317354877 0.13949708956877713 7.442762173815688 0.8045812257984659 0.271117686151275 -1.701651717176605
Ni 3.3140858859650137 7.661760710317973 6.948592370669705 0.06764289595995447 2.410122792813359 -0.34013637941283353
Ni 0.2923683750549878 3.5778234792533303 5.580119804232723 -1.226667147601913 -0.2377563370820099 0.6411421113727925
Ni 3.9577248316175213 1.0603022660966313 6.257515353255417 0.6628514780254261 0.8123436433527043 1.0576209714021074
Ni 0.6022494356568897 2.039218849847627 3.8878604829427204 0.06345739712369716 -1.795604968896314 1.0265684729716773
Ni 7.09882461929074 4.782294668362231 6.543610940684717 0.4952466622578374 -0.44123678370028524 -1.5148880690923783
Ni 8.257435622315988 4.039045922151771 0.41413778061895373 1.0049881756977403 0.47693706531537217 0.12196156400717705
Ni 3.786371983413615 5.717685598641077 8.235721700808533 -0.34646026474833236 -0.4169511716800432 -0.7453877461574454
Ni 6.282070391723667 4.127186062487997 11.19490787911633 -1.0747044092469555 0.8141321027116946 0.796391748009138
Ni 8.89651623156501 3.5632810942899833 2.501547658201084 1.442309169283387 0.6739385890775231 -0.8707472801025778
Ni 5.9816446495684295 4.213563769113563 8.550218307704005 0.08375959901615898 -0.958365847853511 0.3087347251731005
Ni 2.3132265411462263 1.5846032265137526 9.925794127913058 0.9629537243345093 0.0232132048916697 1.1734576534584693
Ni 7.34560224838957 2.0431681777437647 11.9221922977728 0.9061847949745813 -0.8737032774071082 -0.13082441371444567
Ni 4.9124102586973555 6.388120918616909 10.167213404887386 0.08278437958708323 -1.4933031438327509 0.7660481027202742
Ni 5.4991161363144245 0.3822063572904876 1.8581310929277746 0.8690133281306066 0.6074187509784184 0.3810845396904211
P 1.5552877715463962 4.849377878186808 1.6393872327103822 -1.7470347732970943 2.1505951254925284 1.3850373321451115
P 0.6931015093311406 7.0981694737752585 11.871371460574746 0.30074965008509497 -0.3612417939328811 0.38949667501351626
P 2.2558413304310894 4.18510646249747 7.671095149803329 0.24719382834582587 3.1508828103908058 2.345836472030463
P 5.422316472577155 4.106931915917853 5.108827497939295 -0.010348433113859596 0.9638566957647529 -0.32053763134529956
P 0.47742391467423057 8.84073658873288 2.539659595138972 -1.0956655848796548 -3.783710745470948 1.6638611286913925
P 2.0101894443306914 3.9342687766829854 11.32879839945685 1.6144062164943747 -1.8788117807327966 0.8650286324512457
P 7.545384721004689 5.9309308502292435 1.6885194554107872 0.14562136951796212 0.14696579936099852 -0.30332460990112275
P 4.37305940622743 7.8984804716439285 1.1556213248982654 0.011909606953392392 -1.0576050305625075 -0.9135543479657751
