# total energy = -340894.67172930803 ev
CRYSTAL
PRIMVEC
9.01735515956275 0.00000000000000 0.00000000000000
0.00000000000000 9.01735515956275 0.00000000000000
0.00000000000000 0.00000000000000 13.19781076425405
PRIMCOORD
 96 1
Ni 6.4134947784340195 1.6487963676799575 11.353549189363575 0.8750988722030542 0.59354173588601 0.6082859840747201
Ni 4.698465935949394 0.45906003316453164 5.988704302416889 -0.545044559616571 -1.438179977606362 0.28354639883293103
Ni 2.730103513183982 1.5044104743413111 4.751634066370535 -0.4611471494709671 0.7597584130568206 0.7112458101684138
Ni 3.3116958790759803 4.140868752556404 4.726769610818951 0.4595970313750278 -0.07783809132540143 -0.138888935890135
Ni 5.03048495872787 4.323389041531395 2.682916594544724 0.5393832475657356 0.21718802601235498 -0.23730202315341067
Ni 7.183892529957081 6.0579584929883445 2.7727411760657246 0.4137144099103004 -0.026043989472245472 -1.604239817484334
Ni 4.970077695458097 4.668185656794311 11.273477779353634 0.38999572613712186 0.6994691292484599 1.101540041382561
Ni 5.69625433650572 8.020089923229586 12.507618276657437 -1.1265080241818084 -0.5973212575331003 -0.5041179966055382
Ni 1.696732628546073 6.367812856397199 0.3254065961243899 1.3759541388969205 0.9821300401526442 0.6919260267938794
Ni 2.54161373498902 1.4678000117535703 0.3459814957515938 0.13921932264636022 1.5397364955946256 1.3305561703780957
Ni 0.6861756528606231 -0.1775986164428746 4.742356109484691 0.0897330429907745 0.5851010613178246 0.6840101143809123
Ni 8.661124695372418 2.288460501814579 1.2386717183506846 -0.20501128144050498 -0.3553675945402912 0.29149187893225287
Ni 6.812260265270244 0.875687097413021 4.918784273207397 0.2517696206419664 -0.5184161583957653 -0.6344744695446298
Ni 0.7747567410833848 7.275499842624288 2.4315776532600983 -0.19242650279695891 -0.1230689381387429 0.23953554046961975
Ni 7.751886724030775 3.8590944336052413 3.749590375840033 -0.9601494221164948 0.13392619256822094 0.5193206724879056
Ni 7.3668095825660265 3.681732071871677 12.571746100731076 1.3643512645506695 0.3083158924681271 -0.36423095846819203
Ni 8.08940633355273 8.836241735632006 6.931925980742379 -0.6102083979084136 0.1960386456282495 -0.008306205872850211
Ni 7.120780060092155 0.4543358407138623 0.3693463651139325 -0.1332350800384673 0.6892047712079744 1.059129180516518
Ni 1.9233838544433297 6.3962265430016245 9.088368793771352 0.34551615566750815 0.7712610143797815 1.4357973363067982
Ni -0.0014905688339294436 4.708159592915359 1.4958394781123336 -0.027378649123268976 0.8797456269464463 -0.16538338263623775
Ni 6.151179912257326 2.2686403548274225 7.028705648419519 1.2747308358783596 -0.009520795006241667 0.028707395237021528
Ni 3.288611449464006 4.367132232175023 0.48399031540993226 0.5755494130736475 -0.23886731075800152 -0.7503175793588949
Ni 6.116607371971267 5.765922423686233 4.785169610795118 -0.4134020208762042 -0.9828795167241589 0.719839979595328
Ni 5.178225308244506 2.754594650225436 9.561893566600169 0.3342549809313921 1.2370903998177663 -0.6566422638909207
P 0.09871208692161056 5.422523498497479 12.507407270543014 -0.6633456440530253 0.37603283619912664 -1.0439326752817377
P 3.8581836807182066 6.350896297822173 12.702826886299228 0.5000913919446484 -0.7276468772342566 -0.6311469478332937
P 2.3323209180773303 8.472472604781748 1.4198862942757475 0.376753516415235 -0.4394346974945399 -0.4984883091235866
P 6.424387743657171 7.9179413221966 5.782700114989374 0.0631313812428461 -1.2002202662642945 -0.16548571254205696
P 4.5911954770962495 1.194447902668651 12.559683584523288 1.0994196526054485 0.4380699559365295 0.8182489530935455
P 3.9564638363201245 6.197835708668403 8.155468380341905 1.5517607737490113 1.1157790678000785 1.8339298326184417
P 4.8275944640913755 1.095861156985949 3.814879635278525 -0.6674164716882893 -0.44757763831664854 -0.8437584102185598
P 0.36354279523179706 5.4705679676274 3.6115022034549034 -0.48437166721654645 0.3267712709598372 -0.26293129368574075
Ni 1.2397961825587367 0.8630267305477036 2.6623155445871 -0.3472043420032085 1.4171972047071077 -0.591078104836866
Ni 1.8944020744539214 6.46285578144025 4.768224196683079 1.29334690831765 0.10451020129994905 0.010492929111523865
Ni 5.863634485903169 5.488251001404386 9.256073567960222 -0.24936075409015765 1.0764877263996235 -0.8899518780554866
Ni 8.76859353604254 2.2868644299234386 10.023526251236692 -0.5334637967575071 0.2367770038878761 1.2297213610472046
Ni 2.5863939214941243 5.218352539405946 7.006981937724907 -2.5142660976921927 -1.0443566501930335 -1.4255923707493383
Ni 0.6122513739704019 0.04595424616740006 9.152483993547548 0.29813509528038334 0.03205959953870608 0.1783078040073897
Ni 1.5688665301484959 1.2116890860350944 11.349760998394828 -0.5369543264092688 0.27375975175981243 -0.47060623800133794
Ni 4.204224691014894 6.767299731658797 1.7274484459629749 -0.33031887910177954 0.23630392090619945 -0.5819535168277784
Ni 5.869279350331722 7.7449613951471825 7.933124745079663 -1.5106598899436434 0.36553347932969954 0.3259382335355806
Ni 5.433073804218576 2.903831880724724 4.7811577894145065 -0.31128448817814774 0.9875059597525766 -0.28328363208984764
Ni 0.87937699920881 7.311452038273874 6.910347449468373 0.384417460718396 0.6426487778253062 -0.3576517625887776
Ni 4.920265824686009 4.650241119713129 6.978249938477784 1.427874996135928 -0.8300348899848803 -0.11427756509935803
Ni 8.2250904790103 7.222495828069918 9.125877384948684 -0.21154111213922278 -0.3202638088586226 -0.41389155891811297
Ni 4.565721448325224 0.5757599404728478 10.328817832855053 -1.048640108059736 -1.5514704962021024 -0.07216340953812733
Ni 8.269284537419788 7.000389349252519 4.792784767360475 -0.307457915343206 0.6090524299270995 0.42096363527354597
Ni 7.232000120574223 6.072584643312806 7.027200651817082 0.4118632156341746 -0.6626375622424071 -0.0027739632007113516
Ni 2.3851716375913075 5.042342780969958 2.5540405523516228 0.060712487388708346 1.1420446863648268 0.42139198106021625
Ni 2.3844953359425194 5.189469950325026 11.363130129388075 -0.3179595862054782 -0.15637757959320164 0.07196749147723736
Ni 1.0737596191035472 3.3723015241627303 3.630506279785855 0.26800690843643526 -1.1242729642037024 0.8416884150634084
Ni 3.479671173924363 2.4517287371873953 2.6097876463934777 -0.34723545235146 0.4901360805041494 -0.5003459311576156
Ni 0.9344595141637888 3.546607002443772 8.119741618575247 0.43341728765586646 -0.4026571236548743 -0.9025991345058519
Ni 3.717539989836189 2.5417580126740953 6.7411250543796255 0.0002550534335995607 0.2725469623986338 0.8350382567367425
Ni 4.180770549834915 6.77757951672038 5.9659381854476115 0.3354027213825901 1.3483430620478716 -0.18786716556105065
Ni 0.835118917576571 7.19657994888835 11.337183591198428 0.12532405272150673 -0.210357890464399 -0.4485741979019629
P 0.2664123524328194 5.633944411264023 8.006782110252496 -1.1602560671665307 -0.7649507558910374 0.2177842648354572
P 8.486990546842405 1.7273375324925735 8.00576585430825 -0.1458298859843424 -0.4050870732526055 -1.3544430042980222
P 1.7659769000266792 3.1519444122768636 10.369691701036755 0.13901080617997993 1.5425608524172982 -0.17036515212154532
P 4.0928333007818 5.927838055761473 3.8270224059486364 -0.6335486152962508 0.6348439370689067 -0.1846597143673465
P 6.913732564654443 3.999061822838471 10.473492281563848 -0.5707291088668688 -0.20631817317738663 0.09659480310761429
P 6.387578899252452 7.950917790591518 10.15303621350859 -0.8683438128674078 -0.09463767938124347 0.46980996735228764
P 2.6508950640778948 8.3919205697334 5.87125775808831 -1.0709871082963685 0.39931648931741553 -0.31029769878484625
P 6.973652890737087 3.861051199709069 1.6234098072555074 -0.7470707902868231 1.0642505609034831 -0.009584301254325429
Ni 5.328679881711613 3.057181025248645 0.4705192883016008 -1.2549037738501034 -1.2915908448584916 -0.48449482305797203
Ni 1.3683746520263709 0.8268905808496465 6.961963693039429 -0.08828654035223504 1.3521403243067747 -0.7682037156106963
Ni 6.7694819316455535 0.7934993141101382 8.980278657319877 0.13856574822276138 -0.14481867111100866 0.6771658377655692
Ni 2.4917838295062977 1.7911894254935077 8.891167348604466 1.2552668136164769 -0.8871761150825624 0.49896087788463095
Ni 6.467914517773186 1.9014265942460027 2.4325939092043445 0.1867075980353107 -0.30594842067721506 0.8102564218063724
Ni 4.215018465329555 6.972994623798933 10.497446885963932 -0.021145780839679714 0.3185118591645224 -0.2756160882422608
Ni 7.960422083095823 7.085792721461507 0.3592784879023038 0.8215111687845852 -0.20981358792515478 0.16906983034888948
Ni 7.468047430711978 3.85830090633733 8.424466008544158 0.2565212763943388 -0.4330321364023058 -1.4524328879809503
Ni 3.1208165017219667 8.660159838353481 12.341906337993665 0.4718509090417164 -2.693679218948619 0.40630654748200346
Ni -0.001750268667064156 4.8003620510335 10.070682510867872 0.6049430357444162 0.5264146032202095 1.397936813815599
Ni 8.495430791419281 2.414478042372135 5.800450778931238 1.0443911029753947 0.6711535701332183 1.0529371927731932
Ni 3.638872582049132 2.8725777271953867 11.519511810505163 -0.7071415581920532 -0.7429881355770172 0.28716728341496994
Ni 1.0123424120382511 3.394835895100357 12.574597388482367 -0.21820746841580485 0.1599095040058601 -0.8641359454336472
Ni 3.0485153467888373 8.38317373507574 8.12704026596897 1.2417312410238872 0.1105497226258096 0.1885989015207526
Ni 5.327354330479988 7.7817522048412675 3.7028038277768576 0.7332737365027308 1.1617840737752831 0.3171895408086731
Ni 2.930108454118979 8.525810261482853 3.6393099237820152 1.149381586345872 -1.2119457822313386 -0.8250808884137145
Ni 3.3042385262286746 4.254685811369819 9.212283487068943 0.49198573211837854 0.0029336287070272056 -0.19577947842959184
Ni 7.328107093544701 6.324908279798068 11.248850480246888 -0.3094644042502735 -1.2932826307386178 0.8217405111865719
Ni 0.5626937926182576 -0.055342214788113575 0.0547443641305847 0.24965694517433773 -0.44043717061712534 0.8644804732572594
Ni 4.526468900629549 0.3660595391008213 1.637347031633737 0.3436315370502856 -0.4919944738691269 -0.4087005016354768
Ni 5.9562246902999485 5.5120297673757825 0.2448311159522185 -0.5668909660677011 0.6340227267191919 0.747678341963835
Ni 8.147956021627163 8.741352105629348 11.286794609686043 -0.8140577978303334 0.6043473111419463 -0.5457295014987376
Ni 0.1709320856568853 5.055805692458504 5.872827679649032 0.10668278347123562 -1.7338843519580656 0.06542454815239701
Ni 7.959285896325858 8.714913219839383 2.9720418615504496 -0.8181988165819006 0.22632109866187475 -0.8843658993272769
P 8.476755848557408 1.7743720578269715 3.7065388163492323 0.010472103175917447 -1.5982494042288538 -0.764425993735819
P 1.6367131115549396 3.2054083119524086 1.4528807973813 1.6519240109341742 -0.700365158700168 0.8554744131039074
P 4.68269458149965 1.1346718542710812 8.167385717129086 -0.7065072670421639 -0.34817236234343263 -0.016403638169004007
P 8.495764433566018 1.6917099616344051 12.246737169976175 -0.08362101655576566 -0.7312639051615535 0.5293767711723271
P 6.317757517031546 7.735096408430191 1.6556261125971876 -0.23496257638695664 0.4379509138601619 -0.6575840589788998
P 1.874581927466765 3.2662754603433575 6.016077386217714 -1.7301487961750333 -0.7137369520213837 0.03859328689216579
P 6.937547400047109 4.071092457112085 5.98310903344258 -0.09045475164814744 0.5452402205671449 0.27746522563585757
P 2.385342967342334 8.468820575878292 10.342214015914253 -0.05954057856779423 -0.5481345113958044 -1.55807206067902
