# total energy = -381170.70515357744 ev
CRYSTAL
PRIMVEC
9.21873140888312 0.00000000000000 0.00000000000000
0.00000000000000 9.21873140888312 0.00000000000000
0.00000000000000 0.00000000000000 13.49254526054626
PRIMCOORD
 96 1
Ni 2.2974093175546777 6.465870835491893 4.618700681158917 0.5493897239591441 -0.060713515829972864 0.11521833174607253
Ni 3.1707642919224925 3.443500465927072 6.108723345709963 1.098880235162211 -1.220829972094846 0.6955813641582794
Ni 6.5944537036688695 8.58234410818641 8.397463368080125 0.1619419610548566 1.16374145461197 1.2270361009055577
Ni 8.55946321638721 5.062457232328564 3.6457668119334827 -1.1324984374372882 -0.6889294060594006 -0.34926868073140493
Ni 7.385347123990007 5.09756216221227 10.880442986863804 0.3634424011286257 -0.025117363892918035 -0.2334674798986689
Ni 9.35286413170004 4.161022001546419 12.226904188155139 -0.6364529334272394 0.678746809099444 0.3666246555113492
Ni 9.193002107248006 6.126317294943958 5.658179964345887 0.38466531506314394 0.7494048377366384 -2.063524202714949
Ni 7.284623262669269 9.129899889534254 2.9128518383099826 0.4212497990553971 -1.0202276183553138 1.20531439295775
Ni 8.08526088227798 3.4890409999673833 1.2864712273613927 -0.42651464699876224 0.08823537539932545 -0.2520197889795595
Ni 6.477348156317841 1.467751130909753 1.6885250024504412 -1.1565073987573757 1.5923456371499092 -1.2892344288111732
Ni 4.640340731686494 4.7794606100675345 11.89505474159455 -0.08682281132251499 -0.25605847782530744 0.7121256416702059
Ni 4.06689875204205 7.900287032982665 6.101747531517998 -2.4559478215672734 1.399872597385731 0.6002412593933726
Ni 5.005752814336265 3.4414907824410825 2.1313098993108075 -0.10880265802771585 -0.7393603090164428 0.18424216721395367
Ni 7.827689521734192 8.23798760848159 5.170505375895259 0.5806425113258388 0.4911421531711606 -0.17039729091106137
Ni 7.124208114322009 0.8979735970711857 10.470228790573847 -0.6774556010918462 -0.2538941231841369 0.47539286075670384
Ni -0.19186669490299482 6.331424854025515 9.492383181158802 0.7426783176460822 -1.583807003551279 0.2953343926067946
Ni 2.0848253671559758 3.1524558909904967 8.150927751119264 0.8950130946284781 -0.2878553106209301 -0.9054229771078923
Ni 0.707368946522466 3.018387877519191 3.6551035432849055 -1.2240582492241563 2.0586203376554284 -2.392859891967853
Ni 6.722289854587292 8.44716984692465 12.119449730902655 1.3396655888785316 0.3079744499683083 -0.9639058038351335
Ni 2.434261387965291 5.637291240442661 8.806868159736734 0.394918617360036 -0.35138855528788515 0.04613227558168829
Ni 5.765533015550915 3.6321341516624677 9.994468490826398 0.4269651042726195 -0.5902954610345705 -0.050480011027422736
Ni 1.2724430835052911 1.0649386542110855 8.802442246701762 -1.2719152208064353 0.7433953983177648 0.9071615570655537
Ni 4.754496284929647 7.423973609339988 12.868596125231575 -1.7314731714134113 -0.13969523384151425 2.0725102082636435
Ni 2.2815991928827883 0.15210446182148224 11.189327651167748 -0.9137901181256649 -0.8152453903805315 -0.6664469086861684
P 7.81788079132551 2.958973152440282 9.973811157086006 1.2970508395317983 -0.19872236310799968 2.209522495956356
Ni -0.01535932869728001 1.8085584189535349 11.363394819122355 1.0927838924564857 0.0309383414500693 -0.5770329395977094
P 6.168456117028627 0.22040327853088648 6.395008289528114 -0.3692145277257125 1.2257042694680118 -0.8354401201608515
Ni 9.0377678860527 6.60643805473211 11.938636295172602 -0.4725973002894377 0.7602806041088777 0.5721221325596534
P 5.66725211810076 4.058067207181601 0.20611608831718709 1.2069686407317213 -0.259880679784875 -0.44128229222624
P 8.013622119114567 7.196114220701449 3.0560749741204454 -0.2974576095973845 -1.47513007246815 -0.15380493377001897
P 5.620245805738097 -0.08370055157198494 0.3516734069655055 -0.7390533192989852 1.6713435531113665 0.024436535775809527
Ni 0.028758755059140943 8.75193189446284 10.280685216030804 -0.5178034645124309 0.04696377034404815 0.7324077889580095
Ni 2.661198903445119 2.806919393642529 1.9376372548898984 -0.9534730385375836 1.4335363081867634 -0.24099592706523013
Ni 3.5251323341309098 3.8315260971600185 9.960480871211047 -1.6510146117460276 -0.9721060802577388 1.0028395047858534
Ni 5.5993838161564735 2.3655541814465777 6.3444647498554785 0.7144707448636146 1.0214193246705698 1.644915183716509
Ni 0.9126120209583539 2.4075823787522013 0.20665446224187417 0.12975149236524106 -0.867834477331157 0.351342275430982
Ni 7.2169116791619645 7.773169943128038 0.9080026551648002 1.702731580504345 0.5862539439753452 0.2031027515638825
Ni 2.7344048509783403 8.849742636602054 4.31111124864296 0.07323710221828032 0.39878169985986806 -0.2007669043418542
Ni 8.13026672988624 6.893066857238461 7.355231371641245 2.6160709842458365 1.25952764577536 0.5383329519243503
Ni 6.486225794836226 5.488316537995001 1.9111112766211549 0.666976041716761 -0.13966849436863688 1.1368921956296096
Ni 8.769429047015173 9.36328129839347 7.36570200697788 0.5180276647080949 -0.9683409567883516 1.470211809230926
Ni 5.907427732139674 3.7195553833030095 4.440693427323979 -0.5596160296728427 0.6723113378867452 -0.4533045134980967
Ni 5.245541241648521 8.136424842586427 4.15037436656331 0.07201377133414048 1.1064881294164555 2.6997758187646603
Ni 7.911589197908459 1.6332826752878575 6.052526879828114 -0.33428609127964365 0.6216246101651552 -1.5298626881243396
Ni 2.5607700415351684 5.75827787379186 13.155096787368864 -0.8108346629073455 0.7755660695130385 1.0118545638002703
Ni 0.6506248879843424 7.660480168207234 0.6143279761064236 0.8471190991606766 1.0705901299682659 0.09963333282362195
Ni 2.7833286595111204 7.579548923604016 2.201511462219791 0.47600015532339957 -1.2594613113137987 0.05192625655564605
Ni 7.93230368778469 1.1864599739923383 13.12116355826988 -0.4388659694752636 -1.6628208603523362 1.8956627908518644
Ni 0.7269440011745303 7.955175360852304 3.5053360299207545 -0.5448013332575133 -0.3346241913453527 -0.42267521864801405
Ni 2.45752946649115 3.5132954827730636 12.280820861715497 0.6662247653730333 -0.37749168013284023 -0.8276913294533682
Ni 3.0717735521401313 0.057149682727956286 8.142373690079587 0.4572321306872771 -0.18126354420160393 -1.0570450442939796
Ni 7.652985339426916 4.052996904808692 8.223976058342346 -0.2152095621297455 0.5168930368830196 -1.0423018245465339
Ni 5.4657583018013485 6.748996519995142 10.979032711822127 0.08721130501018529 -0.4151233744426851 -3.244821406822496
Ni 1.0541619569857565 8.18865817575898 6.21034879897992 1.152923023840227 -0.2224392471089653 -1.9810727809872526
Ni 3.329427881268202 3.967640669043663 3.882938963221318 -0.017706416140827567 0.9726377843914927 -0.07817773405300729
Ni 1.3497237104000144 5.4158388702571605 2.757228586641702 1.479711521191245 -0.1687371295998191 -0.6981653228353718
P 7.407103330535581 7.507541411177119 10.139553810417453 -0.08781628558403586 0.25938317132316624 0.8486093105529577
Ni 2.7959859779802194 8.419356933726347 13.32042091028626 -0.7721267048141864 0.5065330338049341 0.6703400730929875
P 6.39668425493065 5.191123069089825 6.479821542002663 -0.9134170510569622 -1.457562753008348 0.43488435911969614
Ni 3.803040216555856 1.1789467077488456 5.790946292917093 -0.7580272892983267 -0.8985889849051945 0.0205809094751452
P 4.505443032372347 6.210954469645193 3.3104096380039993 -1.2406518919167795 -1.4385443029243161 0.18284245865294962
P 2.1439543115556843 1.7438060482856907 4.186049014059099 2.547522031531845 -1.1978417387297888 0.13462964639314878
P 3.513867044131464 1.844474597216906 10.995952771777102 0.6393711355152989 1.2204260517882077 0.10461304542640049
Ni 7.392519297164777 1.6926974003667663 8.367361443828742 -1.1920043061124053 -0.003485901666071416 -1.3508863972950154
Ni -0.01923949282229361 0.9395178109684863 4.119530334419165 -0.01541710588601861 -1.2309007260672866 1.767010702198389
Ni 6.556352686019355 6.05820008724682 8.602455693016843 -2.0791110014096126 -0.6527796956117209 1.7500547910703408
Ni 6.514905268803719 6.136199775205337 4.369210460724388 -0.348261065402497 -0.16715204450088633 0.35302711933257264
Ni 8.93631574493658 1.2433672040795536 1.9475815006529111 -0.01627199768714617 0.17627046186238673 -1.5010601620703503
Ni 7.9646983105817855 3.9833954813260295 5.691223585846716 0.29256968537746386 -0.28041968027849123 0.23599153187210326
Ni 1.1905991844749493 7.805085191882605 8.435269386318854 0.8173624367235343 -0.17989211777537406 0.43833915043751603
Ni 1.3311756224467537 1.5305491304811303 6.224583442423572 -0.02939825065645905 0.13066423398749757 0.4175008735359262
Ni 6.150166153559805 7.280862020181729 6.537165739967107 -1.2594782805946632 -0.10422480884904632 -1.0075088852370648
Ni 4.686498920743141 9.202183963908764 10.481521736768054 -0.20746565651826854 -0.6014357939221062 -0.5536950362027173
Ni 4.516892697003535 7.520549041446528 8.376900987275082 -0.7423340469327862 -1.3390436390238165 1.3591951742710269
Ni 4.106152111139955 1.1469761466047563 2.9180189373645566 -0.28065956420343924 -0.060679577268243884 -0.31677765008223513
Ni 5.934475490616248 1.2711248048883346 4.249827886671344 1.099064840369191 0.5028015917869598 0.5914486008024071
Ni 1.8569475410542626 5.608648641401516 10.994576415151148 0.07816642119909763 0.32087933095543447 0.105769784738663
Ni 4.654869452667775 4.149784367741735 7.989381464406266 0.3808425988829441 0.5687537303080528 -1.4502983581364508
Ni 3.5314563839996658 1.6773850872005804 0.06296578048626249 -0.6794345791950879 -0.5450149919302162 0.41836065043306014
Ni 4.679852215268837 1.609691941156449 8.50659102511567 0.4573221192979221 0.7691478246915205 0.40058095785213593
Ni 6.671494643542329 6.103482496802693 12.965931180820892 0.5203216029485942 -2.2084390330841903 -0.05147142840641458
Ni 2.045590445521246 0.5797798576105792 1.89374595193052 -0.8306105599826921 -0.658258459338105 -0.25933509169405017
Ni 4.0586479872715895 5.561688422696791 5.917911273700533 1.4570798998346584 -0.269208127833388 0.03808729379002473
Ni 5.248343736051002 7.868593033786189 2.083991071947343 -1.1239654602656126 0.30164825063996437 -2.901868898117106
Ni 6.90979885506906 2.928219463865691 12.229643073309669 1.1918538965774699 3.1922454324979928 -0.255004068418864
Ni 5.336613090997557 1.487709684795841 12.223234211110313 -0.23065854969496408 -1.4230845167258201 -0.37845995758338047
Ni 8.658481612364332 5.94775968283327 1.3096489623176986 -0.1203980761747991 -0.7691776494881913 -0.528043139962568
Ni 1.165975952405785 4.181008211627269 5.461283529488966 0.9716329972760621 0.0004509714944895459 -0.8066591913734172
P 0.9816013206636326 4.5638252595135 0.8053898757418639 1.2688144703939246 -1.0237754836075723 -0.7300146061354847
Ni 4.411365876525914 5.570252624341213 1.0539609886371577 -1.6669798768260322 0.8995968573444184 0.21212346700525403
P 7.626223361629543 2.8549674226745343 3.3726775605091177 0.1763943890347607 -0.4435947424095005 0.36892065063437757
Ni 0.4968499919992763 4.807264304534251 7.425068794652536 0.46438648234387114 0.2379939070141127 2.127587865964078
P 3.313331975917112 7.258534252277754 10.256507248697295 -0.08345877994628852 0.2621321948232131 0.17231636231064518
P 2.2371741253645165 6.344469359221273 6.905066880145398 -0.6070780798095481 0.822116920689384 -1.910724570280993
P 0.5761393805068302 0.12017907246216981 12.795588380427477 0.545810234138002 -0.2384235383523636 -0.42908472171878365
Ni 0.7983771866235511 3.5274462357592737 9.96216697721833 -0.4952749443926116 1.1132061648665796 -0.14834751019987358
