# total energy = -381159.2871083332 ev
CRYSTAL
PRIMVEC
9.28630868132938 0.00000000000000 0.00000000000000

0.00000000000000 9.28630868132938 0.00000000000000

0.00000000000000 0.00000000000000 13.59145142960056

PRIMCOORD
 96 1
Ni 2.2708831852314426 2.291210914702049 5.044834493525527 0.32685971690858545 -0.3961586604147242 -0.11491571290398919
Ni 7.331197026520585 6.261061398958331 10.423066966140441 -0.8986254945700846 -0.23427120674688687 -0.8604826649517762
Ni -0.04435233838490844 1.9748356678614376 1.0043783479120418 0.4865733028535556 -0.8747070360812742 0.6556032811034451
Ni 6.357954742629556 -0.14476797889861845 0.5862260877206298 1.0254032490189824 -0.27079449848390136 -1.9159727060538099
Ni 5.424532149907993 7.977914128298561 11.089727344214019 0.26358255411649445 -0.19868122545741912 0.30890776041585505
Ni 3.1151200703990054 2.080086689250134 9.347887944391122 0.10588522727060475 -1.7601504847434462 -0.885374028876817
Ni 4.362763486371787 3.0684656561183616 4.522527924988123 1.4046458504046582 0.1958283293896563 -0.06676383578911083
Ni 6.7753650267658285 1.2948271498421982 9.652553156118698 -0.8847081131580442 1.808024939827222 -0.09067175275495998
Ni 2.4431813545314136 4.797149142583102 4.810911451891205 -0.476264978949012 -0.21506866567650704 -0.26497069271327267
Ni 3.8922355171866934 6.3887388555555775 0.21530585020322385 -0.8398469909792956 0.31166141190159224 -0.8522304522453129
Ni 2.2085163368419525 3.1698721457570214 7.538770167573432 0.1707258778950737 0.19550874126670845 -1.5806111223218005
Ni 7.412907255671736 1.1471284119573195 7.4557533548057835 -0.13476977151543887 0.3255047455425878 -1.2387073665958988
Ni 4.646079474685509 1.05183231336099 10.6871751537977 -0.26759733170284233 -0.25861801102236753 0.23775505153042928
Ni 7.81783674108325 8.203218546944454 3.055861349489557 1.087915765730907 -0.8347502931826786 0.19846371012997432
Ni 3.687388836331457 0.27023807994759425 4.440190870008162 -2.799203463335379 -0.261160317828247 -0.6113098585027085
Ni 5.767744828530265 8.920669461137967 3.9064417120446806 1.0535082347853146 -2.1840264085677807 -1.5371988167744364
Ni 4.831917081887785 0.4432642958398427 2.0617555161231453 -1.7280716019310305 1.5562481200964038 0.14591010440297453
Ni 9.324475303211912 4.892491672722307 9.046537944824811 0.10334909111231233 -0.1711395683937246 0.8131178025145673
Ni 6.414824096342666 4.391671764965665 5.533691778575894 -0.6264551987845791 -0.23185436977527812 -1.6747700622944124
Ni 3.5037242253357244 3.411845488294983 2.507106445499784 -2.118772067444661 0.6309124632249844 -0.478860250480014
Ni 6.493349121652601 0.8722276764742335 11.898241657555392 1.1599675893918344 -1.8813468884498241 0.9318667731217177
Ni 8.983909222533505 0.6587883742945784 12.491359114869507 0.745373090869426 1.2426210998280083 0.6070999341864189
Ni 9.169793261278656 3.2903898584429663 12.669556876007155 0.24566942128149943 -0.38469925362487295 -1.5020070993646517
Ni 0.19864342672715737 7.318604792092928 9.073911196611245 -1.4900488985615112 -0.6025184854633236 0.2078767759137581
P 6.087258847669216 6.961406932756753 13.317828505840582 0.15668534064160758 -0.15281711593545294 -0.3349131833406813
Ni 1.929815643889989 2.0958548412104308 11.452456128937445 -1.593124424297463 -1.433755109065789 -0.010624312483065574
P 4.811060032828405 5.673535228037206 3.1175800135405147 0.6825327585044374 -1.4949283381409997 -0.36232319992251794
Ni -0.10221811300811146 5.714487848852818 11.624550928079625 0.9884747514237493 -0.6866084712357078 0.5293333195289013
P 3.7860465786319253 8.090157740044209 6.849017525966478 0.9750967874549463 -0.5893935180455914 -1.103641661106596
P 8.718710822249546 7.640811840718619 4.9267247206530715 1.4197048016203098 -1.065188242226404 0.32995172557034785
P 3.6342247197397604 3.559126342293988 0.37498021162638223 0.43582075489103655 1.238975275545305 -0.5104629649869595
Ni 0.7806758174953312 8.093992985485672 11.293367733585368 0.02291598536622505 -0.004665266686153255 1.0294090277442658
Ni 4.5999729526107895 9.214144671032706 8.499264207052745 0.9474216901371812 -1.1356223277782507 1.3411365169971032
Ni 8.765810979341788 8.578255405053143 7.194662288804534 0.7187855701888847 0.4738576550591 -0.48887521151385477
Ni 2.668625067805931 9.111744546376526 10.100975996371934 0.2372405737878559 0.8976016812912606 1.8337441989701968
Ni 7.711777810848531 9.484664126130124 5.061170967570612 0.4635652719941564 0.5409701324368812 1.1045554311701171
Ni 8.169277089102943 6.467431034419863 1.0334194207185416 -0.7530126096925548 0.14172049180165916 -0.9772871102380459
Ni 2.1894886905718414 1.6769494613935887 13.846155388227137 0.0686890778362817 1.0413070647334324 0.9857480965212054
Ni 1.9355824415150447 6.223442562921134 10.19403688049427 -1.6553898579955877 -1.0699198433741186 1.3305597699225213
Ni 1.20052468626339 6.402148285137832 0.3161198733548001 -0.007689655334773854 1.7229070270109554 -0.9515835348243546
Ni 2.291573080736473 5.442594020086308 7.833732115471023 -0.012337181409114236 -0.008360970370185601 0.1710071565809184
Ni 6.55483377072747 3.061630933007185 11.956902340192613 -0.32249706906451553 -0.07266734575773937 -0.803473594556584
Ni 1.650743498595027 8.731693081637353 2.5735546265079727 0.03775613570285111 -0.06095854196124341 -1.2662135424359677
Ni 8.916007734233334 4.818247635665431 4.900180736222381 0.6422566845932101 -0.13584423552654024 0.4020706550237849
Ni 3.8719820781846863 6.611870277994928 9.248479868357796 3.017369022769655 0.02578507938390398 1.5908495122203568
Ni 2.058050279001733 -0.20630184540893415 6.3313736129645655 -2.107421161208216 0.7221215765406531 -1.2357228300462781
Ni 7.8347099637639674 8.032833357210928 12.4092393595102 -0.8669122226272038 -1.6547979900478598 -0.31396229212062704
Ni 7.471624584791263 5.135895106780814 3.0672640077887614 -2.1097025010432247 0.4980355378568842 1.22546927063907
Ni 0.4069093263996974 1.6107659401797862 6.034686268933745 -1.1320646923339794 -0.23232179632999989 0.9052828519856022
Ni 3.2036557363527574 4.206883510632361 9.800047595214927 -0.7742249821041117 1.4566703231010656 -0.5832742925217309
Ni 5.089407846054519 4.93165203598295 12.361248645425619 0.31147397848113456 0.5110175519388489 0.04436644193051714
Ni 3.660523545624072 7.32079636091662 2.3863872199177623 0.2791487839858676 1.5992457067038524 -0.9157127890696745
Ni 5.692256426124343 3.174338860181581 2.0377392648865613 0.653177702381088 -1.1271158329691362 0.8535468570638913
Ni 5.470090779776791 4.0067728471503585 10.19569541520576 -0.4131099435570821 0.4983520406560385 -1.1469053568912377
Ni 8.760592073922655 8.923956814373506 1.0828866578665428 0.8994734443926767 -0.5504490184615939 -0.3727829618032612
Ni 4.443842246539839 1.705421283484443 -0.3720540957944095 2.7913603131418765 -0.8867241151468083 1.9002624944074047
P 3.9805575980432213 4.185478569367057 6.195174110988071 -0.48467660005147495 0.4155100683581425 1.683133089547127
Ni 9.224684631265296 0.7800025601236459 3.219747051851464 -0.8029442044156753 1.6376962973705664 0.42948889913573773
P 1.1489206695122884 3.9326681047221075 10.779135610353899 -1.5695355812339291 0.59320569270283 -0.8832775513591047
Ni 2.2457172889932773 7.839557416840101 8.363322864454634 -0.2860583666215073 -0.13121702116717404 -1.4916620086849022
P 6.611396676257605 6.984947724994298 8.32294228024724 -0.24711720947161955 0.4933502165660729 1.024634489173758
P 1.2860794471645776 9.81924982408625 8.492726645815965 -0.46059384807065834 0.5847915004972059 -0.9940085367577849
P 6.929034861064412 1.7594118815393116 3.062072032664496 0.28444037140211015 -1.0467364632791198 0.3057882409502669
Ni 1.1617079164200204 6.86707661025222 6.349532060752059 0.03953533909046095 1.6990029666998483 -1.7925168168892935
Ni 3.8993581158636945 3.002690732481858 11.705147728832635 2.0479312333726987 0.7511850695655128 -2.2353368859162988
Ni 7.9302196474575215 3.5276736151505688 7.275205228967811 0.21093716000663673 0.643796261166188 -1.7861628496468078
Ni 0.9597399912230243 2.9960324492336055 3.269777039299108 -0.1320418310613145 0.5928231125524306 -0.812819297437542
Ni 1.4273520595155778 4.132695191426936 0.6535750406605908 -0.8209182723955927 -1.6606817025221463 0.8969820454293908
Ni 7.802950788437575 2.567460022190221 4.880173384397611 0.1367829452907257 0.43832063849475483 -0.5487466910585065
Ni 7.759918034501169 6.379972580260808 6.549964959141613 1.0578649690921136 -0.15538487666262915 1.7164260472723019
Ni 5.787403943783473 5.200490669228296 1.1899884405542305 -0.17972216785641307 0.7610035983178314 -0.0007823866919792977
Ni 0.10223947151783389 2.499437811878574 8.420175502812308 1.5229070827421127 -1.4745258632252476 0.9520746155281604
Ni 2.4917580346870754 4.55224132653545 12.276478577599017 -0.5283329032888449 2.7581786841835854 0.40399872528443326
Ni 5.527600888781572 1.2454054156062144 5.183045409939361 1.630762803475527 2.7149044468759826 2.900340634398037
Ni 7.619444044687616 3.465093181663854 9.894603575017832 1.1772927109338434 0.41178351143617475 -0.23801344739813846
Ni 6.077220348099675 7.427932502946035 1.9963260431656304 -1.483272499069626 -1.3353021697035132 0.2756438561564027
Ni 6.866268701406198 2.0524970664739017 0.38691218951435963 0.918015211950606 0.0918500893337773 0.3522002525559031
Ni 4.037761258865029 8.845004618869122 13.49695025468144 -1.3110001026230391 -1.6988720975489389 -0.2271381952465314
Ni 4.358194622552903 7.101862349953156 4.575834122101016 -1.7209221353704425 0.5838687315726203 2.3869512397929022
Ni 0.14155027297739176 6.289440357963437 2.8947346094052735 0.18393517749649613 0.3951155638621905 0.6237496269279581
Ni 8.190422013728147 3.8849921964982177 1.4660007471737404 0.9771865801044397 -0.3543152420163769 0.7574909571788825
Ni 2.1952462018883216 5.552088884493765 2.194149488845618 0.9393422555631564 -0.45046421583582424 1.4761605706151932
Ni 5.950304368805576 8.306296572126607 6.376021255962158 -0.06614522836850545 0.4439462122116483 1.4138712256576682
Ni 2.003613938135266 7.006603396591126 4.079134549459088 -0.2481474505083468 0.803739446623461 0.8747921395959127
Ni 6.229961551540762 4.850387549643398 7.671749177736128 1.054436403026539 -1.0184895526182847 3.431508950253148
Ni 9.347226759220584 1.0063294013436428 10.229252419872267 -0.49726652090134366 -0.3363609715308013 -0.15037328238065067
Ni 7.599069883674134 8.585545157284495 9.722943375116962 -0.17322987526385006 -1.4755111099566525 -0.017858368337659566
Ni 7.422379290418204 4.6416684781124 13.200221122262032 -0.24389201766610258 2.0267751681203743 -1.560513323130661
P 0.2559919539627346 5.208987641574392 6.951755672254787 -0.2374508900264491 -3.2030918882941934 0.562979803938753
Ni 6.495224955984744 6.689401668287342 4.8505574890903205 0.8309908261402462 -0.6686493156541259 -3.2907963308907133
P 5.397871157989258 1.8097529603242175 7.830795784699618 1.1690839498708059 0.7173694065676484 0.7244720790507008
Ni 3.600580423772649 1.3317309401191242 6.9073522591727174 0.15147191476146818 0.9976900993744301 -0.9452701910118171
P 3.3692027593187266 7.290550853887947 11.320333316425362 0.11953058596818124 0.24003896246859951 1.3451325255303739
P 2.75524775419324 1.3227046481842546 2.60792789769822 -0.29501994669016934 0.08408484356606163 0.9646025727918419
P 1.5345996372478923 9.032894500266465 13.643914445558039 -1.1737523018807527 -2.006824693140376 -0.46836655003754174
Ni 4.582412543095524 6.0401122590341 7.245942213386369 -1.4069670423386673 1.6236027953919778 -2.6900693901101738
