# total energy = -381159.4927299309 ev
CRYSTAL
PRIMVEC
9.35660917970173 0.00000000000000 0.00000000000000
0.00000000000000 9.35660917970173 0.00000000000000
0.00000000000000 0.00000000000000 13.69434331505196
PRIMCOORD
 96 1
Ni 0.010353088121759974 1.476575860445606 8.458065047315124 1.0834317618176244 -1.2173497268557292 0.48479384235562967
Ni 5.009566012420042 4.239011815240267 5.719442598691896 -0.15182312745329982 0.5822815895911585 -0.4747775957702081
Ni 5.13475744402343 2.6031864655652397 9.735719395362523 0.2900579746992037 0.7634024375673111 -1.5729708321677232
Ni 2.9902319633010945 4.431121716113268 1.9720541669788074 -0.16958405098114662 1.2405063674778507 0.6572657564075326
Ni 7.229281204978313 8.578204845590959 8.248116770930025 1.003186089491995 -1.9235158085083905 0.5905111765898025
Ni 1.8895859488166922 3.208811711708175 0.36899940549867566 -0.9126531763077445 1.7461426005001282 -3.3094273157283394
Ni 4.249051456952556 5.7461650746754005 13.464442327306884 -0.37095722144843213 -0.6243165551750216 0.8833076332660917
Ni 4.876898650035556 1.99956353379922 2.850449835252092 1.3853749179901884 1.1827737886530727 -1.533928373553281
Ni 6.01723540090722 6.819283944781838 9.249255246169135 -0.5178209480139275 -0.4111757026488467 -0.1447615926208281
Ni 7.979859041435126 3.3622507466008473 11.636549181500426 0.47363345486343594 -0.23432288592042871 -0.5713045217543645
Ni 0.3305914602379323 0.24757213779170373 2.8547913019384876 0.1561693202371375 0.045599028786037596 0.12628641663477605
Ni 3.681189485693872 7.013994983022981 8.823813031103622 -0.3128204652066999 -0.4722124061461932 1.049105734842245
Ni 5.203528521922152 5.355975756235604 10.848535551482689 -0.09170302223295175 0.4503253762651147 -0.1659955622989399
Ni 8.345983160914988 3.6532132240724873 8.57317941076927 -0.5292515584483724 0.6798205017795969 1.097979320614496
Ni 3.336725916599798 5.7539497735613505 4.583086149390044 -0.9482110188076961 0.25059308383536194 -1.8810517258069088
Ni 6.548541099873345 5.495931917216432 0.20518950492669139 1.3545831294203123 -1.7805352190473853 -0.04987348779167539
Ni 2.9609457763864 1.560336226343478 8.479277416118416 0.08387915531315876 0.36938627741688645 0.29341300721436564
Ni 0.582934533080052 6.715004534825204 3.0160281349700435 0.8150666987108222 -0.210427824470386 -0.47765363176642256
Ni 4.263058300981725 8.182186359595937 3.6263850184045956 0.5454122273686348 0.23626149770403826 0.5887779959487796
Ni 6.075265091400809 7.32922850485779 12.481312517868 -0.4064446157217646 -0.42342546655047725 0.923955488694441
Ni 6.413375522822333 6.1806953642937055 6.545129680145199 1.7191611868152779 -2.3043830899816826 1.0823426425185037
Ni 2.6136003716470464 8.481766274175703 7.343564701532133 0.8133116636929283 1.597731326941855 -0.8866171572552989
Ni 5.464390787475399 8.057415975408256 7.0012466029363125 -0.45464045870070086 0.15201390330786724 2.405409703608406
Ni 1.4257320458467415 4.6926576575316465 12.117344161156556 1.036309097298209 -0.0588378960738148 -0.21753101117407053
P 7.322491746206485 3.819629875978156 6.581392154907687 0.1122592491177486 -0.33822759242589495 -1.8568139363054665
Ni 8.187547696689267 7.047547783750167 11.757949315040607 -1.0369732132447689 -1.5038307828369522 -1.9526857452041273
P 7.859561116463171 3.413515608615418 1.288066382807357 -0.030318705588199397 0.25433223916282005 0.2698107944143934
Ni 1.720455880232026 0.35487186121033815 10.385584561304197 -1.3818643337337684 -0.3987225644871585 -2.001859378715301
P 3.459110365431809 3.9554784855035363 12.381234225459194 -0.7676028488019038 1.118523977535067 0.8875607521154909
P 9.270275804483049 1.5757278485398585 11.209874700998279 0.32817097952084123 0.048421071615864994 -0.17493297399788582
P 3.5529477994789223 0.0957181125039354 11.23937234728175 1.603868293077528 -1.384758881672744 0.5779968461728756
Ni 4.700498496073024 0.2545680745188975 1.4894926594985565 1.237721862754178 -1.8334400374662168 1.6165721137974418
Ni 8.247270933454919 7.156935902350705 1.2038447360740556 0.7799454295276568 -0.5889721142374567 -0.10036224056984651
Ni 4.945239323909333 0.16320172097151933 13.0457930105481 0.08929287012956234 -0.29498575101812424 -1.7344512802051293
Ni 3.993148194295408 2.1457886229694547 11.519681389475092 0.6406186347691548 -0.5045782240714084 0.4316157156707534
Ni 6.2150341201968775 8.652711524952526 10.650706891043471 -0.06252537222773102 1.2531317695513453 -0.3425401037583198
Ni 6.067349399985527 4.476866178677466 8.098478390709797 -1.246541260818021 1.1864599792554082 2.272723554094873
Ni 1.027963873924229 8.188371078302204 4.943096660393849 0.4379653120378651 -0.09764844118310925 0.23523768442521423
Ni 3.2590286334880987 3.38136629927392 4.064097490824718 0.7335478160997237 0.9265379047096366 -0.6301786703827533
Ni 5.611925801938943 3.710616021747135 12.347340844155749 0.7258206226587951 -0.10972465562135296 0.39701818020154206
Ni 6.732230052432218 3.384781461645762 4.177377023207308 0.2086679043564858 -0.30148807091301627 0.6926027411459298
Ni 8.993526016443811 4.588995783784715 13.436793547008826 -0.8923615159382439 0.0621600184685123 1.6633389376393353
Ni 8.102748747165984 6.3449787092931285 8.489178580013984 0.7204899544745011 -0.6811037393673947 0.4995756286504945
Ni 0.16238769596782018 4.431355631344216 3.252392926216565 1.2589110952372835 -0.42357124809972213 -0.6022685742360466
Ni 3.9354927681713368 6.216315975662472 6.639017639882198 0.11118967020265366 0.23539349327678813 1.1197987304824326
Ni 6.273391292013792 0.24196378621449366 4.756688677190437 -0.3013870265587777 -0.4487544322335691 -0.8056747159729608
Ni 1.643703614653357 6.97605393256321 11.657336760244316 0.1739425850601585 0.15984548353714406 -0.0935902119533356
Ni 3.8140626934815933 7.419173589461927 12.014663795718683 1.1809426489816048 0.5987034825926075 -2.3044715359304315
Ni 7.338528974440282 9.09598088759905 0.34041402861590214 0.08716399671201762 -0.021897571404039706 -1.922570413875986
Ni 7.56941266399523 8.048227785136616 5.7980484085605974 0.12620902642962134 -0.8835868550694072 0.30509481442766806
Ni 3.1297202938200255 2.206550443360516 6.1635222436984245 -1.849582965774666 -1.025542345700008 2.732467652570726
Ni 9.14180020303715 1.682739388393965 0.0675593970024111 -0.3788440803956766 0.6705120798944776 -0.41018994169680967
Ni 5.524329226253522 2.4615554715308243 7.179834332138671 -0.9464451851565248 -0.6737125891096462 1.050269930353675
Ni 9.229574554298091 8.476086812368283 7.231736379242343 1.055624252687053 1.6896387518761289 -0.13447435176220712
Ni 7.001990453370728 0.5387994073047772 2.372462774028261 0.15669433950267206 0.358100420090422 1.2528301791505263
Ni 7.183723874598874 0.9755762188011073 6.8739302853749935 0.6855746306545547 0.9521049545454634 -0.36029639930047624
P 1.561150251347177 2.7339637928836664 2.2726857644369156 -0.6769966591775567 -1.2325120364184645 3.2149194770567404
Ni 1.308016545024453 3.5786036220093025 8.114459479288167 1.5782698757831333 0.7684335722333153 3.901737236089777
P 1.4223075268656622 0.8057060424257215 6.451514933397949 -0.7132332729120877 -0.06672604057263992 0.1673685313870666
Ni 7.279282924745765 1.5884621937126695 9.523073608534132 2.3333964464948975 0.8163548213946263 1.150775124259289
P 7.631381486977983 5.122322510346232 10.395211576549094 -0.3085604043787654 0.6417244662388238 -0.8613033610808586
P 3.978289898825589 6.588203766432895 2.0541789975818903 -0.595967314608367 -0.20474928602836998 -0.045349631779392864
P 1.0740264612025159 5.8469263995585745 4.984987135612946 0.027467866402965595 -0.13846341831694217 0.16121948106653528
Ni 2.3009305607434283 4.229804911750152 6.342220380889789 0.4800293310874507 2.7669168353875313 -1.96253255609122
Ni 0.20456354776867447 2.822542812539068 6.542088782142875 -2.931488263645435 -1.0163977030862623 -1.6819946050673094
Ni 7.16965153430504 5.650091411020424 2.570976338263695 0.1867443648105171 -0.8235371980756786 -0.5929676085500949
Ni 4.825502795491653 3.528583189023375 0.893181917851972 0.08986674035516136 -0.16751765537042118 -0.18712360252680676
Ni 1.1710919254367118 6.765848349424068 7.617985629532051 0.8853426614182496 -2.3569737195942055 0.34855262850098684
Ni 8.624866255860471 2.310633364523153 3.19727314119597 -0.27329926718362607 -0.3784211339256451 -0.8889378349686756
Ni 1.3709210289309983 2.4787997023563135 4.678576896289498 -1.7957504933352428 -0.9189287249038108 -1.5408703520887528
Ni 2.80043314490986 8.350352697429097 0.07710781672970984 0.17144912921434344 0.8737199895776565 0.3702123728626076
Ni 4.766303528843324 1.9223715075863688 5.015307227848431 3.2303525237823596 -1.0633288204201623 -0.2770515351372067
Ni 5.901840339175935 7.421793440048544 1.2800777098400196 -1.2460540367689572 0.6484643560658188 0.8055978399884385
Ni 8.901915455395324 8.496792988611805 9.637256989369105 1.5455168497218286 -0.005711191452164357 1.1203839135619413
Ni 8.85147397499369 0.7379389286982285 5.348654209506931 0.6321836166279241 0.09429238022668276 -1.6254606745363234
Ni 2.2762571821830297 8.299106548633002 2.4100950563831804 0.11618455231408378 -0.17918866395044625 -0.5141311578671661
Ni 1.7406193731397466 3.015391885541865 10.42947454391744 0.03611551477563458 -0.5095823621542191 0.26166271138596225
Ni 6.411925248390456 1.538058139747987 11.780640963764414 0.1547842669641528 -0.6196939688013456 -1.0968783742408337
Ni 6.577902139661943 1.9908151041617632 0.25135127226290016 -0.2185890201249397 0.4322165824795459 1.6713834052103667
Ni 5.057378285625821 4.779281145856322 3.0859248129600876 -0.18432135719132126 -0.24261469361557575 -0.3511306736408082
Ni 0.7036563124504847 5.284397695565506 9.836742705304358 -0.5926675608111729 0.36810149716719187 -0.125988425778383
Ni 0.08921620474450385 8.875230405848772 11.968952081286819 -0.11626862738745783 1.738786160135057 -0.008153739455385958
Ni 1.8700306355094367 6.24846528500397 0.8273899843346043 0.03234704887213784 -0.142050107226936 -0.0604494635353088
Ni 8.05401952625489 5.473401202171517 4.6297559806078725 -0.4500474400133797 0.831740302711761 0.9883495386997945
Ni 8.214681863479239 7.906475155182108 3.6606348865200067 -1.7161321701809669 0.8670286936004101 -0.5246353998325997
Ni 3.019883057976067 0.9443532137741639 3.720903613604229 -0.9585951902554974 -0.7075130825988589 -0.5772982774439542
Ni 2.188454761094376 1.2063476290451993 12.538841629767361 -2.3236344820121273 -0.40634794224290016 0.1612184526252707
Ni 0.4447018595208496 8.78773675286497 0.48807909994785303 0.900923289465326 -0.16479639978451618 1.443088727761889
P 4.2219734298180125 8.907258079270177 5.816247949189279 -2.1644076058955886 1.8906144297946799 -3.554724955492717
Ni 9.108518743977864 5.18422583706432 6.681100861251596 0.4251419350209517 -0.17050142058909343 -0.005672110684112812
P 3.4231716293489534 3.884742519664851 8.804942621592582 0.137763306926124 -0.7186377317571108 0.17361322674519777
Ni 5.781982174838163 6.517159032489357 4.495743137814972 0.0550383198220665 0.6848426375845367 -1.100246519382118
P 1.6070350630499433 7.451912365185414 9.634093519785763 -0.17101769810387968 0.3814336954997237 -1.3743276590370912
P 5.8182577488535845 0.5375053882471725 8.6907863749244 -4.1473891738697795 1.19486902925471 -0.4924721848364938
P 0.2630404841838353 6.72911430155599 13.192117279776259 -0.4236447816501349 -0.16352473216094418 1.8384423757768142
Ni 2.976459034502874 1.357484938065343 0.8714287370347287 -0.46469475761290935 -0.23747634394774586 2.196766224731952
