# total energy = -340856.7555832238 ev
CRYSTAL
PRIMVEC
9.33485539273402 0.00000000000000 0.00000000000000
0.00000000000000 9.33485539273402 0.00000000000000
0.00000000000000 0.00000000000000 13.66250444890569
PRIMCOORD
 96 1
Ni 2.627687085873438 4.987613182549336 2.6799548076247577 1.5079628027274545 1.6589292386074137 -1.2489820090490298
Ni 8.409967164580817 4.986474330203705 9.425269899965476 -0.852572408965764 0.6745944774939672 -1.3209430727683638
Ni 2.4076738814948015 3.2157923041287075 3.956223691039864 -1.1150493887229054 -1.510936797754114 1.70284213794028
Ni 0.28690024300285616 4.867669626901617 2.98599523791846 -0.793786192065491 -0.7035813516446205 -0.3509213858434795
Ni 1.5200691660489778 1.3626835058247933 5.393628979535506 2.604788212243166 1.8869899456682147 0.8504875014122772
Ni 8.914954831315557 7.267894293873352 3.3116818046598384 -1.3166182201407646 -1.1762269886734904 -0.8682926479144982
Ni 1.2267493430617697 3.6720053519624174 8.479141242751592 1.074755059979233 5.558157849342725 -0.2814121260987476
Ni 1.3759203306289387 6.446651064698805 4.631329760617162 1.1946332590948199 0.32509748280184014 0.5667840081761917
Ni 2.6022309354919813 2.3753006033419264 10.81340768920067 0.3523195517425868 -0.6160890250589066 0.5290620681453856
Ni 0.41284704408890127 9.159565379388779 4.414369053919031 -0.8906674160652724 -1.0744709530799106 -0.5501199172569493
Ni 2.664018342670148 8.534111405109964 5.232083707793178 -1.0229223915786576 0.5680595324545056 -0.4167722229000177
Ni 1.2420865103066296 8.996364104317639 7.208884006144574 2.5298505823940105 1.2035894398468432 0.741610281392884
Ni 8.958025853633137 8.63308887577171 10.974980032023343 -0.6778685202595487 -2.67946487512145 0.5109861844802813
Ni 6.671173004183507 3.4923560618666625 8.509321763396363 0.9153790598793398 0.25033597351923337 -0.23266580993297994
Ni 4.067812551201187 4.805704857472901 0.447635249305833 0.6447015465892768 -0.6682831905639588 -0.08805616950898384
Ni 0.5701440231878113 7.807150214385255 0.30866352463077223 1.236780067666199 -0.6401141843289104 0.24586276823922815
Ni 1.0391000819807164 1.9383360271204508 13.156035365534844 0.9412993792895272 1.7066671681133252 -0.7511174495523709
Ni 8.224688956743949 3.974127943490041 1.0952548374756514 0.8132005920363607 -0.06252382956583426 0.36088261082124945
Ni 0.42887312365431524 5.83069997310731 11.104678511451267 0.17260304031312856 -1.180312985817406 -1.1035478158412093
Ni 0.5397945416622556 3.5290140385985946 10.481012161960884 0.3112425791966188 -1.036777552294195 1.4201575728870122
Ni 0.8399866851154805 0.7282325980154882 9.853302886643506 2.0110659849152333 1.4548610378064684 -1.6025498313764206
Ni 6.0565287923329025 7.755491125198978 2.779349546318058 2.3801347310917005 0.677740993542749 0.29335901404797865
Ni 4.696300353449922 2.6499880551661765 7.727225183374611 0.45586250403326006 -2.033776796249188 -0.4977205777196267
Ni 4.815161065883761 1.2378018117275724 1.688261788244784 3.305830085295384 -4.520814911463362 -0.4369268434710217
P 6.181839889773558 3.5207993659415786 13.288616448276958 -0.514814557087436 -1.9443602560575672 0.7547853853222614
P 6.660456590308219 1.5200038220619334 7.22388511859892 -0.13851252638732275 1.091500654868688 0.9745632835489797
P 8.515600387065803 1.6335996761110496 10.82514346927385 -0.6015214116573769 0.8468619888445479 -0.9263180753893465
P 8.724206398277538 6.319248959672727 12.770875502242202 -2.6577922752440224 1.6920818140999827 0.5559115842380621
P 1.948819069613438 3.478391118349736 0.8089100183626731 -1.5628085469227406 1.7937146938521367 2.0776225897895446
P 1.4541744225423041 6.781604342288614 2.3084443697401706 -1.6360847299090728 -1.814609277912959 -0.47164804900229096
P 2.340780308471877 4.30812906584006 11.794334819972304 -0.15794415274937312 1.309682669363196 -0.40357423615250493
P 1.5170073335131808 2.0349984536697647 7.593482844634164 -0.36884608864270024 -5.755320324162772 -1.5452162877622744
Ni 6.98971560616987 6.7252591557457215 5.385362965174384 -0.27296168133854926 -0.11616655459195478 -0.2154021377565258
Ni 8.900635163297531 6.465824857468703 7.175438153118642 -0.7449403742073816 -2.1634408711069453 -0.47734021429106177
Ni 6.7994992598835 5.356573337968132 13.542041900202477 -0.01168412120614762 2.081428079578564 0.44603420508892866
Ni 2.369914391838406 8.202275969187705 9.7820247320899 0.3126831682978873 -1.6393675144254025 -1.3995010729789252
Ni 2.6512856000517733 5.597431274213945 9.905902929243226 -1.20595794007902 0.7816608695568668 1.0704883142830788
Ni 8.62340863083384 0.6932427599242479 12.655236248369652 -1.2543898103281623 -0.8114728107119767 2.5734930016743096
Ni 3.701736866067639 2.8051613546861422 2.1365150049709514 -1.764497191747916 3.8900819112390357 3.587562827958344
Ni 7.477676496851887 7.554903754683125 0.5537604186647113 2.551385114031677 -0.06899143956804893 0.03382183364545143
Ni 2.686870068425118 8.384632367318158 2.276351137246057 1.3588943552011565 0.6436111417385755 -1.2325359476778643
Ni 6.9677226871017695 9.211187129153888 5.884891608534325 0.45491608095959074 -0.6074861138812441 -1.9474440371892139
Ni 8.477206127249548 3.2833206473114926 12.202815952241108 -0.7395911940803263 0.3343519115205726 2.252692089365295
Ni 7.649335150817636 3.2103967577698955 3.5449010288201563 -0.42607858790260816 -0.004364190505966678 -0.14881519386491143
Ni 4.269370746667414 1.2491529957627212 5.8175079556085665 -0.3292230749344395 0.6114615535892243 0.9334716557149925
Ni 8.775062689908697 9.243439054187967 1.6580541965196673 -0.26671878575263097 0.9991018921202921 -0.04010972353669221
Ni 2.7921579012642983 3.2811456260284415 6.5237093616492565 0.14978758508050977 1.2332275744282504 -0.42616292008629825
Ni 5.7477877884032065 4.715847540431502 4.258506842078511 0.7569507684046964 0.0991759335712292 -0.01252255794704295
Ni 6.448835420837147 1.6391539150098273 9.961413579723006 0.21870266288466853 2.064487080848851 -0.7431143767422363
Ni 1.7685070047919462 7.376374647222418 11.946807545856277 1.082825238581877 0.8025441407637791 0.40197989508219156
Ni 0.4145049143887717 2.030172333483768 2.3547191143939856 0.30846887310622356 0.7905085497554838 -0.2558841570309722
Ni 4.148979117965675 6.957529025122836 4.2710351513659885 -0.4362606706419326 -2.1543741329189867 -0.13296665686842907
Ni 8.753704541000458 2.2008881670650187 8.323484397727498 0.12375850800659978 1.7138618860895516 0.12919510564113876
Ni 4.967505904250232 5.344587383773122 6.6784644596521385 0.5069737208867784 0.014538559935807221 -2.184415159365767
Ni 6.720563723533814 4.164848371962183 10.99984621955034 -0.5721123623676405 -0.5409359367648361 -0.04030615581821446
Ni 4.89795189746907 0.032487163387438144 4.052298955191307 1.4078237339120077 -0.6504603034499249 -0.877682059549198
P 1.2722847671764537 5.20173609323868 6.601982123273207 1.3906333381756502 -0.1568645465319492 0.5517163152097918
P 8.703996436570222 8.444310097200317 7.108300006887066 -3.288829179862013 1.425841510645667 -0.14868201072115683
P 5.5323206585518045 2.2904467687370724 4.0109838191541645 0.15090858605883045 0.701089181350386 -0.628834240539717
P 6.651205748713784 0.1970018525981713 13.653937877102909 -0.8976821568202088 -0.7478004693639959 -0.1686222012885096
P 0.2463346958456666 3.0012493249512207 4.478623663350889 0.13040455256820768 0.3320836843116861 -0.13643507503300373
P 7.778202828124567 9.113656561062411 3.511031373363964 -1.2181778791839795 0.4010432422005351 1.203095016708928
P 4.540660311165353 2.6912294458465116 9.893825493466354 0.23538372308477526 1.401488021501967 0.09918210421881628
P 2.449017955583349 9.42325637167898 11.394623784250395 0.01658875759661659 1.0380785304938058 1.0475293914940604
Ni 7.256748476654629 7.511384659311528 9.265732555596472 0.7120629067530704 -1.0144061265775304 -0.060404469229986296
Ni 5.761930094170682 5.522808441009192 9.25922989540002 0.946755517308092 1.6352069552898096 0.7648435408892118
Ni 0.8396693000355503 5.25856669225676 0.021681134901345853 2.262068902594504 -0.9936452398810951 0.6553837088934713
Ni 5.7762684318992905 8.724206398277538 7.760985621023886 1.4791849592638138 -0.17914598363796888 0.140708505597377
Ni 0.2352458212442248 7.250186073384309 9.141827287362801 1.7001013419703495 0.5693116596940518 0.6786082266390506
Ni 3.9701046208591615 4.607413861358896 8.471613615444072 -2.047327538350429 -1.4260428280231956 0.7953429950296496
Ni 4.553925140535375 5.070105298765298 11.465682569704637 -0.6376094156291858 -0.8558665063360034 0.30055373202420493
Ni 7.881315639680697 0.3473798369546041 8.98156649170866 0.19075142908738116 -2.7096807365831976 -1.1241940313366512
Ni 5.460162227144157 2.024282039794476 12.06706568612734 -1.1207256131720764 0.33116708603468775 0.6288949185743233
Ni 3.7607611560793535 9.087593645086972 8.219635999574354 -2.092530103028996 1.296157895403884 -0.7024040435070678
Ni 7.400131853940718 3.5070211195304934 6.081467791731178 -2.281507213824774 0.19661251585384848 0.4615451562403341
Ni 5.365376106508547 7.743523840714554 0.41658098620572653 -2.8876206157282076 0.1829447885587688 0.005104411106100887
Ni 8.881125315737119 4.998189573595244 5.3958964158859475 0.08260568791737387 0.06678209062155596 -1.6476438955015817
Ni 3.4433200670174546 6.815639224683477 7.4801390316779335 -1.6448622189913864 0.4122077434577869 0.39276506135214295
Ni 7.301481103214195 1.793487077553507 1.1354404560224542 -0.19926769408850842 1.0293797171682273 0.35013719937928733
Ni 4.394112417935254 0.6332849843833263 10.410965274820299 -1.2049081586582666 -1.9633817914653926 0.17295888099065052
Ni 8.629102892561999 1.6608761232744582 5.97157974220407 0.23985435726161916 -1.5753408750617968 -0.1502735235779928
Ni 3.6086496890951847 0.2792998038240584 13.309355696279335 -0.3568475215199274 -3.0554198068947893 -0.7087484976678567
Ni 3.021543300356166 6.77257753722119 0.27056984715492094 -0.6988492362762738 1.0534444714269147 0.8635862435777644
Ni 6.78886685970584 6.701781994686183 11.707645752817033 0.15506477431904908 0.6321152252838339 -1.1713310940337698
Ni 3.445597771708718 2.3367569858409976 0.10887521772792003 1.4234876657015096 0.9236135319739899 -4.044733509280067
Ni 4.312983190591933 7.308052841339808 11.979529947597074 -0.23847418908464088 0.7932655436753306 -0.5344564996880795
Ni 5.856128118922891 3.9185948893575575 1.89934807050762 0.26681468790054697 -0.013814280175272982 -0.00991597356213131
Ni 6.505731363842273 9.3129090472715 11.45703475976207 0.30530770176942257 -2.2671602010744825 0.7730870118449267
P 2.979443102988961 0.6934714638789035 3.4460253080810945 -0.6423962954948678 2.6392852175787707 1.764010739029801
P 1.599779495387905 0.4680113714373484 0.8053160990752287 -0.3860215719807223 -1.408818236614793 1.0399181548057057
P 6.932828998020037 5.359569826516885 7.338294972029505 1.9719569347289136 0.0793982367236697 0.018248147576910508
P 4.823487756804282 6.1868527070653965 2.3829458498261262 -1.3675263198445418 -2.2940829936072555 -2.181440393008159
P 3.7796829077563654 4.5695423534389965 5.0384312012737995 -0.9948760269644028 0.31377845824459505 -1.0778573530536404
P 7.365835595597678 5.7020003231956355 2.932889246161913 0.4033788323122472 -1.0757996991936634 -0.1064945787198295
P 4.520525028300373 8.092292704136616 6.008045420916985 2.0279211087993594 0.7269629637933545 1.698201296734159
P 5.349721554183757 7.544532730453644 10.053075324292362 -1.238551814854641 0.9718281440060036 0.4143818682909702
