# total energy = -340865.04963806056 ev
CRYSTAL
PRIMVEC
9.34001173028231 0.00000000000000 0.00000000000000

0.00000000000000 9.34001173028231 0.00000000000000

0.00000000000000 0.00000000000000 13.67005127011958

PRIMCOORD
 96 1
Ni 1.0624076388831878 6.609627325255721 11.767507694298633 0.03171944259046795 0.46036964787499424 -0.7338296090062006
Ni 6.556632099466932 1.1802412251629493 1.402369116914677 1.1654615226268703 1.5656388172826843 1.2221651459665017
Ni 5.068077091560251 3.0343549468777775 1.752541095621581 1.0927759220366857 -0.11014991608422964 0.3293562580781941
Ni 1.6047540921573558 5.0265887600562325 13.373670260204484 -0.03836702981397263 -0.3457843217272303 -1.3761721684449977
Ni 8.672396905997964 5.430768421808799 8.13756262404948 0.9106019502056705 -0.6666469405121164 -1.8731250147606644
Ni 5.9494566257133865 9.084861158035103 4.645684407197859 0.4532137535565034 0.4200213259649347 -1.8490304357053058
Ni 7.24587825510382 8.283824403620276 8.790430368525854 -0.16538569662908292 0.4395208294504431 -0.4747372294505759
Ni 6.410049957498433 5.811934294991826 8.046465754960938 -1.5688328987399496 2.0793166896625155 1.10474517858342
Ni 4.869106824556623 0.9915262908903922 8.543303001739535 0.4890618736033641 -1.0339634798841677 0.0740606265608402
Ni 5.6702836791453715 7.415025865085311 6.228922848645477 -0.06340957460489725 0.2746035878173464 1.419747224822471
Ni 7.946098924364578 8.90920355997205 5.664636708135167 0.2360378117290064 -1.072535940840727 1.0678094818993353
Ni 7.096400709540941 0.3944959377310984 12.57924903600224 -1.822117670474862 0.3708595195283032 1.6919013226580601
Ni 0.25051125298710875 7.660574769912111 7.700394041344143 -0.49884569246300536 1.1299134503189314 0.5114646667785966
Ni 6.792439372200376 4.575550260132646 0.9178933754817741 0.79435209187129 -1.893059548901062 -1.5318007856873168
Ni 1.710800583804503 5.960085558908248 7.050984903161316 0.3804335363699835 -0.9444893469817348 1.2061577147946516
Ni 2.363536634117392 0.8482075489731105 3.8070821261488215 -0.5030646156403594 1.0084352537060761 0.4563366154562012
Ni 9.025878984814058 8.792761635419911 3.329914943788835 0.5708733477542168 -1.489530564164196 -0.33927326008158987
Ni 3.5997618887794602 0.38858931439855865 11.055052543849873 1.4252313878654936 0.2568560340259383 -3.008031033198181
Ni 5.78398898030024 8.85726375549347 10.90311016922713 0.16487404709998701 -0.1254883462135129 -0.26870933382009854
Ni 4.7483591546592905 3.2164104528832547 7.744180015700478 0.5984173188107565 0.0796751445341402 -0.7120544221126381
Ni 5.747413494895076 2.4810620000145254 13.031741775731133 -0.44282161168890183 -1.031320642944682 1.0229262482333996
Ni 4.501231787872971 5.29576789421783 6.1108408180572935 -1.0809701876510092 -1.207571821533359 0.04581114479684368
Ni 2.8110726296929345 8.122643823529135 8.133010302398182 0.39858115381328774 0.37836174144261936 -0.35897716626842047
Ni 1.3139621711654337 8.622334443849937 10.390756361186124 0.2808369703215679 -0.42575540023523456 0.003568176967232564
P 3.246597370357588 7.004280175181611 5.933635580072987 0.6193754091196623 0.6484718122649864 0.9474504864925878
P 0.924261395387096 6.433063746067975 9.43486408253214 0.8078580967775248 1.1499981368839485 -0.007457227608993608
P 5.478953541626276 4.546241303748222 9.432389913460684 -0.0023039655428282904 -1.0015218144156945 2.5115828944330745
P 3.870967805457126 4.3180554804761195 0.655004739129261 -1.018825595801465 0.8120137708171113 -1.040302791838634
P 4.205573720840167 1.7762460450491362 5.867965024548918 -0.2771628639040904 0.16294186307428066 0.256043565426972
P 0.9122940385307026 8.895800643333539 5.007913406872467 2.240624359567483 0.9558016866707604 1.3430165076286356
P 6.849142582592293 7.416212046557848 12.35648228745743 0.9168517877701242 1.0889097542130604 0.9938254742127013
P 1.6172977277291471 0.7871939232302014 9.008536451284868 -0.9403724965998836 -0.061692849024106655 -1.9653831381661377
Ni 3.360965812335686 8.296620219505126 12.878732771784266 -1.2778171881131672 -1.8399559842078634 1.0056934292948807
Ni 7.134106336349072 3.5314957440332035 8.457032116642017 1.0464001629856237 -1.4769946364807145 0.05556385330823334
Ni 6.73482084067217 4.641275921725122 6.153053934461068 1.1078356445832855 -1.2668185230098183 -0.7928901626137829
Ni 5.625236803223741 6.340803111534724 11.159887635993178 -1.3546263239534218 -0.5690571204810845 -2.7865137836828526
Ni 6.775225730831194 6.352664926260097 2.0932815306200747 1.783574005873709 2.7971370677246536 0.9104633677452773
Ni 4.800383019242223 5.395762058351559 2.437780386284309 -0.8867076600865761 0.18969367724682812 -0.6925639174881943
Ni 5.133606612909237 1.6998167301690401 3.7654705064917517 -1.4603611416890914 0.7007688218964899 0.1370418553790672
Ni 8.111174289290743 6.388390470610135 10.139692179512604 -0.5291379156886435 -0.297134679040327 1.1226593398596796
Ni -0.01056635511717613 1.3966306137908433 5.273153858144545 1.695775975122118 1.2128227855196532 -1.024856375376577
Ni 3.4495651623237817 3.6186754122588924 12.047990110492238 0.5988104404841172 0.39788027109152124 0.5483671962319008
Ni 8.792593515211205 0.07425402617967113 0.9200808061972718 0.026315755076393388 0.5737252153807151 -0.5240404465610782
Ni 2.177894563659518 5.713555952863993 4.735292478438192 -0.09638602953091788 -1.5023547125120578 -1.7231142579257552
Ni 9.17678555215094 2.338337282834672 9.751845396035831 0.8350341429716844 -2.1099819799568564 -0.485032697839313
Ni 8.695139834231256 4.365325279157307 12.282513131631399 0.6804118555066927 -0.2575877699856402 0.41899005648694293
Ni 9.130085494177033 1.100711026433386 12.16393981643333 1.7119410149177547 2.879658423458338 0.4215069093715257
Ni 2.021514749528094 2.932530140471471 0.5990188416278228 0.3865525047835278 -0.3268761719688177 0.5915457885019038
Ni 8.857413195678987 0.735091602549873 7.714871059316054 0.20017272240128106 0.6706882004610256 0.8613370425322714
Ni 2.8664962584963667 2.3537669819892506 9.478280192429322 -0.646057803506855 1.4918923795281531 -0.07313734341562243
Ni 5.650566914668788 8.6247254868182 0.7793212274569602 -0.4784231629425954 -2.779808089527903 -0.8527639561512798
Ni 1.9885351685869213 0.5055552136011648 1.0370849994474167 0.4878655393024178 1.1316985672438122 0.701962585094275
Ni -0.2134201989419131 4.448003061794312 5.707478407319269 1.3134444503984735 -0.14808860011153205 0.12246112935141491
Ni 6.290815369479454 4.373133528850545 12.150611619887579 -0.36089263812357847 1.2276238550882277 -0.612988531756712
Ni 1.2372152958911153 2.7859386584913777 7.384725933470681 -1.748919134804001 1.7314914262458565 1.2969485096259792
Ni 2.203084574930643 2.9147467583950073 5.123603460491225 -0.7947611543842507 -0.11942157119414273 1.1980001186845237
P 5.699667355622553 4.340490188326784 4.269758280519505 -0.1759914971693872 -0.07862330623085816 -0.977049026085311
P 8.255505488464898 2.589387454490799 6.548720175644992 -0.7135148087082486 1.671903539379895 1.3126787758770426
P 3.4924171355206384 5.90510091064977 11.951438674632344 -0.558908719193173 -0.2131220834730975 0.6320540330285953
P 3.6477508683534468 7.222827106487901 1.6706992440223094 -0.46289241429684796 -0.7047810283796766 -0.745694992985219
P 2.903053063878341 4.177945966542804 7.620507054171659 -1.389591527174697 -0.9487563497882049 -0.7691861341286237
P 1.3897190052107051 3.114707066627681 11.682493974761774 -1.4668133250723383 0.19519043869534125 -0.5265670696376739
P 6.964304925555948 1.0440264960646581 9.765638725159004 0.09542058029385503 -2.0255191842260856 -2.2855068219024703
P 1.0347051644930665 4.11320100616778 3.603712713684053 -0.5878680825400006 -0.31992030947627487 0.2559702889868753
Ni 7.238705126199028 6.6163521336039635 4.5750244174798596 -0.16489333037369666 0.0019098154282031626 -0.9276018271977766
Ni 9.69362443375976 4.446405919811604 9.977059227618474 0.6674408971683214 0.3193410399340371 1.499852257805178
Ni 3.733127914341343 8.942267201017577 5.551803764063252 0.5089966648540782 0.8400007429483404 -0.5243070699589034
Ni 3.48187226243013 3.863196915810268 3.607567336469219 0.6954355826090346 -0.28810085097283283 -0.9139019611131809
Ni 2.346052132411961 0.9872672456031719 6.79085717423622 -0.3729999629100737 -1.2875192458922793 0.23047780114272565
Ni 3.7103009260036974 5.6731977627629435 8.875348819944445 0.4146662323006084 -0.11408601791384224 -0.9507373847739755
Ni 8.503249296016474 8.485606014113932 11.23339165924179 -0.9195313914848163 -1.4743865094339061 -0.468275018765
Ni 0.03861907994210188 6.280672116887523 3.070799672120614 -0.5638184977899645 -0.04896151750036729 -0.8076727202395961
Ni 7.94938660844594 4.412193457339921 3.6514485789438207 -1.4757720769275229 0.4022953694400813 0.029765404187890674
Ni 4.595173624493281 7.234903741479953 4.032842348409759 0.020658299680299905 -1.9087671894443063 0.47950122649812255
Ni 6.379993800186426 1.5500870042931005 6.2616493152724315 -0.3097924770136536 0.07556600746177308 0.4985245616781608
Ni 2.2338225530890683 1.2163870700347528 12.392680436394164 -1.5030825918170179 0.6239815404331059 1.607637273201657
Ni 4.9746676356008415 2.5566226938163066 10.438382948310233 0.4363393463986679 0.5301676425047386 0.026290558265412784
Ni 9.12069878252428 3.7580190452414355 1.775562356200398 0.23402566639498404 0.10166424721072169 -1.275039882478346
Ni 4.192161464190061 8.964580488717509 2.663896462987008 0.4513767003477646 2.6520695138276325 -0.1428314654776508
Ni 1.3174553355018819 7.750089441036496 1.1693853296863348 -0.5667873506103014 -2.175855956941846 -0.6977768291477014
Ni 7.194199970949896 2.5788892814582653 10.947427590243207 1.4641244653862653 1.7657565180763137 2.1258798821340354
Ni 0.30388941925128404 7.017412231483874 5.292524108190962 -1.1612677962604967 -1.2713876304377394 0.7513331651076028
Ni 5.041056438016548 6.405622792002507 13.487815475905466 -0.049588352451088794 -0.6681628629360106 1.227387056487073
Ni 1.8308757728670122 5.37095498755582 1.9068352851638901 1.774239358736344 -0.14957032686338112 1.1541365845323541
Ni -0.13643141736728998 1.586120769025767 2.816959639001125 1.0511392203325058 1.4956297350833982 -0.9077102304801722
Ni 3.363991976092395 7.321438948905602 10.381775006036582 -0.011743770799489453 0.7244450824675072 0.7638174136175426
Ni 2.226966984578499 7.8877705519551675 3.364691542960844 -1.0624621015444928 -1.1991589148793154 0.7713427754603103
Ni 7.3685219473548935 2.1425145997384862 4.0208133474768415 -0.14901831101465304 -0.027215126962211192 0.6537348604361386
P 0.8199988459545519 8.602645699408138 12.795386244317074 0.6177820964906136 0.32238959695237385 0.34547913178198564
P 7.750687201778563 6.854447709178129 6.661005795037453 0.7929073890049635 0.3794344056815078 -0.09958756718735107
P 5.05995128147279 8.162880593479452 9.007566024080171 -1.5499951972081563 -1.085246703539176 -0.6655498507931957
P 7.250949881399787 8.580687332148806 2.328939363168003 -1.703818900031253 -0.5589300593494115 -0.05658432415294771
P 3.352335641622108 1.867012277727221 2.1687805803453304 -0.7217078860420022 -0.4916172930353663 0.2849929014714705
P 4.613769587578491 0.5983977308567698 13.099121553377046 0.6587996765535558 1.2085185017173443 -1.1385479860654777
P 8.820118529381025 5.73400123824497 0.6502077091741815 0.6562799954554955 -0.4164451785779021 -0.03139471226119754
P 8.134365538080585 2.292832746344897 0.25597422576889634 -0.2925185204245543 -0.037328818357445386 -0.2330576460547599
