# total energy = -381176.2690831959 ev
CRYSTAL
PRIMVEC
9.12782514350068 0.00000000000000 0.00000000000000
0.00000000000000 9.12782514350068 0.00000000000000
0.00000000000000 0.00000000000000 13.35949475222311
PRIMCOORD
 96 1
Ni 7.945233375724059 0.4015841504536269 2.846520532614601 -0.07032327100559502 -0.7843841820253007 -1.3861930430161093
Ni 8.686412789502583 8.975390610448573 9.255524481468331 0.01678647542971948 0.39354693382349 0.22531811131865712
Ni 6.522634420359225 4.836962412229478 12.137515743170905 0.1699316641285525 -0.00099887357815957 -0.19036704916476893
Ni 3.982990461307341 6.797144638216064 0.9404224970531442 -0.8890008269961269 2.665126347011591 -1.2669609621249536
Ni 1.1170267480364635 8.022582567255576 2.974518201131023 -0.28057857445385875 -0.8883215415409152 -0.4103156686413965
Ni 3.148634206939515 6.2551252445019925 9.972075197041718 -0.3172728445510988 0.7140292864508219 0.12891511250687476
Ni 7.8854278644053775 7.214961713170476 3.237646933630222 -0.25922402003748257 -0.8361235193811213 -0.5429820206605875
Ni 7.117239215585342 2.4462845619567264 3.0798980313543205 0.18812504720812764 1.7850246222773063 0.3564392303379152
Ni 0.9897392243278239 7.536325058255458 10.484371653254719 0.3229809506794696 0.3838543891260744 0.6298631960248636
Ni 4.282784755225344 1.7415616823977997 9.595216499741333 0.6398305916502207 1.4273726025782127 0.5041825312948865
Ni 9.102942841090705 8.012797538541653 6.94076549250371 -0.7654966010921784 -0.3037727531821349 0.44894366542623965
Ni 7.997280235543827 1.021248477238704 7.191589916508161 -0.2670422305303207 1.3009224066720628 0.03809834953361826
Ni 6.503183024660185 2.173581653507869 9.02635582297114 0.6846940278218143 0.2061443666036837 -0.044984020909858015
Ni 8.392296002916726 4.332942155209495 11.011990989786808 0.4772679662922297 -0.5553045467816824 -0.23020552131794544
Ni 5.996762149588185 3.688590712137405 4.8190901303060985 -0.34486695211928353 1.6000139523284442 1.117436143787527
Ni 4.691665689218067 1.7839239195818655 1.1721469466323302 -0.1208027678123855 -0.2245328964132004 -0.4126833975426247
Ni 1.2909300755156319 3.0167006201568203 11.510166700271787 -0.13714855616026056 -0.3550768027727498 1.5199724255938212
Ni 8.509360362297386 4.3353519010868045 4.570282955691365 0.4882848862280235 1.831450003619381 0.3435816576489567
Ni 7.795035010530394 1.0591563356798643 0.4992400149141233 0.11690086165481801 -0.32515738950549805 -1.184979795165456
Ni 1.996593121079721 8.101191398677505 8.398005457637398 -0.3411434805211092 1.3543298757589257 0.5430781799188195
Ni 5.720042998010478 0.7783314882854389 12.73911975483157 0.17992991299184496 0.9699486675951038 -1.6864924929376632
Ni 0.9689551661360296 1.086676728937774 3.547720984393021 0.16702477489440268 0.8783222642363583 0.1485017763895507
Ni 0.5508742970306548 4.154931306348549 7.529210831222219 0.31657247604996447 -0.14280061223971535 -0.22360292839976326
Ni 2.1746404812418385 0.7657040547753253 10.155126431029371 -2.0370847775764984 0.4477493880078224 -0.5902088148580351
P 5.4940197881092 1.2297280069271466 3.0346358840747194 -1.1581577898766056 -2.063963347134897 1.2630760252482505
Ni 4.563164164745479 6.336417656560016 5.36857973623983 1.3240024284199778 0.8919655660514056 -0.8012894424210716
P 6.693069174227114 6.520325080560137 1.3409323024698039 -2.0011330420722375 1.0381800890686765 1.3133094674825059
Ni 3.3633297856523807 3.8648125072409547 10.844556552092676 0.09427721071803118 0.03125381580795907 -0.3511270740963824
P 2.2421498771076753 6.060939889222136 8.022376278403959 -0.5153372623601254 -2.216220476801822 -0.6806386268055181
P 1.1521962588897723 0.109229034149287 1.2305230405101526 -0.60148335933059 0.35234089189882545 0.22049883555314284
P 5.930037746697532 4.000041238954364 10.209552914902982 -0.2987850701595564 -0.38371734932757784 0.1455853740737041
Ni 3.914139275123456 8.313805833223604 2.8754712560958984 0.053682062904488195 0.9573960277410737 0.7965863805184475
Ni 7.051245038718116 4.852297158721448 2.85679481276422 0.34371329813081447 0.38102309032486636 -0.567226752140565
Ni 5.966220446158346 8.767887758066465 1.247988221425471 -0.13673692254413872 -1.2435153295075034 2.4636562459551246
Ni 4.854159235081187 2.9195257920892566 12.327220249014506 1.116828335000199 1.6120487720057914 -0.24253447519694357
Ni 6.138526404211267 1.4281943122693446 5.471594546929753 1.6183474605303096 -0.4778189536996932 -2.256382136622372
Ni 5.855773760114994 8.763771108859395 6.897747877463618 1.1813463121779268 -0.5183752778555009 0.969285580089808
Ni 2.9591861929866417 5.0536113455550105 2.0382315217180644 -0.5304635764786025 -1.3349360446133463 -0.7528323753609487
Ni 1.4720900241026074 6.880865051801983 0.6661660327394455 0.14844984010569273 0.3668246873372973 1.2685866706538347
Ni 2.2794552990795083 2.5314836832400855 5.512848666123267 1.0158737122619925 0.9290385596443033 0.12416834185050875
Ni 9.157125612028997 6.236148495718179 12.105412268833462 -0.2685650949327504 0.37260427013355185 0.551736626924766
Ni 4.060713893675865 0.39376981922042736 5.673870806549181 0.050787000744880274 0.10026659553224668 -1.1998155746267078
Ni 1.0406085946848156 4.423024663024523 0.5413375451646967 1.2891938053812249 -2.0321829693995066 0.6593277811428839
Ni 3.256862831436707 1.4084051870344696 12.059175269812586 -0.3842148577892867 -0.720463986332572 0.2877362685445625
Ni 2.3516198858446935 7.453955562812879 6.164872959136518 0.6077866758407984 -1.4639504017022464 0.6901321681182502
Ni 0.5326505938335018 5.659069125054313 2.732471093928166 -0.11078292168253824 0.3203306575408161 -0.405105842305683
Ni 8.574889020074677 2.228065642680825 4.9242426776796036 -0.2606206432746931 -1.2718830820169191 1.2664020042976898
Ni 4.981437630964533 3.548067841754149 2.632955891455518 -0.7158964215665478 0.3547487300093697 0.584070048950149
Ni 0.3974163854249166 6.792023928226781 4.980419878444382 -0.27223045959947956 -0.10969020283899174 -0.7286933162208998
Ni 7.549752089261224 4.487932628681901 8.720142842307212 0.27254413418515644 -0.34594141613038487 0.1785587436759312
Ni 8.974404805316947 2.539799132081862 1.736293101638773 1.0777776488556405 0.46346757007402767 0.4002369442491559
Ni 1.2880548105483876 4.761374890979479 9.857223422512043 0.10114745547530321 0.10576207142917915 -0.33501139948144243
Ni 8.38214586119109 7.886386286061126 0.8221578286464759 1.613507358829189 0.4885851910772617 0.7347685758807023
Ni 5.1512973318389745 4.989990403263923 0.6248635360718784 0.004534654645559933 -0.8261268131797256 0.3751185519149733
Ni 7.99069907350769 8.939545640523596 5.012202053331517 1.0981981214935217 -0.1200643469844642 1.2305083757248743
Ni 4.536985561805618 6.074741161064908 11.82957851630916 0.1132943752504823 0.8513521634054178 0.6127692166570543
P 1.0127139605898998 1.3269576019464675 8.100837239056142 -0.09284793447067236 -0.27797841782685034 0.7831199706008964
Ni 2.2212197737111956 5.4602377067004015 12.30905131276911 1.3484412781886326 0.21732866535527734 -1.7878186400826757
P 8.33684446426273 8.66482548268502 11.581065257668854 0.09835523744214675 0.3072296013824838 -0.2949795803705371
Ni 0.8472347030734924 0.7390343748347084 12.535133853534791 -0.22312701720460928 -0.020055375988978365 -0.46921167164665645
P 3.4748444272549945 4.085368149791823 4.155831309922423 -0.4236607224897349 0.2036408834555396 0.49388166358951074
P 6.882827534239944 6.077935899917402 4.929172616120266 -1.3961100450195054 0.19097691483462595 -1.3581582483660803
P 7.023870690664891 7.545662823530032 8.36739894664798 0.4046852098284966 -0.42133824500414535 -0.5430187874357939
Ni 4.950275235414781 6.042693366461751 2.879612550431259 1.07834817664713 0.6071577840075478 1.108812149563942
Ni 1.3958726829074017 3.638059071316248 3.1232095623688414 0.3914851661984548 -1.2432209381955361 1.3031027021528332
Ni 9.144346656619025 6.433692890705801 8.725099251441224 -0.6753935763564949 -0.46364908995721443 -0.4872106793272384
Ni 4.266254263620013 4.455957856681086 8.726381710894866 0.7319575887944685 -0.4386564245676188 1.2940310788688683
Ni 8.094354657533168 5.8168800965422065 6.580833434426366 0.5474284864677154 -0.3809539276498278 0.9288087030216844
Ni 5.976069369649319 8.101264421279849 4.256335055874285 -1.1401608390785527 0.6097108894467047 0.2151691958101133
Ni 7.4486066571912755 6.822483481228986 10.555243739958438 2.2926717150820255 -0.5661558876738896 -0.5280174289309552
Ni 3.6265671392725642 4.724069469007644 6.561208610046761 -0.7626190224340672 -1.0681920620497345 0.3399116649965372
Ni 4.322116554412188 7.232021618642792 7.7359761553206665 -0.7346479911424381 -0.12503994582218464 0.19633098005768768
Ni 7.464096576713223 1.8771646549482157 11.340674850756647 0.44579175006081934 -0.3140036868815237 0.3593384062625811
Ni 6.792626364696109 7.397490835551377 12.651802065297744 -1.0445194010231431 -0.37657739584868694 -0.03696423592917505
Ni 4.971524812696511 2.5088649321644305 7.0042358256774655 -0.8058017284691283 0.9230561168086233 1.256208608704456
Ni 2.7035888291365646 6.4373714042988155 3.7312267840802558 -0.4167511398540952 0.15365555267634826 1.8687734226601878
Ni 2.4371202253627158 2.2085412243794424 1.1225792041620977 -2.075357447904451 0.09512336076841038 -0.41155982546114284
Ni 2.590604607661804 3.0049257255290582 8.384766459832663 -1.5227723569364613 0.41095073112223424 0.405859689752572
Ni 3.2488486008295943 -0.0056966757652608105 0.7447127949493835 0.06892099134142969 -0.5315562953221491 -0.169636758595953
Ni 5.813940936797914 5.30647948964253 7.285160166367583 0.8094724924524963 0.2535416249407247 -1.2794287555746608
Ni 4.047889299139426 8.648258479778518 9.774675021693724 -0.44053975763326064 -1.7488689982923558 0.5059666197785028
Ni 0.06754773273206706 2.4238209839110496 9.655508524148123 -0.2816013592914182 0.20291146148868278 -1.076128543287992
Ni 8.269837098787999 5.37042903364416 0.7124979611433668 -1.469447934481708 -0.3326336432778852 -0.11093564521031862
Ni 6.555485463588152 3.1991567199353788 0.6643039563797064 1.277471374737974 -0.5649091597509819 0.43188388173047554
Ni 1.102093625857379 0.7264343248004735 6.064663129159085 -0.5419980594807634 -0.9272889239430482 -0.5341132574160479
Ni 5.558535257278985 6.257863592089844 9.596526342670858 -0.6248657428102723 0.06271974762672425 -0.535261254977562
Ni 2.449935692073862 8.001506418654412 12.184727593933056 1.5170994749214002 -0.14464974963331217 -0.4602233521051171
Ni 3.1579993556899675 1.8168206019372573 3.321170186189816 1.8136780243479411 -0.3156923874378563 0.618643158939328
P 4.9717621361541235 8.252923238520369 11.841562438136126 -2.266305566383671 -1.0318194369579714 -1.4382260003529488
Ni 6.305392178389656 -0.24342449603954716 10.036974947656333 0.45628622183423995 1.0915857583833266 0.20285695410166354
P 8.499237604047629 3.146178821935741 13.06141778922654 0.21729755500702577 0.14934201290265894 -1.3499973098218427
Ni 1.6709488259323975 4.7785717138311865 5.436673312924409 -0.9200139875481896 0.9267677613322555 -0.9256184782191607
P 7.156297180013399 3.3691715938397975 6.757914157889971 0.13102778797450337 -0.5800123339410076 0.24382876852833488
P 3.239611241633241 3.9256494628177263 13.570307741040253 0.6401686917159297 0.037843038989702565 -1.51192461558868
P 2.4124933527226364 8.787430432018434 4.655957636672481 -0.4075617600453432 0.6813788474056524 -3.269007774260712
Ni 3.1517102840632014 0.9810404068237484 7.633735384215577 0.18628696555812432 -1.281369681351116 0.3710973465707222
