# total energy = -381171.33957270626 ev
CRYSTAL
PRIMVEC
9.18233782430286 0.00000000000000 0.00000000000000

0.00000000000000 9.18233782430286 0.00000000000000

0.00000000000000 0.00000000000000 13.43927957079542

PRIMCOORD
 96 1
Ni 2.555747669689537 0.47179311523420964 4.996965874549163 -0.44163299069743944 -0.5964794783580952 -2.5115844370949714
Ni 7.369367965847978 6.854422453399978 6.73607589068268 -2.1445607463729903 -0.9162066979869576 -0.687690648556293
Ni 0.936699477003084 4.062578510242841 3.419718438929704 -0.7525402980418265 0.5059334525477223 0.15990744712333105
Ni 2.611484461068984 4.026996950671942 1.8673744220746926 -0.23525516792671097 0.5802825568832587 0.44010935496406134
Ni 2.947613124205066 7.1643079946641555 5.585485788085624 0.455424645164893 0.24636001959062082 -0.8491530988715699
Ni 3.643303776935278 1.469036337535544 8.721031068489324 -0.39833201391695916 -0.9472273147381879 1.443626859653546
Ni 3.8673803700213787 7.903486199943472 2.2953347288527364 -0.061700048112958254 0.8403817804368429 -0.46292455308636404
Ni 6.171779902902087 3.425737461458407 9.514271206705319 -1.0541898342333715 -1.1736216898401595 -0.714331391072273
Ni 8.694177321143494 8.582226256811005 5.666457480629649 -0.3523082388886771 0.251526908503541 -0.6238594130329449
Ni 4.546919290290891 8.53761845903154 4.489552633924649 0.8703091641238947 0.2060248103066839 0.3644654430765013
Ni 5.258082182473223 5.3446532647014635 8.272871454680555 0.6483833663162382 1.0802268817270815 -0.9934454651654632
Ni 8.397789816671374 0.836129920564305 2.0059065183157854 1.3818028843682137 -0.7052829077167596 1.3348221447433013
Ni 0.9553763524010731 4.921824966605787 11.840166592735827 0.5695204332707483 0.10094253855334875 -1.458088800715147
Ni 4.55374176739055 1.713396715161546 11.162598202191194 0.31439295190014244 0.42603282226633726 0.4314257111471344
Ni 7.615078147153185 4.313357342098535 11.175917183393153 -0.25607339022364284 2.1017966159325865 -0.3330948991850199
Ni 8.774100390693198 3.059591735551417 1.4632422822867086 2.1725934841404904 0.8971777063799646 -3.2043576423804945
Ni 4.740611527087934 3.3646932787416755 2.406880852081464 0.4099932523049713 0.30612479835407924 0.7088497991324114
Ni 7.045011059968642 0.05393521667291483 7.48360910526614 0.496019792978436 0.5848148975359735 -0.7835244051281668
Ni 7.7897537620479484 5.677531380201908 4.322730672681754 -0.4802213924935987 -0.3919865313149056 0.7863019678733039
Ni 8.93043887669426 7.371838014757545 8.11045793388927 2.598031867355939 0.3603125972503924 -0.06305321970674302
Ni 8.37541245907801 5.293893300492966 0.07314742237360938 -1.1372284959231058 0.2470670729599745 -1.3559638118179227
Ni 3.647344005634941 3.591249103075297 8.158717547472953 1.1335579890500542 1.6444734681934003 -0.47856354517520155
Ni 9.0024284062519 3.005076195119823 12.396257243320921 0.42636578012572374 -1.6989404888930288 0.24875474507504253
Ni 7.6688682828864305 0.6139476437980688 13.32206279457564 -1.165449181331696 0.22563589966939207 -1.8523947241918484
P 4.505001917531884 6.457763818472576 11.80490182382433 -0.4793850126352325 0.5584911720397802 -0.40720977602256314
Ni 1.857100304138208 2.7123524434912603 0.12446750919728758 1.1530492650054465 2.0501092148606244 -1.0195030814844634
P 8.712128791843135 6.304372862954675 10.776447834818098 -0.8528611438507764 1.0784834166734136 0.9905136362306489
Ni 3.2632100796764956 7.068159733950122 0.03321251637882341 0.09514855757939097 1.0723755040034628 1.3511792459450858
P 7.871531663864316 3.1351256475592137 3.1604211521542878 -1.801045423185595 0.06710553539924571 3.8571064847542798
P 1.5549922031208816 0.14515164367197314 9.907827129638138 0.06531373360614558 0.8408900875318293 0.7068029439057117
P 2.1549386180070265 8.809259562718223 1.0455882316279879 -1.6091202855050868 -1.241758494717397 0.9877679551647117
Ni 7.780644882797798 8.075765224632297 3.2138559314087214 0.6542699070040022 -1.1063904274963268 0.260784422546067
Ni 1.7967264320921024 1.6182309646085666 2.081932603637905 0.3928697052508073 -0.5383820599947309 0.7476120075022737
Ni 5.338556192300153 5.976572580342672 5.672142266056834 -0.546842017836626 -0.20280707470033457 0.6393125143632216
Ni 3.9953270670693537 9.1997843958925 6.8805076390590765 1.7095267490493073 0.3321824146730796 -0.07289411705656479
Ni 0.6969238407174047 5.440691337360052 9.212303595458684 1.2443918185751859 -0.0747432544501616 0.694946815898074
Ni 8.043819870891095 3.0550372959263417 8.303298049724201 -0.5669323608285979 -1.5178571790230309 -2.3910727181604434
Ni 3.4859827807731594 5.726923176055293 9.80637331405441 1.024006625781772 1.4593478699332285 -1.012879919740991
Ni 4.399689683539978 5.6314819553637 1.590686705448612 -0.5104254268808048 0.24312325782087804 1.2753016207801648
Ni 6.052602338599972 0.648641271288837 9.669252543156814 -0.1147485911985056 1.865540517545187 1.0546814291578095
Ni 2.486898499712092 2.7393944287651437 11.261619616450966 -0.5328559879701792 -0.5471482362231351 0.8783567170187195
Ni 3.6313667375953638 4.509638998198543 13.070398785341201 -2.8415680443445193 0.45293298909129087 0.15501180959392657
Ni 4.603491674424132 4.154310066401107 11.080081122169547 0.7610167109439538 -0.04174700202979907 -0.40838862682201277
Ni 9.168582811525555 7.925147335176439 0.8469393688034953 -0.6207478639871568 -0.4259256072645116 2.2006617031316162
Ni 7.20925553894791 1.8063036105778951 5.751783437831357 0.5149040314774487 0.49599099662302965 0.5358199556945095
Ni 3.6375648157141653 5.438606946644544 3.894636303769585 -0.23262621494429614 -0.8173171853078955 0.1414937205028337
Ni 8.97973884916811 5.743919683607739 2.2917462711803993 -0.41204884928241936 0.8661344639209148 -0.00013806823976105254
Ni 2.3794651456528624 0.4219394477817501 11.989288679339012 1.6187950895906895 -0.7847503071154678 -1.738585871198793
Ni 6.506292474558305 1.9469678456918558 1.4377741497381036 -1.8420956562586854 -0.4182889166548603 1.775448291442781
Ni 6.776785786000765 4.779012064410642 1.7756915323075824 -0.1952950825940056 -1.0119844045099151 2.2764614238707503
Ni 4.381370919322186 1.0927992222173495 2.803796592471573 -1.8967789067341785 0.1846391455420562 0.3206985824031961
Ni 6.175434473407692 3.898260572559942 4.645878264652577 0.0922601802880024 -0.8346137676048142 -1.5026323916534767
Ni 9.202906390796786 0.7219475481090468 8.39780267194451 0.19704446118494454 0.2470385337148842 -0.5621614218025157
Ni 0.7273605363328003 0.8714415193993627 13.255658881195286 -1.4266856038135172 -0.47008327561833235 1.5465560896196202
Ni 0.6849381349863353 6.754738992573738 4.615908950039029 0.27387622273301865 -0.4261392659372145 0.32565721196005204
Ni 2.4685430061424856 7.077792006463637 11.3899914557462 -0.0151049739622385 -0.255797767964753 -1.3433504939292864
P 5.5864701347142685 1.6896603715510239 7.819067457731596 0.41613021844064463 0.6375402529541472 -1.0257647461234591
Ni 7.280207464316771 7.793518520608998 12.063635315049387 0.551010804502335 0.015455158212805641 1.1949070815814968
P 0.3071537957229285 1.334450810146986 6.121578224841179 0.36548411414900284 0.22201527219766926 1.4978827927836331
Ni 2.1148944421905904 7.555273580060214 8.940870930843552 -1.552412034179765 -0.4380696988262133 0.4582649428271656
P 2.2764393138114474 4.113246651071801 9.809424604956451 -1.2026725844595287 -1.1520812446652222 -1.0243411263030553
P 4.56736835691396 2.791265455866048 0.2884043798551045 0.6777276238063102 -0.02171630863116905 -0.05855250362291207
P 3.8077135379977145 7.3226574126770965 7.709591033477651 0.9152574466998108 -1.8672947812321323 0.011655324850741217
Ni 6.7372741857856475 3.2495375784633165 13.260335445915148 0.2606386409968221 0.6623436851510722 -2.982313573827419
Ni 0.5998931573260127 1.8516827247454775 4.087006283901283 -1.1961646081376818 -0.6592619609019549 -0.1758688555485939
Ni 5.606175431963082 6.643026669028047 3.387988870130416 1.0595220450795624 -0.08172714196716248 -0.8910340553760719
Ni 2.7483472082700793 2.055751003430291 6.531113252281168 -1.6095512023949186 1.1226467414541894 0.8328371353203656
Ni 0.2715529532423268 2.794773108964393 9.754430664717464 2.28662987976332 -0.044931827515683906 2.910919695465464
Ni 5.713406774587328 5.382337579663778 13.23547334767149 1.781478299686945 0.8740033251460303 -1.6780073382847878
Ni 6.240821901976561 6.367088231178994 10.634353909684734 -0.3839808874016097 -0.9925514925962842 -1.056028172993691
Ni 8.746883940998194 0.5666347292574203 10.771367247228271 0.2818522989599597 1.392358548396873 2.032005049060746
Ni 6.05733124264617 8.695729136257683 1.6496712897623105 -0.13970500403352715 -0.05854144787931854 -0.8158647691320852
Ni 1.9594833723228584 6.633982066143574 2.58660399814942 0.1325272553381653 -0.4968769987724087 -0.11131154049249863
Ni 7.686884029951748 5.306096627633541 8.85168747346746 -1.4687871609692575 0.9706806606651217 0.14387893290555867
Ni 6.4239269031128945 0.9557069165674092 3.5547024797854565 1.5043635154119703 0.2136941539264836 1.877113309984451
Ni 9.0785775349026 3.519571773008088 5.776941207357125 -0.7999702093890159 -0.4011160044199995 -0.5113654221965709
Ni 0.5921221447157283 7.855453390107247 12.200729457166917 -1.1898157831015188 -0.3825896634810379 -1.5944878803038927
Ni 3.7485700992374156 8.702312872570543 10.0294389317318 1.1407259675534032 0.3864843705497537 0.659117979124923
Ni 4.989728355773994 8.877328233969596 12.137792794597912 0.40606254979199746 -1.4760708391148643 0.4076790023494979
Ni 1.38678095414558 5.657963818022402 0.4923734892900174 0.9742059002095609 -0.07389684728946629 0.4107033909981185
Ni 1.3613550603515623 3.643762893832967 7.654664124305728 -0.8139441550706047 -0.22285190916635167 0.7906067658962449
Ni 1.906547194019315 4.693340851301873 5.476049766118674 1.3662947614302856 -0.41249647834279923 -0.7725357673271469
Ni 7.095605742093971 4.308132591802834 6.786620988183059 -1.2115840280165455 1.4675751429390274 -0.7651032223085017
Ni 3.7660440883634596 0.8791693750212641 0.5604476699441632 1.1533092035350525 -0.5259741732486812 -0.48087162448308796
Ni 7.621487419044923 8.21327991782811 9.658004179163433 1.4946396032559872 -1.5703326232139279 1.1182378137532163
Ni 0.9650361719284499 8.761998069270117 3.2838345289544812 0.1522941535524474 -0.3798871769482103 -0.5042882036348154
Ni 5.758271677829498 7.808329631728446 8.672985403379965 -2.7256295466029705 -2.1059507473102763 -1.0471159581057257
Ni 1.6888339611351835 8.83213276656109 6.925771974002237 -1.1558849346820286 -0.1933788394078992 0.5081034636158475
P 7.211413388367048 2.2246325630762187 11.197567299820577 -0.3783308882046839 -1.2075450820604816 0.08894782808531779
Ni 4.755147168068768 1.844851065307865 5.508034603913077 1.426827271597704 -0.6208615067468856 -0.8356630348049351
P 9.153018748693897 5.607047754068691 6.541475520662009 -0.017191681287938132 -0.37560834706719826 -0.5082279050088537
Ni 2.8281325427504767 2.7387608474463323 4.177962850736249 0.8627328944385336 0.7760232116551151 -0.5636498334225841
P 6.546400926740416 7.871118458656396 5.004908596879184 0.28246884949803613 0.18774786637436697 -0.09419647807876681
P 6.882979524436234 6.8045715406489045 1.0756971177784336 1.0560806234981812 0.47179717298564555 -0.0982945594075404
P 4.2858562399269635 3.928571470145371 5.7976115683248794 -1.1051637541780772 0.9207745198632981 -0.19551799723808908
Ni 1.9890688652099386 5.977711190248941 7.292180314774705 0.10631460149853948 0.16645116177911978 1.0379535748801672
