# total energy = -381171.4129177261 ev
CRYSTAL
PRIMVEC
9.18769019290557 0.00000000000000 0.00000000000000
0.00000000000000 9.18769019290557 0.00000000000000
0.00000000000000 0.00000000000000 13.44711330327526
PRIMCOORD
 96 1
Ni 0.41879880056728563 0.041170957892311184 8.18243364532293 0.595875012004877 0.4075720444579884 0.40564294575607557
Ni 6.941373335855981 2.506980670676777 5.5251497155464016 1.0165118600666234 1.1730781586318637 0.01309642817264196
Ni 0.4476959233190424 6.945075974946963 3.679883020261483 -2.126288430426364 0.057788371763377894 -0.6951468477240221
Ni 1.4970697801537258 5.214749119751396 0.5958722321717408 1.9476651520610844 0.5563923805292225 -0.7611015573482762
Ni 6.9467940729867 1.880536399856788 0.25846534023769396 0.6338957142230244 -1.2577553843662856 1.4974536756660144
Ni 7.475775327734377 7.8240622822280805 12.44395808463451 1.689949341138012 -1.1381098700867949 0.9949133079602415
Ni 7.544434935493464 5.486870123713476 2.7327359967911073 0.6492032911143722 -0.34518345491843777 0.1709253955003895
Ni 5.217459488316756 0.3509109587725729 8.563928586740818 -0.3216473194697106 -1.44563026323682 -1.3225780372686256
Ni 1.2508672498285238 1.9309492551724718 10.141476100367603 0.08131422279945996 0.42254640637963364 -0.7093473075941203
Ni 5.834550690663742 1.4519030958577714 10.473486143165067 -1.3415648627837735 2.213961248454 -0.37695457668244753
Ni 6.841420455779559 4.1408827187759165 9.75233056944336 -0.8652183798645485 -2.9287358977112787 -0.10951022561770173
Ni 4.091995020008875 6.351578760653681 4.8223098019434865 -0.950506242599776 -1.0937012620644326 -0.1067930837968548
Ni 1.4820295315384946 8.985230114078288 11.030935455539069 0.39843897180846866 -1.20670176022358 0.08239125791372261
Ni 6.32457613959066 3.6724667168514555 12.485308202482836 -0.42872322461430684 -0.304334796333192 -2.092767415850783
Ni 0.7606571283315583 6.726583517818791 7.8632937187504 -2.600928729287759 -1.1076903772546727 0.06923080927236465
Ni 5.521810908981481 6.767312547819598 12.168332895686572 -1.2996697652118843 -0.7758272935942252 -0.17746551061175245
Ni 2.2737235956349355 7.086263207977056 9.520380902695926 -0.057482667597501 0.7289144310927704 2.49191909745556
Ni 4.951025664496905 4.279129890989347 8.401460826012132 -0.7975088923327168 1.7766142867264243 -1.1049994606860711
Ni 8.616252481587333 2.4367499679187876 8.01187061088937 -1.2205420085407819 -2.4269756027046396 -0.7768451933357783
Ni 5.1775205996604265 7.94344712676462 3.5262767865880136 0.06807278440852148 -0.2548048079238644 -0.8347839746340914
Ni 7.179178317473594 6.175239425484386 9.027261958528477 0.08530200380261438 0.9138939906933808 -1.3880267537907387
Ni 1.367100716677206 9.085890446288719 2.4296111327483327 -0.9002380904728431 -1.3180310413278915 0.8430675547991222
Ni 4.393571758277877 8.445251194338288 5.690683408445462 0.5816418991246305 0.5418628194544798 0.7706282658917889
Ni 8.752561051199779 6.579222157073712 0.9491499399017258 -0.10808249203223966 -1.413568863925901 0.5703596413425919
P 7.232742550477138 5.395967118338339 -0.06461886167418782 -0.5834974642761306 0.985830886042999 1.704170626943717
Ni 7.309919146914489 0.6823293143306834 11.794570314216504 2.419520689088491 0.9275900001232348 0.19707762841572513
P 3.5314724253124563 6.55239410212168 0.6028824396814668 -0.7319002531939718 0.3638650904883411 0.1490836170349497
Ni 8.517962573410335 0.6972133722150297 6.03616719870428 -0.42807350684544987 1.1609294390844718 0.3185254860112772
P 3.0933574251797085 4.597841671205451 3.8772327650418417 0.4656442660103723 0.6111386230321668 -0.3680068805708565
P 8.394140074578647 1.041948365734604 9.913494596953658 0.4318278316815595 0.03645772860640173 -0.21404639505957976
P 1.822020001915182 8.420545495788282 4.556701951459317 0.7726931188406176 0.18162067043070654 0.2416194195818419
Ni 3.174971675912207 8.346143581746656 12.860079592320622 -2.086829195989477 -0.5237427128150012 -1.424272109276018
Ni 4.672059831446037 4.850843092169182 13.344632853052532 -1.6651039999595583 0.7763176029670824 -0.03698711874731049
Ni 4.684104893104296 5.732172260413575 2.330680842574706 0.39241564843252413 0.561454111322846 0.8931935249212358
Ni 4.297091825041135 8.585666661404005 10.667756174239972 -1.1926056871418298 -1.4856692814365768 0.17777789964584867
Ni 1.7843780357718695 1.9672406308781312 7.329254640629061 0.2662994388270252 -0.08811839020548697 1.4579998405457664
Ni 0.18114541583553068 3.0765715154545843 5.809193584889046 0.446806821588895 -0.42624699515967235 0.1864430315200144
Ni 5.6239504592902945 0.9171685095994907 4.457274607253873 0.575710364131544 -1.4196160985612454 1.067423045094194
Ni 6.393915636413601 8.241330413632692 10.172781316682006 0.8705127954942686 -0.886763453025176 1.4533415158381484
Ni 4.724007031000417 5.975131536150397 9.846621994909698 0.3528414856843278 1.110561271044565 1.5786632545668102
Ni 8.7266425775629 5.208859810428022 5.420101342567103 -0.7955124307279784 0.7889486614675315 -1.0605438014758573
Ni 0.20265563578542667 1.474826382537675 3.85316285464344 -0.4843685818927529 0.0115967036986639 -0.020082115461855735
Ni 7.211307669585669 1.9525311391047742 3.2161187458103826 0.9986565770527575 -0.08836264500580912 -1.8571522934814917
Ni 9.128264072808845 1.653793397061861 1.260333326889167 0.6020500304673374 -0.031173083168694698 1.1936449270396217
Ni 0.09830828355710197 3.8994577872777882 9.392539708235464 0.9120749352067713 2.5077362669934744 1.3866748677485343
Ni 4.643394238483592 2.2001945121482547 13.243348676687566 -0.7620911749550553 0.14229359069630979 0.632421186560027
Ni 1.7534338956765123 5.910413447423648 5.395452607695423 0.4734874162038749 0.6693990493359568 -0.06674532384634957
Ni 8.414692937225118 8.612053707233539 1.7781791012937407 -1.1893313872659323 1.229427998176502 0.07770310840943391
Ni 2.1937355660416524 2.530914603262408 3.075556275703831 -1.7403848720807447 1.1700751101394817 0.9782147642586378
Ni 2.1778224868714746 1.445554402031794 5.099736696910633 -1.1531590511104333 -0.8941358342298471 2.0921920029632872
Ni 6.116226892279969 3.8810548441035007 1.4388547384458277 0.9073474478241148 0.051148497849357065 -0.13545471339760543
Ni 2.712362294100652 5.892350448781286 11.855580251238239 1.1716565956939886 0.6217007148187293 0.45968187777935027
Ni 4.107568154647126 2.5807945725550723 4.333775515112018 -0.04789965189475622 2.177278548320986 2.012791195136456
Ni 7.2738942142203395 8.390437435487664 8.086650138992136 0.9169988548709498 0.01577371789448896 -2.1531505449245305
Ni 5.508433632265673 6.492912996724607 6.838448238047715 -0.3502307875343581 0.11292413639525713 1.4206761643946435
Ni 0.5223890871353202 1.4353101276237408 12.405728106327864 0.30620861631713714 0.26265772830937995 0.7464239007314435
P 6.162606351662796 0.2050527041200106 2.283790547624984 0.7804655636971849 -0.3096898899975183 -0.7652603167116562
Ni 3.9970310556307247 2.32396188483963 8.897739416788488 -1.3525437303927803 0.05833267430262212 1.519870352798318
P 2.4995662048047604 2.904963840662103 -0.006169533869962054 -0.4390834848027083 0.351744138855091 -1.111645762357995
Ni 7.708784335144812 8.397833525979577 4.105148117087412 -0.5658141880637545 0.514408837008585 -0.3509170149681053
P 7.727756915102328 6.516488609398207 6.786946641460863 -0.2203229720969109 0.14078383892000268 0.20258287450467044
P 4.81405558120071 3.703208727765667 10.755673180348188 0.027998799205771134 -0.5886268150828959 -0.3537817381104101
P 6.401109597724368 0.6782747867107068 6.627826874987148 -0.3088062018409843 -1.0290927820554276 -0.626464711866276
Ni 2.4283432315211475 8.107282015773055 6.895921833168413 0.1976718103562983 0.7370445163990725 -0.10153543494234125
Ni 5.923515093437894 2.53741948781927 7.571652548503702 1.864950192259356 -0.28232358216942344 1.257822233048479
Ni 4.87285679753393 1.9926813446323008 2.367780735004947 0.8836948414021814 -0.5928439384880371 -2.0179164321781635
Ni 3.4767872941225617 0.5069951124530843 3.5968878597141587 -0.3890696147784267 -2.1731105329862253 -0.8444364101221908
Ni 2.8843650395653717 5.804764199514945 7.711031644131548 1.5538209987121496 -1.6917318869597318 -1.4467677192753727
Ni 4.870578250401019 4.325463411921914 5.812810778462544 1.1673895928875184 -0.2583642431403486 0.9479983885762576
Ni 8.23158227448745 3.1176680530574736 11.505578873780818 0.020663956107254734 -1.5709741134526687 -1.6041428868951533
Ni 3.485965796484576 3.8415110261194108 1.725586925897707 -0.002610955260285826 0.1060711180291657 -0.5861593273790099
Ni 4.0810065427066045 8.843307865844029 1.3833179083881069 1.7303169463217813 -1.2997862361850905 1.4112661839346534
Ni 6.4025061266122805 7.29671643630967 1.4521943456324218 -0.4805486939260305 -0.11322444124449532 -0.6915131076261768
Ni 3.3299404440203975 1.2806353655972165 11.49714733062004 -0.47080447005507303 1.1952258983734965 -0.020791739934370647
Ni 8.846982941864857 3.707986326592741 0.274829534989428 -2.1750910537513635 0.7861333035059236 1.8724081911992978
Ni 2.861993014288592 0.2978823680990658 9.058701315117641 -1.0841951223462103 -0.11369880977775258 -0.9467156652090922
Ni 7.3107460390191745 4.328054340516597 7.274686193102828 0.053985967298152186 1.2673908505735205 -0.3279249249483062
Ni 7.519821113843979 5.553241996649597 11.298385437878679 1.6491857860674048 1.2544018945130204 0.1161855807553483
Ni 0.2079808209396039 7.869394344944972 5.894367146747715 -0.5643077787215571 -0.8596884511852548 0.39718478768639337
Ni 5.386016850011951 8.98747191045099 12.845368263009256 0.3382746436137465 1.0097321181406287 0.1317078447606635
Ni 2.5007514168214766 7.0469858330044755 2.7921858640420028 2.1580734361474447 -0.6081327463263075 -0.6339000850983986
Ni 2.590028201057398 3.7590790709722777 5.801554939379758 -0.21249344875016307 -0.6528915385992369 1.0924594192375314
Ni 6.417610689057877 6.391131766327824 4.6882016840985115 1.404035727624485 -0.976405221853725 0.24837113648337872
Ni 0.6710670438648614 6.897015168284608 12.447629485579315 -0.22534973588754093 -0.14176008679034294 -1.6527264522308116
Ni 1.2189124638274398 4.848132723603822 2.740750418823524 -0.28784965419397524 0.538522442227337 1.4813094618059843
Ni 8.73157636712086 7.877736767512248 10.012666523375653 0.5877737230539813 -0.6783865975465477 0.6471525792329306
Ni 2.8261610230855365 4.344867813311877 10.071538484922275 -0.4977555447226201 -0.394096892789689 -0.8955483983066577
Ni 4.215744017320147 1.4946350422899284 6.678280156139062 -1.862473448584089 -0.24128311928834573 -1.5333527035554688
P 1.4152717756201858 4.24004545750786 7.668767351123041 -0.48614572839783377 -0.7768421080119847 -0.5274183618943756
Ni 6.082342691367951 3.8751379717099708 3.7555362976882014 -0.5642054488157381 1.1387472465604773 0.44560045998561965
P 8.794512043977509 3.508264320240939 2.8864359449031074 -0.7415460038138519 -1.0327368065659182 -0.28994124661568127
Ni 2.565157124086457 1.272054063088587 1.368458657266901 0.6800218191571256 1.1886292189925851 -3.2087053778262287
P 0.7468434363382777 5.693538023744639 10.536404363410618 0.16569062946401142 0.41611479182167693 0.08831276560448016
P 0.7232420981325315 8.69096677709073 0.0728804325690052 0.10678845581116446 1.2234201014195254 0.5707771884959847
P 4.156906050226718 7.446007211965684 8.4181484274537 0.39495409858366176 1.9931577371762443 -0.33893361735398403
Ni 1.0589272169508213 3.9604181107732437 12.098341072869937 2.364025484234664 0.0573584833148109 -2.097120550613156
