# total energy = -340869.6217623979 ev
CRYSTAL
PRIMVEC
9.22201600931036 0.00000000000000 0.00000000000000
0.00000000000000 9.22201600931036 0.00000000000000
0.00000000000000 0.00000000000000 13.49735260528837
PRIMCOORD
 96 1
Ni 9.073301956959293 0.8079924817000578 3.761793200950402 -1.3149529166231997 -2.4266061351803625 0.7659334315192808
Ni 0.6250544243366177 7.670873066875168 5.1814451284710445 -0.4704406589577511 -0.7154135683928582 0.11186381345154282
Ni 0.35922427444900423 0.764573385074112 13.436871368979412 0.5351995485016912 -0.9083334658864679 -2.4227173416489176
Ni 2.0951221921665892 7.454884225688244 7.672421443393476 0.474623329580531 0.33480571122853947 -2.7277046839644443
Ni 5.7275268171642555 4.443268842539302 9.659353708223376 -0.32559087749849086 1.1343725145315495 0.7599998396436654
Ni 1.4422956660736665 8.020009377813887 3.0807307056868147 -0.24548533029515143 2.7339977160620075 -1.0025641396372797
Ni 4.336551671188161 8.135183138011296 1.9261665557504877 -0.9494816579900034 0.4469063232812368 -0.7688570329239791
Ni 5.975386946303957 6.760346520367771 2.548097483203539 1.4168228520868245 -0.077843233531724 -0.08858170299515065
Ni 6.1513430152099176 2.057865246758828 5.957623498718702 1.7857959532256922 0.8115900530161314 0.8840805068763743
Ni 2.265766379747087 6.036658021870582 3.5935891588537885 -1.1595929796612352 0.1557052361165254 -0.2638823447451004
Ni 0.9029644932315644 5.931121268591767 11.506075361101527 -1.2937181756141396 0.34705573224048614 0.0964258816299178
Ni 5.495851326438073 4.939127431061556 0.7173022522855866 -0.3807232996962604 -0.10560986212203101 -1.5305563717572543
Ni 8.745284063095763 7.17401850060439 7.046725166730032 -0.4555727407069831 0.4466304439120308 1.389963308691819
Ni 1.9587193506997094 7.403480707444962 0.7890716710829528 0.9883009448500463 -0.3188175633303993 -0.526279620304242
Ni 2.818285035740946 0.6822327691181029 0.3333694298586085 0.015694527917121354 -2.700007218049176 0.9214936574175098
Ni 5.442916953507245 4.179316295147981 5.0911339239219835 2.2324343675575227 -1.012640035816043 -2.3728294556795393
Ni 6.502240731240935 6.923354878542916 8.652991047267465 -0.659166315864355 -0.945030049976553 0.116049055177484
Ni 4.496848756603434 2.4401547059007407 8.115931257012969 2.281365288930271 -1.9380294287435331 0.4261626629759822
Ni 5.278285520482653 8.147180981074538 4.238452473966611 -0.7636911724523235 1.4956194506707532 0.6987111680365128
Ni 3.828547687343624 5.7227405907616244 5.299370738299561 -0.6699734337821881 1.5898694076952748 1.385352292282369
Ni 8.537014049459904 8.401459633482506 1.5557458314451558 -0.239162216290601 0.3393411372050478 0.9744007898291864
Ni 7.168383848712276 0.8369846561983051 0.1219279648549932 -0.2098066459466193 -1.3780472739805236 -0.3285928975496083
Ni 5.334327712869525 4.954251537613223 7.242693010768379 -0.9239968834553376 -0.3953335934102676 -0.11887521177236945
Ni 1.7604367805976622 0.42600734909241605 5.533550006421337 0.4906955525520453 0.7442096666889442 0.8544549707004575
P 1.7052337916840832 3.5029182956733163 12.162681069429125 0.8816143047240689 -0.777326503847571 -0.3542604775190415
P 7.36840937987424 5.516720749076134 7.287950055220999 0.8684461427732268 -0.03217787028412523 -0.1184196122921896
P 4.829302440254372 1.7687919272658381 4.4296423914169 -0.7341857067940387 0.4497221954634771 -1.4389862755577412
P 7.783068115843194 0.8554508214172409 11.427331331459632 0.25234837596357185 -1.105158611971755 0.7141750680000668
P 2.843488805988325 7.744040543326944 4.895030516245642 1.0148025906850004 1.1348656521178841 0.22923570120550843
P 7.403489929461152 8.162517193998575 4.8260996340315705 1.1200761525135354 0.5782878950507331 -0.5751370081265772
P 3.743520698071457 6.090071939643293 1.0729437734447604 -0.6007760488509202 0.7249130232428612 0.4963694630083709
P 1.2944206364663768 0.842292848717292 1.96605177577241 1.0395360888759386 -1.509743034556329 1.1094423269487732
Ni 3.0144465421192845 5.104717953769913 12.708526674507873 1.3322854943643765 0.4709587362447502 1.2346720201842607
Ni 7.7200079691357 4.098208662756581 5.7121205169171745 -0.1877409243958315 -0.5145929279949332 -0.1333140129055188
Ni 7.089378836012204 3.485977451932213 8.211573709121492 2.164075162256834 0.00414513251662512 -2.0333638770814852
Ni 8.901117692675058 2.7434483743587723 11.867399488637002 0.10254279316093308 -0.5387566697253301 -0.01296735879394541
Ni 1.739604246024362 2.1778067893264867 3.8122062746548737 0.5836458169285368 1.2324266757935098 -0.33795814081459213
Ni 8.106299783304092 4.680071774267146 10.796937359748982 -0.4904628677159489 0.7977150948062519 -0.43919044269421775
Ni 0.32485013130224966 8.74422353123391 10.820746761148428 -2.996347940433298 0.018600388710006677 0.02638748885459326
Ni 1.885321323843182 7.515325319797766 9.8562668089212 1.6855972348169035 -1.0866762368968512 1.60036490790996
Ni 8.247719401578353 6.203677957088395 3.914583565186982 -1.5966432360839986 0.960671870278868 -1.9823452199417728
Ni 5.124379292287078 8.940836916405559 8.656729652630906 -1.0263177904134517 0.407427291350008 -0.022836281168225187
Ni 7.671822934542742 3.684601236633292 0.10503230899322115 0.16417933502580756 0.8577547244976518 -0.19698712558444784
Ni 1.956303182457919 3.1636403200417496 9.2841947119996 -0.05985810980821304 -1.1577163314638124 -0.41366838716371335
Ni 1.5957223494273598 1.4136520837874027 10.972915561493798 1.002892983731608 1.3525887246981028 1.8491132252270994
Ni 2.7192036937951576 5.23365096212286 10.4717460138477 0.38383947672773894 0.06944626771728041 -2.054315796742804
Ni 6.25129122667757 2.730675881935567 1.6292517558911066 -1.8511289701055476 -0.6874204256140419 -1.9751307044712048
Ni 4.255278042505339 0.9733561428101387 6.4258870481955 -1.1049696358894001 -2.642333774597107 -1.1032999614964611
Ni 4.968379666416363 6.247860636654876 11.06847685985985 -0.3839983709031064 -0.7557171531079114 -0.27637019279946595
Ni 1.5957131274111698 2.743559038553053 0.8950335593081301 -0.08054366318202258 0.21012057764261233 -0.05217745333450369
Ni 2.5780791800389773 0.6437354625327815 9.064956954508926 0.7830014427451613 -0.7518342731137374 -0.8589685423000948
Ni 4.566391980692525 7.65731670307581 6.616024733598504 -0.6441266479224133 0.0022885389238605745 -0.03866090690530761
Ni 6.287736634660608 6.317376194695395 5.391247841197689 0.656374869162147 -0.10657402580751323 0.3964990744732784
Ni 4.392658417688364 7.530753752883703 12.960819826830127 -0.4740265765367965 0.45496827435376486 0.8848317832201018
Ni 7.545204652253496 8.932020668927882 9.171586516706261 0.9664213711681356 -0.5993051207323484 1.325400080098453
Ni 4.008884213939854 3.2396666215124386 10.798611155687473 -0.250289179441698 -1.2878372913533305 0.8325609988408436
P 5.5883389268079835 4.320828133584143 11.96839993215194 0.3918680034591703 -0.45636798291476893 0.47103689778085334
P 9.106870095891038 3.539096265186843 9.430316636329163 -0.8811219384686825 0.023450774823772516 -0.6501309451349642
P 2.589293151726066 1.9446096659289482 7.299584550846355 -1.9934860670499408 0.46441193626516786 -0.8910533386497815
P 1.7908786560409837 8.500411867201635 12.339859977681886 0.9601411945863788 -0.004828017516262653 -0.09089183918556605
P 6.539184128098236 1.3859583691687127 8.244061949957382 -0.2827010201135002 -0.08151116930161446 -1.572224440920002
P 6.663211023838081 7.793046337360817 0.1369792174787573 -0.2347661441054344 0.49919407694135964 0.5810441176396316
P 2.405904137770933 4.11427341495963 2.9110548298062713 -1.946870424073931 -2.2774312439831874 -0.01573566556770193
P 1.495626585700667 5.679895103542699 6.7348956000864995 -0.2718982730710414 -0.9689271683091248 -0.7495377637700767
Ni 7.083651963958189 6.031336918528929 12.303565810764367 -0.865011148949749 0.06499594525541064 0.2513834409471412
Ni 8.301714306371036 1.3724942255312544 6.62402852144984 1.2350540861140278 -0.07204693856492109 0.44487386623224023
Ni 0.5733991450513474 5.431915088192527 8.683225427346509 0.16927500438116008 0.38949410391035505 0.47343779391286206
Ni 4.011530932586396 6.270141027770012 8.571291361436662 -0.3678986371277664 1.0039594773229097 0.9604985779257973
Ni 7.788426107249607 6.145717585333993 0.958380510719133 0.08305100298490858 -1.7145954218214663 1.921675927086174
Ni 0.4884689869491751 5.02304777839092 4.959089407306517 2.2447576650095664 -1.3527985267160638 0.8710712391008997
Ni 3.38353007407706 0.3976911483808986 3.509460393958531 -0.10347044718152504 -0.14882702093945335 0.673702304697001
Ni 3.5431539523104605 2.4972666521656577 2.1146839329089016 1.8819852933647716 -0.7496863735327992 0.49270384123132566
Ni 6.634419889292777 0.47146266689312255 2.4499724643366574 0.05531779873569828 -0.7110915439787366 1.728348766851817
Ni 6.180290924030452 8.273485714813324 11.470603798028156 0.5921564255027093 0.8912356298639167 -0.13030710775839494
Ni 6.047696775250059 2.232115242669632 12.245014307772184 -1.1436822219682496 0.6514990291270845 0.42485525701846827
Ni 0.06448587041047284 3.956309499640437 2.6921545981081514 0.3774297165466532 0.8735724082561989 -0.34609593943037814
Ni 9.119338261779971 7.476021086795816 13.006063038258462 -0.18742210760383204 -0.14713369239743046 -1.1176971107583977
Ni 4.277364771280485 5.028193663424962 3.0295079389608572 1.5253460312009086 -0.02356878845887554 -0.9909538090918611
Ni 0.735210485525025 4.698432808501516 0.22545155199952382 -1.1991298614135928 2.094563331408941 0.09388871703036089
Ni 7.226233556272396 2.7648895620006155 3.5383179270204037 1.1536375334087485 0.24812585324179207 2.6693216160398614
Ni 3.4773825328430963 3.4581454070706727 5.49465061993013 -2.3628769724525176 -2.312338083162701 0.4973027734559178
Ni 6.782359473013397 8.875950810492439 6.842105227102189 -0.9845805585756657 -1.1878506889553477 -0.9906092812682487
Ni 6.901932134933453 2.3161462541932747 10.156151097993774 0.3063726526988272 0.00633956906478263 -0.13564523214185673
Ni 4.252382329421668 0.557133352895355 11.841564932482223 -0.4090733115938633 -0.35966442214343214 -0.9935189987158761
Ni 3.7335609205862137 2.5140691656639107 13.144140597865453 0.769326773471546 2.342997974140404 -0.4074653436767951
Ni 9.033047856289768 1.463460193229808 9.089009817135787 0.868084388558434 0.550149227832988 -0.14567613401529747
Ni 8.680231960891222 1.7892648032077267 1.7203320765904166 -1.8865942528916928 1.817007088721174 0.31207381684866253
Ni 0.5960687052497033 3.327349551447337 7.05147634947114 0.8659254332339023 0.2159130159546733 0.3284160056521118
P 3.758718580752643 4.108472766776095 8.74488106098826 -0.47608500172772206 4.491721850752149 1.1496875476220652
P 0.6359078151906756 8.763460657006332 8.42770641376098 -0.97868681879905 0.3959491155070794 0.23551973444200727
P 9.189563915067124 2.4809436835092873 5.026049544660777 -0.5946483386866275 1.7486522542958594 0.3220268142963164
P 5.073685869290428 0.8402538609376742 1.0882458649088935 -1.5664250606294055 1.0333500146698846 -0.9223238666282889
P 7.735620842545439 6.988185652358896 10.498673378920998 1.2162770626168407 -0.45134096201382273 -0.46054139756616813
P 4.033792879669152 7.947837879110636 10.230426138589975 -0.3204993219081964 0.9826733142506239 0.3359773629391375
P 0.4078012447300393 6.414161254609865 2.0056797015426304 0.12986744911781503 -0.7053222455951271 0.3028201594608785
P 6.463582039372288 4.708549360261989 2.597808761475949 1.5512131287756574 -0.89604899209216 1.5545964434255934
