# total energy = -340866.32183311455 ev
CRYSTAL
PRIMVEC
9.31544623461970 0.00000000000000 0.00000000000000
0.00000000000000 9.31544623461970 0.00000000000000
0.00000000000000 0.00000000000000 13.63409718410187
PRIMCOORD
 96 1
Ni 7.461970444738708 6.613724550995366 8.728753743853925 -0.6032381372381675 -0.4582261191694302 0.2455519218670287
Ni 2.0050752560028178 0.19062476880052434 7.100924246705304 -0.14564142412262013 -0.04584508335857266 1.2002984278003972
Ni 7.328172691967556 9.145839802718681 4.502347013019929 -0.3961797434606467 0.14671305992024408 -0.6648499965126937
Ni 6.461743047377643 5.42321985097444 6.316431403189297 1.8547094883679542 -3.666820682449407 1.4574010306195029
Ni 8.176036652419551 0.8067297449739216 1.843902201688214 1.204018556964462 2.370984946271633 -0.3163179368369972
Ni 5.479680769970886 5.263636943314298 9.862564638725145 0.4206594737695658 1.0907452647599023 -1.3531523105110568
Ni 6.495064398186138 0.0600706543719821 9.17997346042975 -1.6530339561689016 -1.529213998796747 -0.11925779192276881
Ni 1.8095626726176648 1.6719269560407808 1.5656032485420615 -0.6733914583248016 0.4341130281713104 1.133337645509132
Ni 7.385891196191609 8.264086249244235 6.750132491772261 0.4320124368885398 -0.1686823651024837 0.7358985757200874
Ni 7.438961292796583 4.494339455526224 13.387005926401708 -0.36286801668239443 -0.81177542955406 0.6962010000201494
Ni 7.111094850790492 2.3398723899299383 3.206043996662039 0.7789678961057359 0.0696378149027962 1.6661782068603435
Ni 7.342388062762569 3.096137568581562 6.431708185963958 -0.06619382221825373 0.5000330279028872 0.15850671012106252
Ni 4.0146219261482345 3.6662801335474904 10.525086619877174 -0.03665107556413043 -0.5263217863960871 0.24910235822244842
Ni 0.08893456420707344 3.603018938875841 8.045275735086914 -0.16491492764025145 -1.8694095135822901 0.8597177617612936
Ni 0.8523381692284342 0.05694811682906694 5.046115686901426 -0.11123903538335037 -1.3602755518193994 -0.3442737986199748
Ni 8.679899818167577 4.189482165462258 4.595631890569906 -0.8968794584132554 0.18198628130024144 0.42008483221301846
Ni 4.775889499371891 4.938444034347636 0.9185765804833641 0.8790172334208539 0.7038811422732264 -0.08019605003461672
Ni 2.696188204418318 8.933037751315478 2.861060422391309 0.365382555574132 -0.7183117158762596 0.06569914197002233
Ni 0.03808433841497626 4.716913409920233 12.197744838439192 0.9516907498261803 -0.18857704714388168 -1.5542202910330973
Ni 5.9889655253668135 5.7692886747193635 12.236724391227302 -0.49961110987412016 0.17117350695545358 -0.15572837604497694
Ni 4.7086599246486855 2.3593230414502453 3.837248379468226 -0.08798366439983557 1.8653440852636651 -0.0006826278893214051
Ni 4.569803884628717 3.8337625395262247 6.039441270224468 0.24501790374042964 -0.6878857952862347 -1.1468464786288444
Ni 0.02102216728250787 6.034415587037108 0.3931919395402409 0.8439275888065724 -0.606034469036382 0.4517276559292801
Ni 9.066528094364328 8.500978044340693 9.138799188533314 -0.5107871810955977 0.6108555445741093 -1.5871412101308344
P 4.7487908665785135 5.193007230753491 7.579672038141117 -1.2656640976904008 0.6451782291153793 2.693287382826839
P 1.5699041900204742 5.527990673603219 10.795382673252687 0.39991324236114995 0.3822258523837159 -0.2758387457760282
P 7.583248237910583 4.817781060620368 10.372957000665979 -0.14702364918212743 0.8647249851678979 -0.09454846210154684
P 0.35297436396139964 8.607835526902686 3.107428820836238 -0.08187060952356222 1.387781727659468 0.11454753093129305
P 4.693196284072196 0.3345102181863037 4.116570168599498 -1.2084272275551187 -1.3375194890698063 0.9075271679350886
P 5.219956816408782 3.4402222023007063 12.25933018435198 1.8171045335309868 0.6757602156672943 0.8349760360402394
P 8.438508662590129 1.5348315353394608 5.356400155880973 -1.2823109622184625 -0.0007067962590374924 -0.5462025844804141
P 2.260048332038411 2.4344800608304347 7.491936371851028 -1.5408053031787723 1.3330198014272396 0.8007438543302468
Ni 3.270327095774195 4.529048807808151 12.869592512712384 0.4571130886109095 0.9270325849578679 -1.7304071920427424
Ni 8.658846909912839 6.880770445215977 10.762920206577416 -1.5339584554602679 -2.622163727407136 -1.096307332228712
Ni 0.5174702379107224 6.05240371351494 8.627424978570335 -0.04756000916715035 0.5029090638991016 0.13278745097808745
Ni 2.195427082231721 6.900481929227936 13.321372087600642 0.4135290333723717 -0.12600050996324108 -0.013959290393569506
Ni 0.37772829896375176 1.8682499832392803 3.567607201955681 -0.3165043418161904 0.132120763928366 -2.0299653929228976
Ni 3.66087717479185 1.5899510300931274 6.008969514387267 -0.808248133127092 0.7480881758077439 -1.0832008767537409
Ni 5.8216135356339045 0.591193610131441 2.4071681043206707 -0.9228221464209462 -0.5942089371563638 0.5886707809469539
Ni 2.9402715239274557 6.506839122094982 8.18773871584858 1.0673919347459424 -0.017979210186240005 0.15474287220325608
Ni 1.6669990850377912 4.787897109433997 6.853642002994982 0.9855683764102315 -0.002996106513846453 -0.7596280581265434
Ni 0.7337655816128318 4.186743424299915 2.673714690628691 0.4871448590863094 -1.1560345728860153 -2.2276148346816926
Ni 3.5285885242938244 2.145906170602434 12.445395042271667 -1.4807402195660755 0.41499199107114343 1.4254414469937708
Ni 7.131896241999709 2.2576170005983727 12.055936733540497 0.375597805544237 0.8487998292972091 0.5894459685500816
Ni 8.99300127805696 7.083931009874201 4.717274849230093 -0.5513597032013214 -0.19321737412937048 1.2023463114683617
Ni 3.952329537874149 6.949658169350397 11.620845780394875 -0.5265179615672932 -0.5906214769154214 0.10158685700556698
Ni 1.1854277818798495 1.2386376101767809 9.287110406375653 1.5110440127559397 0.7648088309965344 -2.13123574712931
Ni 3.8454906862044176 1.4297439875422477 8.506081045730935 0.7191987464669033 -0.2967886085548179 0.6502363603645769
Ni 8.903172431021368 3.106747861724105 10.431570719263163 -2.4704799537451776 0.17831294621371227 -1.1385811532962584
Ni 7.047265413904888 9.245133143022777 12.030004394602647 1.0689253406713333 -1.5577180197737108 -3.4302054009503764
Ni 0.342482376984713 7.852744094463493 12.264047526272423 1.1785826333898606 1.9386950873519901 1.4195729040281357
Ni 5.378086514472579 6.91471593091521 3.176540115677788 0.3437179261165048 0.1762234106745352 -0.2663151225563091
Ni 3.673192194576259 3.2185984234119993 1.7890528548723297 -2.5987756875004986 -0.3116997213386955 -0.05471564637532512
Ni 1.5818372765135358 5.2565292579167915 4.532300830052279 1.1489067035919827 0.556147611508268 0.06911330985789388
Ni 2.1716633791530318 7.310296350843289 6.081393381872792 -0.690389535544695 -0.19591060469081745 -0.7221339178358273
Ni 7.568595041147441 7.409123918840864 13.520075211285462 -1.3196204973021983 -0.16759813089936942 0.06384280548757391
P 8.076277539808936 1.236849044519741 9.67667770582655 0.6417972284582881 0.9222169087367796 0.9243653225383499
P 8.770669525262342 0.6389082567560405 13.454208486331137 -1.0286870619765767 0.20046685660293218 -2.7761111002922902
P 3.8757286243437448 8.519720721955087 7.794381892911829 -2.4472448944766367 1.7263597614462463 -0.930837817636571
P 5.960674515468742 7.535394791138641 10.783848287854008 0.25095355249857426 0.40764300690523986 -0.20625440981898668
P 2.573010060235838 3.072429758179655 3.9753070172994307 -0.6793034529338623 0.16274080280706812 -0.06738218609940008
P 3.139333292288297 6.881897614197758 3.9622188154861977 -1.241472330935546 0.5319345045971742 -0.998637550889364
P 1.7009632016292848 4.2816026122459325 0.49484581389378324 -1.3100673063961243 0.6623100036996594 1.5459652501131569
P 6.6279492372365105 6.982401962498806 5.210174666427233 -0.35029300823086124 3.9957948745978342 -3.466614021486398
Ni 7.673524226360437 8.090576749619123 2.3044625160990044 -1.554475344466697 -3.0536763418411215 0.4595895751758601
Ni 8.127242345588437 1.087000778065883 7.568900587780518 0.5422711106364919 0.5001782952314999 -0.7208663639773134
Ni 0.22673702726969172 2.676607136652185 13.598430223322223 -0.3723592440022813 0.10484110227680656 -0.31595643973252036
Ni 0.5905704067853162 6.6169290644642285 2.5665097419260348 0.1749748829794148 -0.8483303458599583 0.06779639081868324
Ni 0.22521581491659493 0.8583019178411259 11.197547250505746 -1.1249134260011788 -0.845172774067583 3.532240915457588
Ni 4.155145431025547 8.301320087427506 0.5855559021333138 -0.2926550460024186 -0.7662887579761706 1.2857413280562502
Ni 2.1346717425691533 0.26320513578104093 13.4421701352968 -0.17305478313856645 -0.6883730193352983 -0.783572998977915
Ni 1.62030075358602 2.9272298993448747 11.020127126595085 2.2738219293653747 0.3341585645628439 1.099089265849223
Ni 0.2563741191336075 8.424088351980245 0.8858439658703113 1.8612825135997815 -1.0502311066959396 1.0947926953563982
Ni 4.031399044629112 4.706237908654777 3.3926538081803543 0.5912578249478397 1.4821988063894733 1.7703549360802737
Ni 4.3757724571783 6.398686792520863 5.511611324672111 0.7560935626107237 -0.4350489097220185 0.9495559628713646
Ni 5.089205214522274 1.5658985481843954 10.816706660989821 1.3660469070855377 0.48867235147442933 -1.6603286900581018
Ni 2.429077102074794 4.340438970005636 9.10536791546048 -0.9728059345382408 -0.37585105920562367 -0.41927339205531666
Ni 7.719989671658947 5.35747143218597 2.1067132940979385 -0.7197605325076443 -0.28724853027486663 0.7372743730216915
Ni 5.824473377595943 2.83558454031385 1.019996637139033 0.13830735235505212 -0.9215399372744129 -1.0359082623153641
Ni 4.358986023251291 0.07386030927883565 12.260284086035735 0.43136631866410874 -1.9902673030023275 -0.11592538511542617
Ni 2.831429851339685 6.221087812044498 1.9322927438412711 0.301269527144307 0.09251446239065357 -0.6461030549224938
Ni 5.447551796267084 7.333994845799066 7.606503317630552 0.7473878073066096 -1.671150206153638 0.4635241343435759
Ni 6.4739649127007475 2.964268113159405 9.079613501543722 0.5340060424142223 -0.45711463127280627 0.10188381942069549
Ni 6.2076735696167 0.46925348873969364 0.2662373134964911 -0.42380136183265726 0.16173755835353437 0.4143628421275767
Ni 1.061513717453067 2.306495146444661 5.627228121230532 2.188390341963431 2.040757598442395 2.1005226343161696
Ni 1.7939872466876106 7.738275892412952 10.124625837721371 0.21732069493547734 -0.27705282068878734 0.6677306604945985
Ni 5.330754732683939 0.05343619363790043 6.1279808595156116 0.7431128340803396 -0.8748178506275256 1.001776867849294
Ni 4.131800923022727 8.589130111072812 9.88932884700244 -0.02177107312850444 0.6146762038717801 0.4386479399271865
P 7.910630276717894 3.1523562859786174 1.3990495925425297 1.2393905087058525 0.6152611298409726 0.17348261470460444
P 0.15286553945549958 8.162929819714059 6.81800296918924 1.5777985925736697 -0.16695664066062857 0.7438219443322222
P 6.518623161449957 4.229547899269173 3.9296874145095617 -1.3536613889369913 1.0384665099608439 0.547532101925115
P 3.898998608777522 1.312127164699626 1.036016409849508 0.9020386340166916 -2.2750696857295463 -0.8830690348927244
P 5.675631179324169 6.754937398886329 0.9050086331944144 1.5460819781966793 1.6296803690446258 -0.028640032334195837
P 8.798606548207456 5.095986859305216 6.679712376749388 -0.0866502903003927 0.1536720077365805 -0.22153653278903782
P 5.552108363634864 2.0815084915028743 7.187541127915131 0.021400320052647016 0.2815566220964119 0.12210734555642197
P 2.397423216123643 0.35661856648761797 11.259923477795004 0.15915719922086782 0.022606424545606227 -1.1301895867984535
