# total energy = -340863.8522119981 ev
CRYSTAL
PRIMVEC
9.32996707037094 0.00000000000000 0.00000000000000

0.00000000000000 9.32996707037094 0.00000000000000

0.00000000000000 0.00000000000000 13.65534989501524

PRIMCOORD
 96 1
Ni 1.7828914378554535 3.0060594785177894 0.4443219648764426 2.0537699515416628 0.5482499539277461 -0.9835724290261254
Ni 3.274883825819518 5.061665860031645 10.397265157448745 -2.0386757762127017 -0.1748077612739312 0.027608762856204064
Ni 3.820379022907296 3.622891605445189 13.004413487845964 -0.3569868753112691 1.4261186755664537 -2.9978828890205853
Ni 0.5978857623674573 5.6442383470988435 9.745468045134611 0.7440543720580025 -0.7060501249000872 0.26929348845834267
Ni 0.8815046387885537 6.785909123551254 5.8719371316174085 1.911068326773657 0.025646754033826793 -1.124823951611166
Ni 2.5629513423847596 0.13054117022548373 1.0236280303981475 -0.4309102049632965 1.6780446192806264 0.22071198000521342
Ni 3.373389620384876 1.0065355303371764 5.844899819430352 -0.9239981690069184 0.7431848249688555 -0.7531784458464578
Ni 2.7345107807696616 7.546478726428067 2.318924182125635 0.5975734827532225 -0.3639982736320957 -0.7003553885081552
Ni 8.766558547919999 4.292372737745985 12.198146638217716 2.414399822922158 -0.9112259569429145 1.1193207624047496
Ni 6.118816462874698 3.2678863503578754 0.5989969614707662 -0.2963049840501801 -0.2987722146437499 0.5560149425851456
Ni 8.174852022883535 9.09808027535804 8.972070670241516 0.8740107813451979 -1.6509701316613372 0.14937492302312338
Ni 7.466922095412836 3.662506646525366 5.71169121155889 0.4698454485759134 -1.4720020683621293 1.3058890066487188
Ni 0.8071886503957291 0.5470607655977296 5.775775957830065 0.0883958122365897 2.5403915911346506 0.22321777714620267
Ni 2.9327912454507548 1.5369441703296538 3.115754702844677 1.330143251210393 -0.7722043521296572 -0.24297747627163319
Ni 5.96034696858671 5.490144607466201 8.814801942742744 1.1710706412835317 0.39894213669713224 -0.7275769432282695
Ni 2.643776848950368 4.193167195634463 5.243872657078982 -0.21341981721917436 0.5218490953367142 0.32947015794823903
Ni 7.886266804878129 2.0302008806044527 13.100601718538426 0.7737063905964804 0.46950400607609466 -1.090934755062889
Ni 5.203136153931484 1.0185058783602254 9.31420523546305 0.9443628487061994 0.09196450342445453 -0.1139626049621005
Ni 4.081384857626549 0.017355605138329056 11.212530760520664 0.13067528973109108 -0.4019104752968368 -0.02120568754333767
Ni 1.727200863148064 8.250872596298816 12.246254748514868 -1.4560188055599956 0.22679161054039007 -0.0869865905938889
Ni 7.625606178948317 0.8363074782834428 6.7906692728586275 0.16147941959614126 1.071170170841452 0.1621841589726497
Ni 6.107909731121819 8.567382406379815 5.97364217196383 -0.6673156844443668 -0.014892343730800157 0.10202420165330173
Ni 3.5269888717515623 2.2770998047930355 10.72420213896432 -2.3208188669402032 0.6070271719669547 -0.37343190824116973
Ni 5.459560974715184 2.083428343949344 2.6968494348383754 -0.879995281063407 0.7659830538102937 0.13926277428978598
P 7.85039308067811 1.808408898372242 8.98493389613347 -0.8923345193550504 1.5426626681024853 -0.15291096120083988
P 0.8109784831057544 8.461123409002958 7.273877608370508 -1.040332616635305 0.3864884843148118 1.6130324760752994
P 5.2083049558058185 3.669550771823419 5.3247401484973595 -0.4764791518423471 -0.2843786649262393 0.25178787547441156
P 6.407159101730769 0.5063214634600488 13.15947008010213 -0.6687148787847387 -0.8974571852935962 0.6106110326634709
P 7.472762654931487 6.679808735618194 7.341444298431397 -0.7330508218586472 -0.2394779477588069 -0.07288820351929383
P 4.913515309557757 3.686951160804703 9.84303617798811 0.2036383123523783 0.32774417639606784 -2.610928263702632
P 6.664488929340839 4.3808861373521175 12.502415531224482 0.040948674498219796 0.24093164948619797 0.2585035969316902
P 5.964508133994566 6.4874061503248805 1.9531521447946745 -0.8849564817234242 0.35834724599390544 0.18769670142145742
Ni 7.162466603060426 1.177488520848736 10.943834233770703 1.2904965833530484 -1.684376475035925 -0.8456438001667307
Ni 0.32816853719682343 8.010560629011458 0.718059472948972 2.0729375256090496 0.7056906846781394 0.9402156593070453
Ni 8.09195526358128 1.1843647067357097 1.656667243491439 -0.20683342225090828 0.416374730351283 -0.654549385917634
Ni 1.9245763210027842 5.584116037932414 12.76594978707721 -0.4932913383036794 -0.228741020957277 0.1762288099911739
Ni 5.877982017419539 7.500528637563283 3.947474636215467 0.3532379497917981 0.7011483167230957 -2.293270010787657
Ni 3.621081591792444 6.64804952698962 4.397705269371721 0.5722324328852725 0.015989947670353107 1.0299741562191165
Ni 8.361460698494609 4.672596894397057 8.030452119257086 -0.031926416394951466 -0.003578975600509965 -1.931567218057957
Ni 8.497939459898477 5.771704360108117 5.200202812217965 -2.5082728562232353 -1.1264005520696667 -0.08977032398661315
Ni 4.897878284392807 5.699051904881707 13.601056498571435 2.2109877676479726 0.7447639965305174 -0.11806300028371926
Ni 2.4907747154897413 0.26341669826497127 8.30578505173487 0.2962237371902834 -0.17574878503096183 0.6645617758483136
Ni 5.584703825871192 1.472128887620283 5.11039161416288 1.0099339497387898 1.3144152989521751 1.2430774706391365
Ni 3.7196340361942126 7.069120280402119 11.911193231489964 0.3696022500824344 -0.9754950513346295 -0.04999304408867519
Ni 3.246082216819399 5.182395636663177 1.3368984758387705 -0.8776182961907982 2.3233909985427537 -0.34142655897916685
Ni 8.487993714775664 8.391046024746432 5.086508763913931 -0.949752652263203 -0.6941070936055982 -0.6321350227781758
Ni 5.784467755350153 3.53682265726699 7.562059771789324 1.312409838486372 0.00544276828212611 -0.7377615970707553
Ni 2.2143557748203104 7.446573436770381 10.056988188713095 0.7811183667898354 1.2496924048524929 -0.07683638953376444
Ni 5.649089930085582 9.195709052998872 1.84695472520188 -0.20072525247064138 -0.4343331146019165 0.10142924838178015
Ni 3.895326650085125 2.4013749689918003 7.897339610048632 -0.3481016570064973 -2.3141594526421567 0.5205887405670518
Ni 1.9615883012112303 3.8639033202787103 2.5618121533796048 -0.18975024151637643 -0.38230221414760607 2.555234055464122
Ni 4.258887485170206 1.3808538176986223 13.280948120109693 1.6998797128778467 -0.8167034629832967 1.078862654389703
Ni 6.0947544772539315 8.226166842935577 8.273653577411737 -0.03954922304753189 -0.6704493449773421 0.9278995609438535
Ni 1.5565837514586631 3.3324963737870386 9.267339876807883 0.13386474320266623 -0.036825653468781736 -0.8423301624124655
Ni 0.4497594698085027 1.3394847427693937 8.196036646594475 -0.4568698622518519 -0.00801849942910232 0.32451307105327987
Ni 5.359739654763037 5.464963025771572 11.11081265822005 1.9262352643220826 0.02500320691255694 1.1632822555873643
P 1.6454516898215186 6.250490291128241 3.6195010953348414 -1.4564440660228724 -1.7775761364190612 -0.31572066957263045
P 0.6369792582765599 4.636275331767493 6.488052717057537 0.2603149391088162 -0.47223914561907054 0.40385114396297545
P 4.4401500895285855 9.313826438791391 4.194800872905574 -0.2578109417400399 -1.1024149877883465 -1.6949627351922036
P 5.2723271912962035 7.562918128779285 10.339367112482389 -0.18369760756439332 0.5368036597640173 -0.996109899371504
P 7.384902353035107 3.083498206959963 2.6753559892103955 0.329196078351246 -0.4723335051050898 -0.7500697250141469
P 1.4104951237541385 2.391438553836269 4.2989503646799285 -0.26570988487214237 0.6325101467294075 0.7315778368575465
P 9.608653404908583 7.4040754358000065 10.871857268175523 -2.2878462686689245 0.3736445384726081 0.5055318462339293
P 2.9297869959858898 7.623385646735155 0.16027670895055016 1.0650296051613528 -2.258438762041085 0.8768963304231091
Ni 7.791707586473137 1.3830370300426547 4.253791457040674 -0.7043796791761997 0.6168127905988087 0.2050529333117178
Ni 7.95053161951785 4.69293622307223 10.200997166710419 -2.2191129678582686 -0.5928387962817144 0.4150339000526723
Ni 8.021495350666184 6.4917072652419705 12.259677772443755 0.4626461026139968 0.19819297296709093 0.9556427924953929
Ni 7.46408578535905 5.395408119682848 0.8902206942235753 -0.9531519077527392 -0.5780552102146367 -0.30810429067795325
Ni 2.953681042195577 8.054616734517957 6.390881107813532 -0.27992422869931144 2.4598823807349897 -0.14458161539953812
Ni 8.573362915407698 9.018290395160754 12.424866709168377 0.08376371278121703 0.06517669380764904 -0.7747242903380335
Ni 5.9853419509356955 7.767869520067143 12.367445425530143 0.6066039683866068 0.9326738424040453 0.5318712554594065
Ni 1.7540058591497945 6.630891717157675 7.935110116597119 -0.18977261011387964 -1.1585478262261724 0.8785292380408418
Ni -0.30210060861038573 3.6182266218040944 0.84946273215133 -0.8387414166199426 -0.39701509487774855 0.6009295437096489
Ni 8.572233989366554 6.590362339283843 2.9612858985272896 0.08223981993752288 1.9179604259078 -0.6327585152947877
Ni 7.441395304928765 7.839850217649236 0.8089622771760733 -1.4969417690266025 0.4733334071245139 0.10009433162044051
Ni 3.4364322093106305 4.536332722240678 8.055441503625703 -0.7369676404145502 0.7150880667326394 -0.8154716474587247
Ni 0.428536593231706 0.6315324233772176 3.4063682557372315 1.554383556083839 0.10289400585276472 -1.35479910208586
Ni 7.4583012056440925 7.136529294015939 10.0930102593929 0.11770767382682953 -0.2519179732943726 -0.4988287231821409
Ni 1.7423620599816219 8.308727723415673 4.294594202955874 0.6307890502732426 0.5717045854062606 -0.12501217790804275
Ni 1.8471282625933285 2.665534332652434 6.982568039918703 -0.8326242479786111 0.8501103205785167 -1.6605233225674112
Ni 5.61528745862221 2.570797844869081 11.45716623464659 0.6695088354409438 1.1237137492661229 2.019428497947316
Ni 4.003908809315248 6.731608713968911 8.609752586798422 0.6141828091751292 1.6380215419204693 0.7759525063181799
Ni 2.1106905083479024 1.1498531577588904 12.504818930796374 -0.3022599160820343 1.5069757562238368 0.14665521009911517
Ni 4.274235281349408 4.598321024863545 3.424925560661506 0.15132613321222324 -0.9481595967444703 -0.1939020589012209
Ni 9.04242702051978 4.395496866116026 3.0278421531315174 0.20002874062424905 -0.42804445337972735 1.6453180755818828
Ni 9.599603336644858 1.8616550216516978 10.946456887573726 -0.40430854321536813 0.4444730312493958 -0.25804568345866524
Ni 6.052760294516797 6.023762756203752 5.6410251063668575 -0.7675164597356846 -0.11142775435538875 2.544534666768747
Ni 6.586490402861734 4.659758859416764 3.935020995887201 0.7456101465808965 0.9620353262852981 -2.803338054329043
P 3.5265037134528887 6.168993026918314 6.577795806351461 1.1160580324930778 -3.071360646494762 -0.6607524294045524
P 4.460899936764175 0.07184914504341373 7.446617287616607 1.2683208185869577 0.345485816650205 0.06480619784210774
P 2.0118861548295146 0.5995922133833698 10.479798981023722 0.004016834468876952 -0.9181501948665736 -1.4343868291125168
P 0.7119352824249426 1.2767407127966686 0.5133002789871266 -2.2777094373452385 -1.160474353824924 0.22533893725426352
P 1.5857678891173521 3.907399627748278 11.252923920872176 -0.6924088799675688 -0.0029169165364788478 1.304977550578043
P 7.92146877143383 8.840535858500479 2.92916841915508 -0.9577935202898085 -1.660261327155276 0.5509925496698898
P 3.9130255980194386 3.2125223245053625 1.3043900708374376 0.6675794796287148 -1.975848813584152 2.911005570311051
P 0.1678974262266426 5.913361253353602 0.5669307969186087 0.120515832699586 -0.8630396270456749 -0.5568379527070734
