# total energy = -340890.45574524975 ev
CRYSTAL
PRIMVEC
9.05141825822083 0.00000000000000 0.00000000000000

0.00000000000000 9.05141825822083 0.00000000000000

0.00000000000000 0.00000000000000 13.24766555228446

PRIMCOORD
 96 1
Ni 6.554340285223217 1.7113335842758528 11.070557289730042 -1.5547262841352385 0.5513319352871795 2.0943442734195994
Ni 4.72273145252956 0.2286397352918869 5.934583327679494 0.5029291185037597 1.1284841740715728 -1.5694278520114713
Ni 2.9576414940549305 1.8140671837296523 4.8232764190011626 0.5414563280446804 -0.7174362552498418 -0.6494102649188558
Ni 3.729999030741512 4.473636416673299 4.964033217096858 -0.3136565879547501 0.2376100413121327 -0.017962755126007774
Ni 3.9493601569761223 2.758320208277652 2.4963766839258255 -1.3091224259843517 0.8633417316671261 -0.1989704745630638
Ni 5.276614901990031 4.747749573136635 2.4657484941609122 0.16523965796952186 -0.18528809197996476 0.20232576418854187
Ni 5.266214822186293 4.869210557371924 11.18042069150012 0.09447698543366309 -0.9710118187522954 -0.10467269501974232
Ni 5.981141108781743 7.789324870516243 12.153898935952649 -1.1608289089508652 1.4615315078481088 -0.30394733108678623
Ni 2.09484218417519 6.623402608027842 0.25640948710900197 -0.9412248172978499 -0.9961407526094392 -0.7002463737341166
Ni 2.6170185147910208 1.907532130686474 0.008006884764478491 0.9637435672256565 -0.13463735970263266 0.4736653365426358
Ni 7.912360801562541 9.053138223585508 6.774339536458841 0.8533979901908529 0.3053346983526161 0.6735593513612336
Ni 8.80581726574625 2.4854742503978873 1.1485435390565681 -0.26673292682001803 0.027729090484152247 1.0507702670288614
Ni 7.230481243742936 0.7323919036444396 4.630469439085285 -2.1739649105667205 -0.3121825745123849 0.037425491836309735
Ni 0.9287388933177081 7.596502503188993 2.44522802338367 -0.3700822750426465 -0.24257895528163387 -0.34636281993851964
Ni 8.04655713156272 3.8827688714094615 3.6832484544261925 -0.43943752570801736 0.31493005535053503 -0.7298204878468075
Ni 7.6090568205848 3.8326240131738625 12.353687274922159 -0.053813703386346036 0.3134845811532601 -0.008435532361862893
Ni 8.37455338208319 7.240655038085321 9.359648216979686 1.8873154473284335 -0.1096953450453143 -2.766011292854127
Ni 6.872198947075118 0.8719158985466895 0.44108648296942604 -1.0787310139078454 -0.13629957789640396 -0.3116765814102439
Ni 1.8958829551360743 6.451335143215796 9.17869859523865 -0.6135847705798142 0.7661383484412354 -0.6023626766117497
Ni 0.25518301990847425 4.922613926250992 1.063126208247268 -0.39573134306931845 0.44370864227954543 0.379158783422618
Ni 6.402901003068018 1.9977204641629196 6.7609325754446585 0.40570696622479163 -0.7942744445558192 0.8953586508933548
Ni 3.588715440091789 4.75428469726048 0.5868251817822465 0.819787244114943 -1.5778839531986244 -2.0707119787126405
Ni 6.349488582770496 5.711951923957425 4.5557798494277595 -0.5447954197202424 -0.35776103447313223 1.0944787636604052
Ni 5.095948589646609 2.9540842866024777 9.246075543927127 1.6108735207507674 -0.2936274372180169 -0.7673225985573235
P 0.4362928517561456 5.696817952302205 12.20707511422852 0.06679391769609787 0.09858560828539796 0.1650843633385802
P 4.300138827745508 6.4125136094662505 12.356905959324429 -0.927550662244867 -0.6896901954848251 0.7975055498986071
P 2.5533598888034814 8.41853422435156 1.2573886562505616 1.1202489306459738 1.4167009817969796 0.992281269654033
P 6.4857938932704755 7.742429471505658 5.6446319992052105 -1.5699078769716834 2.008892117192366 -1.3064662193084273
P 4.603144111914265 1.4521552682617478 12.460038726332055 0.9173094441328331 -1.8430292238165487 -0.03442784266056651
P 4.329438269281363 5.973221117634423 7.762867574374969 -0.16465113245590351 0.6514437504091167 0.7034669375539433
P 4.970242490156357 1.248616021484868 3.6821758613393842 -0.9727360005322536 -1.6495969054628945 1.34612497135063
P 0.2717190562822316 5.6692382802726256 3.272610943136289 0.9411101460968566 0.06349056435447777 0.8593490655679652
Ni 0.5728624636749838 0.0851394522627601 4.318354807384343 1.4151976577785756 0.6773370732361109 0.9543695822099241
Ni 1.9600122548832257 6.554964833096548 4.5856395737659215 -0.49688522630252496 0.3131295118066865 -0.23244006707541903
Ni 6.37077751897449 5.820568945406376 8.901305204727558 -0.9938514423546304 -0.4154828146646329 0.20983852762581928
Ni 8.737850164574567 2.4249383637770054 10.353064020861016 -0.319896655327191 -0.3356842571787509 -1.368910601786578
Ni 2.2347499592198927 5.36268484006987 6.8280723769696365 0.2287667319888899 0.11326686444665654 0.7473734091289064
Ni 0.5856720310711969 0.2820575864404809 8.92919171984273 -1.8083242162351953 -2.019300971230516 0.4080541263007295
Ni 1.4892932381788349 1.1108172269399659 11.161569302285809 -0.3727837331342096 -0.36099651069129446 2.0279378209699077
Ni 4.148844368285574 6.845786908026115 1.585626579643755 1.3281642731071515 1.5816560186465471 -0.16808149829369118
Ni 5.623320434455082 7.952114631412858 7.740200107140418 0.1362926359178685 -0.23876060997680817 0.6732613605048404
Ni 5.534299733959212 2.9973591182314303 4.813380503205319 -0.22531502599486355 0.18255886597425977 -0.7043267144510773
Ni 0.9129622709522479 7.689551084896927 7.065059330359875 0.08848451529565407 -0.8274321622547105 -0.42760788006294104
Ni 5.2835392371074015 4.19700696587973 6.992740307195472 -0.11487303259151184 1.0369585579567497 0.4459318751831094
Ni 1.0482085654931 7.677060127430298 11.47511496324434 -0.4602616615422202 -0.7060699223944292 -1.0572877564324048
Ni 4.4326063368209585 0.3528686432904336 10.141366730631475 1.0288588116677506 0.269758086799587 0.2629256372587859
Ni 8.395932832471726 7.27877056119545 4.605431405357611 -0.17638359040148333 -0.32132156069917567 -0.5604999749396927
Ni 7.620932281596553 6.516441996155988 6.740253704844469 -0.27084823453997225 -1.5808970289933355 1.8905524662084923
Ni 2.5012418213448933 5.4164502656871 2.4128103681903847 -1.1882499812762954 -0.02918150665996265 1.2755034523783257
Ni 2.6891673712884865 5.286562410871063 11.218295446879369 -0.8250842308478242 -0.2647935437054601 0.9612202865831703
Ni 1.6102201887253336 3.6992875679268207 3.7838251008623844 -1.0043592838644897 -0.3233912987440108 -0.446206983221367
Ni 1.7537213768963058 1.2995574045444263 2.5011196271957634 -0.33965455468040856 0.6940736692645014 -0.5641792235634929
Ni 1.0655510832511157 3.572848303541788 8.239517985592318 0.3543280975321833 0.1888020186704942 -1.245937565795751
Ni 3.5605564772811484 2.6841257312095643 7.135523717883037 -0.6852025920271168 0.17372712661524273 -0.21746904758788355
Ni 3.834099394381877 7.0519872718284935 5.915864089174613 1.3362977008475632 -1.103835265174641 -0.03366602479387751
Ni 0.9023757319283569 0.2227689852825711 0.2969833754712575 -1.3525545290260577 -0.3924048497992468 -0.374319967273078
P 0.09963982462619503 5.575737127641987 7.851043777529072 1.5529771626546158 0.7020415179613264 1.6017900703922607
P 8.801020013965587 1.9250375739766634 7.959542225396275 -1.930780460490604 -0.9655736784558597 -0.7596997919047432
P 1.8835639746200725 3.3619321507248334 10.271631124455201 -0.758661580448216 -0.5713965672475385 0.08604453839559374
P 4.216395104208368 6.23094215527742 3.7856399102624274 -0.6491963491358368 -0.02372151198665592 -0.2959404016219097
P 6.960785179485192 3.7679063712271956 10.23733258450716 -0.6871558590987457 1.0682848788738568 0.1160112599610131
P 6.40749912364269 7.8384559698849845 9.95992652201023 -1.3403032224625306 -0.3025270537004919 -0.3397016058682601
P 2.4467613336697904 8.634202371856906 5.649056332545565 -0.7648196296298119 0.3155594614044178 -0.7112573801326395
P 7.063799372911067 4.192363588212787 1.2667360560880894 1.028999708120989 -0.7661915702766741 1.471421513268311
Ni 5.487793545942154 3.167543888005028 0.16605641781669223 -0.8090166358620002 -0.07355103391427333 0.04067613756312349
Ni 1.4725752682941506 1.1323505514422203 6.736901964590923 -0.17300850328166334 1.1435081582842306 0.21662032643434306
Ni 7.094356961612039 0.6742790817437148 9.125389361111507 -0.40513463866108934 0.33473603433286864 -1.9646184920859713
Ni 2.412746103119361 1.5082016513294065 9.142717396599995 2.283119552617216 2.5487247935906945 -1.6669281976524903
Ni 6.443759105969732 2.3184846313385794 2.6360337346793505 1.2767229266077238 0.09450115380337917 -1.6927492724806523
Ni 4.16816009526658 6.929358654612629 10.162390460274764 0.6856846738698579 0.3003228469603215 -0.9401272133582971
Ni 8.211799826860391 7.379883956745968 -0.14730097363799466 0.7423756988039989 0.262097999151168 1.7772069260051007
Ni 7.466967653692664 3.7459385786391457 8.115679193729141 1.334825744287727 0.0049797126027785205 -0.03344182459821338
Ni 3.138787531576418 8.336130110745623 12.211313893490566 1.6718174074239915 1.3246575455054734 0.23241307049222554
Ni 9.294901610493966 4.7838737841868655 10.162376883147083 -0.8228188318524151 1.0775513917774475 -0.1449971056704019
Ni 8.731396503216809 2.482098071314516 5.621103742075678 0.11864689781164726 0.2154820990648418 0.36610426423150494
Ni 3.6948161672105058 2.7317542951149294 11.003670022779932 0.743243703231249 0.3746012459589226 1.1123602719265164
Ni 0.8748494632676564 3.43093111360028 12.224389572589327 1.2928005488958767 0.3607286017418884 1.0439442452459633
Ni 3.2399914413114783 8.653011219404483 7.831489998242724 -0.4359945614647394 -0.8375080584334738 0.08742779189636556
Ni 5.76390706588384 7.820850960991801 3.4714452626007386 -0.7253513963318604 1.1957293203724761 0.3893796898196778
Ni 3.211063107932241 8.566995589835368 3.4422073707103715 0.24605123010095042 -0.36938139232087996 1.0628709069471372
Ni 3.2883984272038944 4.471092968087703 8.947367873240367 0.6452288798476564 0.15212008986842832 0.2985899234296148
Ni 7.563962653846578 6.204321933603973 11.140823451189059 -0.8735258712889794 -1.4514527834558681 1.2777035453534382
Ni 7.867529125959487 8.807165927095905 2.432721678505668 0.3552524091186656 0.446550996824347 -0.39753137239253467
Ni 4.558529670354109 0.5271772393117099 1.6728885895339967 0.1495034781811877 -0.7024081572721258 -1.6557410706874194
Ni 6.302774212128994 5.8608387061085745 0.23231642146793385 -1.169676332039166 -0.3191417794390375 -0.6021428472914597
Ni 7.997543700633881 -0.28679509885934595 11.1385977073912 0.7903059468263743 1.2952338409277175 0.8283816706521733
Ni 0.14660763498441218 5.144735735114096 5.6267735505953125 -0.3106959626645294 -1.3695940010068477 -0.6994647583730856
Ni 7.354675756351358 6.306765887667242 2.4372256643284183 1.0475977828381506 -0.8193100473682083 -0.7278209409182755
P 8.597037247684456 1.717307520455545 3.331986437911358 0.8455275863038405 0.5857901169650491 -0.5369661534838106
P 1.887193593420158 3.366548374136414 1.4204544854100263 0.6911019882306871 0.2514245785977218 0.3214580862770399
P 4.7578690589682955 1.1642024929821253 8.04692371401011 0.9768091421603627 -0.4786615042056466 0.012608947013262158
P 8.492991192554816 1.5671444883023704 12.459138110195873 0.38480518307511796 -0.26567568920009726 -1.60670730518822
P 6.255896915955317 7.8598354202735194 1.1940187705117078 0.5328770710161016 0.6268912578807333 0.21489254510995892
P 1.8313734958138517 3.3964723635456004 5.917454423396994 -0.09949500747354477 -0.3178287170545688 0.1261635179036666
P 7.077421757684457 4.114738623550604 5.900709299256949 1.254182836523679 -0.022379139026148555 -0.8662560771004436
P 2.403739941757552 8.509003151800082 9.873537974000806 -0.015795315161043766 -0.9785322954990566 1.2253245175310896
