# total energy = -340895.1169891822 ev
CRYSTAL
PRIMVEC
9.02323236540209 0.00000000000000 0.00000000000000

0.00000000000000 9.02323236540209 0.00000000000000

0.00000000000000 0.00000000000000 13.20641264907771

PRIMCOORD
 96 1
Ni 6.197968075247632 1.9450028511988866 11.476425461572008 0.8921622554432442 0.2480605472214954 -0.019023335180038205
Ni 4.610113784060358 0.39304207601348695 5.9311583129703935 0.45239537142026603 -1.2674636127929848 -0.10872115405750309
Ni 2.8918106226553557 1.5933223699969816 4.84658202520637 -0.4582675139303269 -0.2677641962980098 -0.7254727524010731
Ni 3.2088870077595235 4.158672445894546 4.73428789849546 0.6087099589860162 -0.6011192911229518 0.613510465698453
Ni 4.928083469168091 4.452983215756317 2.5875192554810145 0.8688492917489166 0.7835804551770826 -0.02991427106092913
Ni 7.210446931814747 6.048498231216597 2.69862502249021 0.5835995370716336 0.5241409766946843 -1.316942693359719
Ni 5.174282364090322 4.57732335766683 11.631799206535701 -0.4119244078894132 -0.22591280747986253 0.21510157579697145
Ni 5.488372059283578 7.805339618027971 12.408019160947541 -0.12212148662380903 0.96762978965394 0.9328322223587805
Ni 1.9200536137255508 6.52604378059773 0.43523019890917664 -0.29411568970834506 -0.2540010810756464 -0.78031181172814
Ni 2.4940124008653064 1.5669835547403208 0.28504842184499746 0.6976739850212501 -0.0003761523924961264 0.7640614113075486
Ni 0.6126449935568188 0.12041413351100194 4.652328976653124 0.8814620954169207 -0.35441114416429287 0.6320866860387437
Ni 8.620263825321592 2.5538274081747976 1.3310747540005818 0.18501658348613298 -0.9072428039254504 0.9149244888404244
Ni 6.838644642451708 0.7229549114719287 4.619761424098872 -0.7852408735986413 -0.5962581063759086 0.5143157630741465
Ni 1.0399636223334021 7.3017439968256745 2.671446144300903 -1.5762543880150015 1.1857938064263192 0.0002833355683737056
Ni 7.970879838890835 3.92220059545559 3.82308489960537 -2.228969548937374 -0.8359250302170701 -0.19147905128202508
Ni 7.48297561876128 3.972757766364487 12.620800514827275 0.28409250114438817 -0.7423895827610699 -0.3112731753242381
Ni 7.821256599909694 8.886629644566755 6.657326397485452 0.8840049164434324 -0.37586777137617206 1.0190168858766644
Ni 6.8638826233605394 0.8109052596008085 0.4121659146756888 -0.5475644978249473 -0.15675733153012358 -0.2556327031417985
Ni 1.823098982025372 6.5003726845356535 9.167323454475177 0.35063805027510575 -0.47125492732893026 -0.8159912674076205
Ni 8.979974983323231 4.963653051128269 1.2796721062196226 0.4462226669506509 0.22688854112957055 -0.15083171007430796
Ni 6.440720095408628 2.0072902241748136 6.913742298408067 -0.23476922942922793 0.3434991252374794 0.09679380649229781
Ni 3.398374887303847 4.421582367146115 0.6460129068213383 0.293753678383236 0.3444213799414327 -1.5933586517954559
Ni 6.142240592196883 5.644185235663167 4.638052418414314 -0.8068371117121783 -0.9320758038087303 1.1147994774956285
Ni 5.28541249382689 2.7250342189592733 9.410704393931614 -0.15080188527763705 0.9530238668153072 -0.525723747800772
P 0.12301101978399509 5.645213884152122 12.249224708596453 0.7847181683259519 -0.015062550760077285 1.1868317607725303
P 3.866391903313607 6.175671668087916 12.561411404085142 0.12400739079261225 0.08240025677478713 0.6473739512151173
P 2.413443959129532 8.408299073970367 1.4498268081110093 0.6402283413092715 1.0392357840267006 -1.040432118327647
P 6.3391545919728705 7.7322785056150956 5.640591282214476 0.2678454431579064 -0.4296249104929697 0.4994457879408496
P 4.586319520329006 1.1567332722945016 12.673653196048367 -0.22648487793324865 -1.0260797062607168 -0.540640002790972
P 4.0302177100282135 6.050347993850244 8.135163123486056 -0.13036367202794322 0.4760225239209028 0.9047897143992676
P 4.852062736541381 1.041136642540105 3.6682525485832316 -0.713123743917417 0.19143739941081225 1.5962747970009863
P 0.28209060627763416 5.513366412918709 3.3992248757920884 0.16911559598516035 -0.0718402218707537 1.855042960447973
Ni 1.4644706119068418 1.0958264538695404 2.5826061054614007 -0.19421907592100746 0.07949311043032116 -0.5818013075206303
Ni 1.886072120660602 6.248245525953393 5.026136228246391 1.1468765605358313 1.243699934714484 -1.4257404662914284
Ni 5.8172147393842115 5.446964445986963 9.423607616205345 -0.09027194621338003 0.743751496105603 -1.2922475046058841
Ni 8.511822618828083 2.3245831668556036 10.227481973151823 0.4801563435836183 0.2006794868343705 0.19216322183324325
Ni 2.374400432711042 5.035405794849052 7.198458665302243 0.2709518499973721 0.10126444066914173 -0.3450057916899929
Ni 0.27857335030399716 -0.0830624631598721 9.205859875235076 0.12860812278941722 0.2639083128870294 -0.12156047191401646
Ni 1.438321284529725 1.0836992295787038 11.317011113157841 0.03191793175451923 0.9535779395465641 -0.4272522964957351
Ni 4.166270007541038 6.768714591667493 1.8330633375196956 -0.2299244997424169 0.603950847034476 -1.0911458426324305
Ni 5.655680833688856 7.672662009417508 7.9724868765740196 -0.2469727134739553 0.58139687299336 0.4101768290706871
Ni 5.399890242768738 3.1340753882689523 4.498038019572542 0.040860742770103826 -0.4547039649487846 1.7248793202459776
Ni 0.7865741135440815 7.364644949602031 6.854168211402567 -0.15426798944936657 0.11174451426485917 0.7155477799778773
Ni 5.210664036962833 4.533262914056596 6.952608067149079 -0.5298200293573327 -0.14167858282013018 0.3018691084015188
Ni 7.879402309232724 7.147527932573673 8.911780100121701 -0.19144074184492194 -0.3516934881228137 0.4941225759557231
Ni 4.393249417538059 0.37776845059897857 10.412899472578887 0.7132114185352169 -0.19375139225596955 -0.17543691021749785
Ni 8.45540034688567 7.231146226846875 4.751389630785954 -1.162193650508876 -1.2904546743715195 -0.48340776064138036
Ni 7.267103807798501 6.010293865407518 6.75712695667174 0.19785410157043345 0.14572524208567805 0.5474228300407604
Ni 2.385688496392468 5.249337610854593 2.6055720364621724 -0.9079997366961329 -0.3520038202743809 0.46308987501963467
Ni 2.2324740109323438 5.1914806449670605 11.32967612209729 -0.34867732700430915 0.47396075629586765 1.4166089363038052
Ni 1.1137014771732217 3.242119572538654 3.8752238431468444 0.9001589004954755 -0.5150097038173775 -0.23713875810266904
Ni 3.519872711021195 2.5530423869595427 2.641599096302964 0.40950294293211414 -0.06774548297608979 0.09649015920894996
Ni 1.2162866058655746 3.135789802417211 8.301510923645074 -1.6016340044303705 0.4454564782085877 -0.7782325606016081
Ni 3.891954720587372 2.5232927898710837 6.942663562765945 -0.014251624823007713 0.4880689135624756 -0.12462625532353376
Ni 4.290447731269084 6.850492146539407 6.070539280900546 -0.4362092485787068 -0.11630590838329648 -0.7534800362472766
Ni 0.8060282025106319 7.4050961002685645 11.098867252287 -0.9105345873028448 -0.4345159200366839 1.4946923108707937
P 0.06963950270224661 5.536068865534593 7.95946544995638 1.2686836012430152 0.38121309484848537 0.3934808564722449
P 8.572061718058459 1.5029637211514173 8.023899449910573 -0.6379174337879079 1.0760570666201081 -0.31625237370638437
P 1.7767737070929646 3.1733264490317055 10.35413116022307 0.019003794796012434 -0.01806431370087857 0.8464434132498906
P 3.95471130164598 5.991119496644104 3.9637859664296813 0.6447020608099091 0.6842872793016989 -0.3008311540553077
P 6.998310739048699 3.957472410747912 10.459175119733318 -0.6782223040545416 -0.4530875123912842 -0.43668875931828666
P 6.274918200807345 7.7869953866416095 10.378245748703174 -0.27552841362446095 0.4478285779851901 -1.4517158073092675
P 2.4999316412929766 8.41938862653989 5.653599173983576 -0.4521310620152858 -0.1776100066094167 1.3074306401042257
P 6.851944886949247 4.021356895851426 1.5109592073449518 0.2402065983947153 0.10055018821093652 1.2721538191798027
Ni 5.215410257183801 2.958230636051821 0.4850158834513578 0.11782105947624223 -0.3260675600245933 0.008007186575192662
Ni 1.4315628834926444 0.8902555649680837 6.924967199462977 0.045611112970895644 0.9752952766189978 0.2941578558001902
Ni 6.799258233203566 0.871672217924201 9.186209079803094 0.13815591437885238 -1.698650725566752 0.4342996902608198
Ni 2.98808851192859 1.7332095412624886 9.022277701269884 -0.3685838361202491 -0.7416190231436325 0.6976924969640114
Ni 6.418486850875428 2.117761657949154 2.653207484733144 1.0901881067048516 0.08846806023542182 -1.4552135360498808
Ni 4.085647426411107 6.911435057893805 10.5318897400236 -0.09903709400051976 -0.28757017528034345 -1.3583963325188153
Ni 8.020218873431233 7.237381280407119 0.17672271272568743 -0.007011141210510506 -0.07897837557743173 0.640823037470477
Ni 7.622393581944106 3.9285349045717854 8.275772153340304 -0.09843905540520467 -0.65965611101658 -0.35660275249897294
Ni 2.9979869978266915 8.432941521543489 12.209684904398204 0.10113177174601938 -0.2678534135777064 0.8836025387986912
Ni 9.143602278925934 4.86077015576806 10.155718401552209 -0.46623716239936475 -0.3936186676016898 -0.3625605127443046
Ni 8.594303985824018 2.136836771156616 5.844643561109871 0.621727968512239 1.2920083920118846 -0.42165294803108677
Ni 3.560468233405477 2.874630388243337 11.588230529089046 -0.26360055183862346 -0.5328081654513792 -0.06956273869048665
Ni 0.8349945830303075 3.4480568046738966 12.604887142238498 1.1960617640112305 -0.0668247709340333 -0.6212152905418786
Ni 2.9576531491808287 8.349485645452754 7.92994865226279 1.5220663320083723 -0.3546124615418216 0.013846418964789057
Ni 5.511661022002811 7.699397846897976 3.6398591433183682 -0.1828961947090205 1.2517053215174636 -0.1891113223807969
Ni 3.0200848938745035 8.300624842227394 3.5636976482668534 1.0074422936651874 0.30145618923381634 0.4255386562387381
Ni 3.5074206503654253 4.399773214533799 9.575137464183998 0.4567953002601746 -0.2693958183641618 -1.3150277357251934
Ni 7.12133348903476 6.08799291925305 11.41102687807861 0.7741828160122667 0.1298250259156538 -0.41320738836689475
Ni 0.643041556405436 -0.1355451918542341 0.24593270956763355 0.0756894204135148 0.13265863870970704 0.10572684731586954
Ni 4.616781952773846 0.41188980376549567 1.6545125179180236 -0.5949753830087431 -0.9133448030581303 -1.1029250946555456
Ni 6.0443565675637 5.751814351244343 0.4843887688023897 -0.9240783874255505 -0.01186641242028279 -0.15886203657795223
Ni 7.911579155825822 8.851682665639364 11.494848195079895 -0.3533251101889657 -0.02524231950655653 -0.7549432510563643
Ni 0.3290132191922242 4.806071321206266 5.856463093177257 -1.3945208461555145 -1.2370847433908114 0.08533028593738853
Ni 7.949350406481656 8.858820042435534 2.338617902467186 0.7950385764153534 -0.6275733715494224 0.409382872414482
P 8.503214455157355 1.5167602434287157 3.575477478111859 0.21415643827488276 2.1976969640763375 -0.9612981910089573
P 1.8372293638999628 3.316101054652173 1.6081186664196858 -1.6913377368451064 -0.662203302918466 -0.540815866247204
P 4.927253331791039 0.8669241930567619 8.09174062240362 -0.8564599169456282 0.35426896215947373 0.49465633697200617
P 8.64579054966592 1.5895867518002507 12.488722951168704 -0.9148769234319405 0.4056316329021659 0.2629076395366569
P 6.246738646149397 7.8018566503372995 1.4686582940447714 0.04791276452087878 -0.3515690467298074 -0.33924266395397057
P 1.914296791480347 3.1032430032973832 6.178871306282508 -0.612366581901997 -0.3812670880148724 -0.6785123244911346
P 7.0046811410943315 3.9096583024762275 5.8905357208890345 0.37848129773961914 0.10107237926299367 -0.28831296698363895
P 2.206568310828927 8.547698990688474 9.98316351985326 2.0871462130092637 0.26302153940670187 0.19574733964007576
