# total energy = -381163.62439761154 ev
CRYSTAL
PRIMVEC
9.32639662286743 0.00000000000000 0.00000000000000

0.00000000000000 9.32639662286743 0.00000000000000

0.00000000000000 0.00000000000000 13.65012418419265

PRIMCOORD
 96 1
Ni 1.4075024382554004 1.2377526974811517 3.9794483677735086 3.3284719910646166 -1.0887624300019183 -0.2694842643129101
Ni 9.112402229118386 8.85504032061526 3.176165846324903 1.4092231853626958 1.1886335898679592 -0.5579265577855618
Ni 7.8441801946167695 4.098428937135269 4.484625685430465 0.8640747531784085 0.1811907819821396 0.08062413871097082
Ni 0.23132634032855362 6.439596918432813 8.157710325405096 2.1697521580369536 0.762058521944907 0.6996894727893821
Ni 7.4002530526403145 1.402941830418545 1.3026513594311373 -0.8784857863974161 1.2890871046000316 1.3516024495254335
Ni 0.5709629199040489 3.320980533699118 0.15368129242635847 -1.6932156705941095 -0.06627095531309232 0.3362067053411242
Ni 2.79659457002828 3.8345945095344374 5.456745826085948 0.5779001726940112 0.35696887758914003 2.366239461166847
Ni 8.841871448906385 3.7702796799987404 10.212900216142613 -0.19461554002847772 2.0149414087102397 -0.9524744220697403
Ni 6.53764532372701 4.028210498681925 10.52681179654347 0.04149580525094144 0.20446003692272527 -0.33754110788183156
Ni 9.079974348855101 8.464208353312053 9.2561219975559 1.1541869781543155 -0.29226141010842566 1.2529111689001067
Ni 4.6805079889017875 4.398710921845367 0.9026105083281117 0.6391783027782024 -0.837176643235984 1.0860589150278264
Ni 4.179960294415005 4.230444078097825 12.157087336994131 -0.6782079058768384 -0.18557194176897074 -0.28746013206504045
Ni 8.46864771799578 0.2799606996063667 13.467170901711956 1.0910329712036502 -0.45445482505245605 -2.0932104169254724
Ni 4.553025476586904 8.724321548751524 0.4416766825264901 0.14415661204697755 -0.06372402052152251 2.011131805156162
Ni 5.880796552066684 9.18223828531956 2.682849839602328 -0.4453590333987749 -0.5421857500115371 -1.5247744749681547
Ni 2.5115612434230057 2.424322131549904 1.2482187795149333 0.2977782261615968 0.4074848840608208 0.6792044654621527
Ni 3.793026760804652 5.708687233004656 10.090895096430154 -0.4695991368930622 0.4352350575908956 -0.21838693141646262
Ni 0.8512910795283545 6.507847487246941 10.599703180203445 -1.0817129793543048 0.8431899393095994 -1.4119403271835425
Ni 2.395792684979472 0.04492058823356792 1.1121438582018999 -1.9627369587925423 0.7214800863019123 -1.337493006707245
Ni 8.26777579245346 7.760895474814888 11.695316933435933 -1.7018314372875787 -1.4006285017151492 -1.227692503542634
Ni 5.715318300841066 3.463292016281078 8.033548010206614 -0.010401140728665957 0.5542671066561035 -0.8250796028621339
Ni 5.731686126513215 2.7609490830089305 5.760775156867311 -0.27503656158970696 -0.35983411495207707 -1.3150465047782707
Ni 7.639456467363567 6.019414781676468 10.126535920251305 2.4738069612358813 0.45765739115015375 0.49554233912138523
Ni 2.2395195869951134 3.3936611408005803 10.23610522301149 -1.3204648475803646 1.7069463899166408 -0.5493832962012409
P 1.3077752816102137 8.816540956299228 7.576269199151952 -0.3834988055588686 0.1847900692976237 0.46740392901395633
Ni 3.719031131811581 1.3556290215098168 5.988773838962347 -2.5591848125817536 1.068378724139244 -2.4253555506027134
P 7.515564617660523 6.912799618691251 8.050010032482346 -0.2236337816376987 1.4609437536654386 -0.29573317070711
Ni 0.4346268594919725 8.632120793996608 5.46066384521123 0.7793584466759352 0.013284118703415832 0.7798253590100247
P 0.7481150214965232 3.902527980871157 4.372162401869103 0.45482634945926187 -0.5859209861159587 3.1566245979705894
P 7.119705722700741 0.585376865531575 5.473536137514763 0.18302706385992995 2.551654822753296 0.39313195777325843
P 2.5917122940363733 8.588249425357407 4.735364919853937 -0.5997784608243412 0.8659956243502054 0.13992817578792677
Ni 7.702083219151881 8.193537677154135 1.5661602957978042 -0.2558954698848818 -0.33839060036632046 0.5820633029327653
Ni 2.543420213506234 4.842656716614611 0.5057658132694429 -1.4194425490978586 0.7980153996554902 0.8417699190336212
Ni 1.0944432904849914 2.242009734832415 6.258567833859192 0.3576247660055841 -0.42969330183706 -0.14670586083139253
Ni 5.479901403053933 0.7292766334194997 7.150931430468789 3.4707928354544357 0.11160387492193682 -0.04282969357101656
Ni 3.484724075195381 1.1561280762374713 8.113756884477626 -1.25248128045154 -0.5869309154377117 3.148707657116358
Ni 8.074738039882426 2.7989448219196653 6.566801504135144 -0.4862213188307755 -0.9061529132953814 -0.48310128514455514
Ni 5.833175972076941 7.042259327041746 11.090234324962656 -0.5063584559002828 -0.18943708115133182 -0.18722156155725175
Ni 4.327224093482386 5.848797686037541 6.668153319032233 -2.4271604650219363 -0.9522324812622632 0.5514931434553921
Ni 6.747964888816845 8.803670529274973 9.389319725581263 -0.7478755455763055 -1.908797271351293 -0.7518275882455181
Ni 3.0237016486280126 3.316820960907221 7.862621278207393 -0.5072567993448361 1.6191164774858502 -0.3201594220702744
Ni 0.5736666422187819 2.096667173422279 10.895064558175864 -0.7233749893317799 -2.309535837827216 3.271967628219984
Ni 0.7777645682739209 4.849362395622176 6.631134986463629 0.40365419746082093 -1.8082681661862792 -0.12619745646539554
Ni 2.7017171395081747 3.545289693380534 3.3384656616593156 0.045317235879560665 1.0197781895227211 -2.433473037503525
Ni 7.646385979884597 2.443292021816088 12.60433281080771 2.0226714303646456 0.7043426552906773 0.48386310301124413
Ni 5.733980420026235 -0.22952354790551852 12.281466957228602 0.9246486581067237 0.49656538106926096 -1.502424903628361
Ni 6.97837351174019 7.065976353072673 13.519000484394486 -0.8963212719169401 -0.20632768625908338 -1.4370576910764605
Ni 3.4688692013249223 5.886541612245628 2.554784427512795 -0.23862305595767938 -1.0383094155576893 -0.24959858113257657
Ni 5.079481900257296 9.338520709700314 4.766473115027416 0.18529117730375833 -0.35777337576830637 0.8186428460978546
Ni 1.6605835308135026 1.3226788630484452 12.979916120006093 -1.8865333177467702 -0.3998067986902727 -1.5835990013055306
Ni 1.0653076281489247 1.280588836120574 8.949225732522901 1.6370617491103612 -1.5727556308331236 -1.3356621241460933
Ni 6.14174912318165 4.964524738300074 12.90986369140857 2.122960394494395 -0.07567733622865677 -0.49238888109406803
Ni 8.026753730433303 -0.1014040427168976 7.418391960987759 -0.30848404261487516 0.25073423739891654 -1.928537172982382
Ni 7.293269959600294 8.098035378075606 4.524374786863345 -0.40417484585098135 -0.13952605525350162 -0.2734933854723032
Ni 6.383554602498937 1.999299595064872 3.3429703111178046 -0.7772581125034808 0.7453026426428068 1.0041993612478575
Ni 6.538120969943124 4.342360834830476 2.4707545286390022 0.17319105160611464 -0.29728097481020416 -1.107928204297092
P 7.732095562749019 4.016869600666349 0.5200230754375432 -0.6903553398726499 -0.69429092748163 -0.3257238035319293
Ni 3.4051885667440436 8.475857022408643 2.716701860595037 1.0714689330287934 -1.2205947161555881 1.0452177126417483
P 4.733994872223601 9.2185645992757 9.931516308446463 -1.2006344709835775 -0.6737125891096462 0.27198491924757673
Ni 1.759144887909391 6.0888964348146555 4.932717996036654 0.258449089544671 0.6209013588458855 -0.509709888871019
P 0.34408713593489704 1.2535516129732442 1.4543526579029673 0.31713991851766027 0.03621218825449893 0.12658157927769165
P 2.344973151026454 7.22653959339845 14.450703753635251 0.8787043301661254 -0.7973764805199107 -1.0404267190110081
P 2.561718603232022 5.974424245469942 8.241343852432127 0.4629978295264607 0.012012451079843828 -0.06724540341121968
Ni 2.2279455290696784 5.67876815337146 11.988111687120616 0.6983928654651456 0.18919514034385482 0.7531856449353093
Ni 0.391900772330004 4.180836975676078 2.4190340647942863 -0.008988576651855486 -0.658292397899834 -0.9374170135159856
Ni 5.400347241809807 6.746649866925235 1.8318469457225606 1.183496011531078 0.5804566205672778 -0.14471968363929916
Ni 3.0251472400691424 8.395444832696233 11.986583090751576 0.45640217858681403 0.1446096404239961 1.2008031353509576
Ni 8.755210573609736 5.757417654165331 1.0779971230831285 -0.37142079134841194 1.4122164636630647 0.05708414660750169
Ni 8.024823166379663 1.882439848243195 8.947697136153861 1.0337832455525615 -0.012487333833733332 -0.4499584798439993
Ni 5.899841053504025 1.6517327806352289 9.308087745625787 -1.701933510083082 -0.10257210373697172 1.6525588163046958
Ni 8.038607580250568 4.59489167000131 8.020007015281601 -0.625439098815239 -0.09944538518253196 0.4177448712259321
Ni 3.9015953412317184 1.3663730301561512 12.936181849393892 1.2900692660076427 0.35585841813378066 1.0862489195514453
Ni 4.161801800635132 8.329880266043688 7.594150698958911 -1.613689135822692 -1.6311412698608683 0.6326235323788202
Ni 8.976889689507933 5.054300629992449 12.13277621951288 -0.5058725174027998 0.4345403455167162 0.9425854450908023
Ni 8.381846946753216 6.523478527603935 6.059207717172401 0.02329136642777279 -0.18416143457468928 -0.8800659864003424
Ni 0.3237378716419827 7.6288243754739655 -0.30105887352975036 2.0027078427585248 -1.3237915979607524 1.7321411440147139
Ni 5.91764514422091 7.413981508132853 6.46746978669708 1.6132420209829441 0.7231459040401094 -0.108385110874323
Ni 7.90890538559382 0.4950889546771479 11.012933421087414 0.13321451121317704 2.209617369663008 0.6393590513304409
Ni 0.8566201824281076 8.922302291411583 11.366103534470806 0.47995451198545735 1.0239644596899269 -0.48984400318502735
Ni 6.39212556078538 4.984632448926374 6.148493973054071 0.28303140686972544 -0.9572600163838416 2.14631938093531
Ni 4.106225804520977 7.0972104545974775 4.355085770070978 0.9804279698598727 -0.7811049970533968 1.992826579089071
Ni 2.7328020186906685 8.104284063659847 9.736005195551638 -0.33035744564919883 -0.12434626218926971 -1.3886481894248215
Ni 5.915761212149244 5.7843522869523225 8.734509704172753 -2.2594201521177477 -0.44439744081645405 -0.7050389100267536
Ni 3.1399458532876596 1.2048398446053576 10.750182720747611 -0.026211625398361308 -0.2718612491855189 -0.7355795018177719
Ni 4.432724289495698 6.759660189895406 12.964546218748142 -0.4809819248087071 -1.4811564811678877 0.6577300976384609
Ni 3.7428507482028466 1.4917104713003262 3.236962759140637 0.9854470203410189 -0.5288257837648634 -0.18681404170618796
Ni 4.3709089341936975 3.3935585504402423 9.952264742505058 1.2143183962285733 -0.31302383946675766 -0.4527447843398848
Ni 6.352385785748894 5.926794339083805 4.217056036073682 -0.6884990033902014 0.9678683880273072 -1.7891137047450154
P 8.404603353955522 6.743217753052102 3.3046677337656942 0.47508612814956247 -0.9904776407863909 -0.9001660995843273
Ni 5.687898695441566 2.3766455931817947 11.821757687273564 -1.6106691180494455 -0.8710609546882546 -0.7574984133780502
P 4.744524373752864 2.0744330444180585 1.313502621636007 0.42542835591311895 0.17302290145936655 0.2943810275545898
Ni 8.770235398201093 1.9542064684980078 4.02441185743049 -2.688090412006932 0.2634192890657528 0.3396375853995441
P 0.4789738743472856 3.137036017612611 8.167878895393896 -0.2609471733761764 1.098251086218644 -0.018163558282904203
P 4.669213722868185 4.25528027169608 4.395380465692931 0.7061213444576548 0.6644324493593009 -0.09260805054572438
P 2.170373684127124 3.477365548440209 12.412958887353433 0.015596568886676366 -0.716471063123095 -0.3751092959435927
Ni 1.2949887921535084 6.581563324348181 2.5455568909201878 -1.5615199100183044 0.3477082782228205 0.3983232721662108
