# total energy = -340868.7172193989 ev
CRYSTAL
PRIMVEC
9.24908476882834 0.00000000000000 0.00000000000000

0.00000000000000 9.24908476882834 0.00000000000000

0.00000000000000 0.00000000000000 13.53697047099792

PRIMCOORD
 96 1
Ni 3.674374614827065 8.303587733882466 6.152079533295082 0.20142613519240793 0.4112916594014207 1.206511755699961
Ni 1.8371364374478882 2.7562087312859442 12.293342262077251 -0.38767556264437747 0.4754959619934714 -1.1913687294109352
Ni 8.895196185241113 2.8093169754186027 2.7457711392441984 0.014160864881414322 -1.5930506336367338 0.1608243025106456
Ni 1.446936053702053 5.6025127962702905 8.307530618674134 -0.6726538088278285 0.4413810225876334 0.34013895051599485
Ni 5.382689801094239 1.2235799081848875 8.070430333348343 -0.7067872601764279 -0.0998495625994861 0.6752087140391984
Ni 3.0369739453038775 3.2236019756258525 0.837669249905567 -0.4732051090767657 1.279654755542538 0.35585533280998716
Ni 3.838740098366158 5.965160156806236 7.719714292027152 1.2645299840859576 0.8384771072149624 -0.7777975299467186
Ni 0.956651324822206 4.700107352994243 2.9706200870259076 0.9752600525056881 0.9472856787799492 0.4043591939476455
Ni 4.340401201381004 5.980467391922841 11.194464987672823 0.7337182802393171 0.07388013511891792 1.3774307234424472
Ni 6.733657352337138 1.0873686383587542 9.982716508588334 0.2686270585189373 0.07863590463634844 1.0714031127878645
Ni 5.24215920873067 7.946277095196842 1.2352217310497042 0.4157669215639549 1.0559327850664073 0.4001947781573108
Ni 2.1413110847468664 6.8122375756306015 2.8364288172900864 0.23528345006148513 -0.12604370449635066 -1.136374632563243
Ni 7.958060429056997 1.8162427551950713 7.249020974279629 -0.24206062088431857 0.15801177276251496 -1.5971086057561914
Ni 7.550481015230133 8.890340415793247 8.147821124354195 -0.7928508247354152 -0.28964994062750765 -0.7206113105437139
Ni 5.9494644601338 0.5379841083018158 3.434139814709118 -1.1242084295143542 -0.25043213277746545 0.37123747169301224
Ni 5.239328988823915 2.7775926150258794 4.283165090763427 1.513974556139173 1.0086190875821082 1.1720391758443878
Ni 6.748141418918772 7.08690764285588 2.8752934710423386 0.2685319277019698 1.5613808133372786 0.6084793310324488
Ni 5.523497865997685 7.596892922067068 4.813110819584976 1.5747045270293782 1.3678063129788058 -0.49633475311569364
Ni 2.4876615581073076 1.8164277368883235 9.756839062592144 0.6886638111028398 0.13955433738827577 0.19114249387821275
Ni 0.8199803754883415 4.420442780051158 6.415346404039839 -2.641126641662884 -2.5882827583889747 1.5727618014807108
Ni 2.822348935708208 3.4080657201367783 4.804298291718449 -1.7379497802766906 0.3219298837071359 -1.2575777211378407
Ni 7.890366378411416 6.504714759683761 0.14341353205290125 1.0971578531544652 2.5196101356129255 0.549889032193066
Ni 6.683629053397126 8.505744977352949 12.826644483722859 1.0217399412347823 0.3666171993121815 -0.15000972839364488
Ni 7.383590531578151 4.342537739938066 12.906607445173382 0.8039438493247832 0.08432138505689993 -0.6107622135293546
P 8.413143141710982 8.81607951503722 10.139772440518573 -1.8109608825270942 -0.8571620852189754 0.8614679116831808
P 1.5625311138152476 5.477391178954616 4.987466239468144 1.6662910782891238 1.505732113624723 -3.2501045095983057
P 4.726023288218852 2.7893944470553587 9.520321469600097 2.181139573938289 -1.0560068328374523 -2.093099345268905
P 7.338353258493366 1.4984164589340936 5.047665756811619 0.34691535000787993 1.5480362737095725 -0.13742186442630527
P 5.342918737045052 3.5260562931775863 1.909443931523175 -1.2194438903805964 -1.2501719155920727 0.07920257577309585
P 5.464645940289551 7.833576998583042 7.663400315150437 0.35496213157175643 0.28793887147367186 0.1512762538108943
P 3.155907924980271 5.092629256990391 9.537161278045295 -0.7524140568766073 1.345155408348509 -1.4676175661411885
P 8.058163272360334 4.700477316380747 7.436290891077188 -0.49961213831538465 1.5590372528057665 -1.334298153919031
Ni 9.190389971332706 7.151401510208201 6.953332362158587 -1.3743086328736978 -0.4680978697571874 -0.5780873490041528
Ni 3.003076050015443 7.393820019214988 9.782897433720558 1.8548825236107085 -0.46587952194962995 0.6739095356118007
Ni 7.572096126086634 3.68708285715348 4.992285937485827 -0.43603621333595227 -2.146521469643787 0.6773962086088204
Ni 3.8790291111564503 6.172126924301271 5.152360770649938 -3.05890776544339 -1.5974801301629973 -0.10841442145036166
Ni 5.056724310330171 3.748691010091069 13.118082216532969 -0.3242099379905642 0.22383895566996936 0.561582152260278
Ni 3.578091643489383 8.736111929044366 3.755656495750474 0.67463612936518 0.1559587468882282 -0.38969259307440635
Ni 5.820744948884375 5.36619868314082 4.3381388752725325 0.6970630909101285 -2.145148243445344 -1.0985637323630566
Ni 0.7513540171087703 0.33989738699134403 6.5993273463313775 -0.11609816324786458 -2.463360826201893 2.475448867714679
Ni 8.294375645558516 0.5032075499704338 3.4038037419242513 -0.2116313578601839 -0.7581342471898362 -0.52089701583609
Ni 2.213925648432951 7.355399321526541 12.454662022036949 -0.8049036421348912 -1.8498837848445366 0.1391172498508572
Ni 0.46116213600271333 2.0374901094091635 5.293605392349459 -0.3225888574473735 1.7212913457844035 -1.8946551755229561
Ni 5.447840353457605 7.74184457689936 10.19982304759898 1.1922853276879337 0.6989857618541381 -1.3838641377726166
Ni 9.00407640988926 7.2237293522697446 3.2043222586466595 0.9339532233371013 0.8571129771485948 -2.5864277074581072
Ni 0.4581136376979198 5.394944838272186 13.07392431162831 1.6777594839400396 -1.283397767524738 -0.2942547863893707
Ni 3.6913189379289513 4.821880801662055 2.582474849892103 -0.11895054509499513 -1.0834603010627148 0.9399361803934134
Ni 7.866115278426075 6.691527771698988 9.024827656238273 0.32867105908571137 -0.8969982433793067 0.3209448940860473
Ni 6.301401380630454 3.5233555604561064 10.979213815045494 -1.4843593043759018 0.08799214904026781 -0.6714340774881147
Ni 6.1183989914962185 3.4901143501787164 7.258468914262476 -0.5453777745862736 0.10135982859642545 -0.4276549312507925
Ni 4.371487374932008 1.2997461203814118 0.8566696445279494 2.352019460912724 -0.47921891937101335 -2.7104435828911515
Ni 7.046424399287672 6.338989660699266 11.355000425253133 -0.031705558633397 -0.5680513049243895 -0.7724270096634246
Ni 3.692789542390305 3.7602708640886457 10.939861734531524 -1.1423961561669744 -0.15697921773294254 2.1054774072182836
Ni 7.878102092148806 3.374500791896197 9.02918582493129 -0.6520932110676576 -0.18401051081912181 0.9286567508248522
Ni 9.140380170562018 7.534276618901256 11.851184220330785 -1.2518233351525665 -0.8659642568916377 -0.09502565884828151
Ni 3.866570594115926 1.7875705927410064 2.872815641261227 -2.1298172695152284 0.16431406083145897 0.819011542291183
P 2.168993595142033 0.4441650931182504 5.040978668600558 0.3141679803735299 1.3455642137511534 -0.465857667572759
P 8.024940560252269 7.9436966005759775 5.042900628393447 -0.36537227116148685 -0.2832887742961702 0.4843153600573143
P 2.350710361508166 0.08855536110207878 12.854503651635081 0.6178440600768005 2.623762182242507 0.25923404733981165
P 4.380893694033874 6.808815414305438 2.896641283352089 0.6858638797601995 0.37190775828715944 0.6314205132096544
P 0.5773491375343143 7.26840243119011 1.076546284395044 0.5445537360230815 -0.40812534585829713 -0.12358598698447748
P 2.687839497459993 5.145543270345135 12.49749360820099 -0.12267016003842746 -0.9952652919830215 1.1727518856406964
P 4.405422266559094 4.076700548565571 5.977370798377803 1.610856294359587 0.89610478503076 0.40123787470984446
P 4.307474459982143 0.2617111747045079 10.072466851428821 -0.3564538856259345 0.4607365442961097 0.42159586954090617
Ni 0.1416266088960866 1.1933816467614935 9.093649170304225 -0.011617529634270315 -0.2476031479691026 1.0161917577230435
Ni 1.2079027096817778 -0.041092758247472536 3.042244998653094 0.8871038670837303 0.7222097653790853 0.061586919573861684
Ni 8.29727060905791 2.5929623869910263 11.505504305608385 2.300198362476374 -0.8508929643808121 0.40976879499899105
Ni 6.388851476115351 1.6394834982080926 12.42530080277552 -0.7318434318141073 -0.2988184945006531 0.8795949603011948
Ni 7.1953901568635334 2.7793961865350867 1.0599219796224841 0.034681096321953174 -0.8867277146912341 -0.22380013201223395
Ni 2.98731560975037 8.840959552779617 1.3901651720430044 0.06618842290161504 -2.3347179935197984 -0.1441787235341646
Ni 2.821655254358513 3.720231576584244 7.4754126693830605 0.4782177318000086 -0.5832146429283891 0.8951619615015165
Ni 6.314729311629263 6.118768954882722 6.587915825674659 0.8602841757877249 -0.7887707411287707 0.7726586660582565
Ni 4.3106006505981025 8.378348085210275 12.522387519570383 0.6817218325673678 0.3977630287873666 -0.6159193322502617
Ni 0.773352964978768 3.3880229536729205 9.888743033690904 0.9009991370085837 0.9236862941934544 0.05846662877732512
Ni 0.9102209198159462 7.883216835967224 9.36828779064165 -1.5227849553419517 0.4653182501295212 -1.1087872098632774
Ni 6.046885068884983 5.09369290172659 9.20589791158649 -0.8287909902754501 0.5285977269144574 -0.2631719489416371
Ni 3.8725732500619543 6.2801192368218075 0.6940744357932787 -1.3411910243841225 -1.343036048012661 -1.2923135819571294
Ni -0.21227296736596998 9.152468724216039 0.27762607468344647 -0.8283737002323734 -0.27459124652217226 0.693750738707444
Ni 8.431465578427595 5.672519118081522 4.658815739426524 0.3841251262889578 1.0100712466476023 2.112157647451937
Ni 5.970219406116678 0.2180342222023045 6.019484655572026 -0.14210615727585205 0.3300846516037864 0.6860857659630184
Ni 3.686768388274951 1.5994349616190278 6.344547435673023 -0.47343856524381045 -0.013933836472272776 -0.4686802246232186
Ni 3.8227484309845194 1.6869313025272388 11.87740537534926 1.4150081674755888 -2.3842353835236354 0.5531782444672989
Ni 1.294307658599802 7.654107759789921 4.8741076080263674 0.5565345625340414 -0.04410393229774985 1.9680948806703462
Ni 6.421972448292127 5.469455464314104 1.3763174424861573 -1.6721184836041785 -2.6341712933909727 1.0068383415326014
Ni 2.8713690844199964 -0.039679498111027015 8.370585328452954 0.11342858683550143 0.6130900903315828 -1.0819577483752592
Ni 1.3107247838759197 5.907011161532459 10.705902438357151 -0.3954181827042738 -1.4003667634133303 0.422071266515428
Ni 0.6602116870265617 0.3447744293339339 11.531305552183175 0.8291596864687786 2.507205077080353 -0.3776060942235174
Ni 1.5942924705466213 1.2721376026635458 1.0823824568171456 -1.021871324606324 1.532025242993297 -0.3598410569306126
P 9.570675336320232 2.829341243713135 0.10968581992225833 -2.791221730681483 0.470624492833783 0.6277263521875188
P 1.2037498706682699 2.251032976099309 7.646696468249779 0.46083758865034824 0.3892225954165232 -0.6327058076799813
P 7.975485704561338 4.711058269234763 2.8193994026093043 -1.0557144984080142 0.32625165101094133 -0.06860885941764959
P 5.776636064128428 6.431868968881111 13.054187689866785 -1.1690050170037543 0.1406956500815706 -0.2898723410509588
P 6.8271840964453645 0.03481262976156607 1.5294203156316002 1.6846528686257634 1.2036146366578238 -0.9137677495281619
P 8.490946441892786 4.788852320331905 10.750222202243405 0.13136820203305763 0.07604526109103676 0.3097307705377827
P 2.002547067553855 7.458794838969764 7.25791396918272 0.20785363598530654 0.369329456037022 0.8329983434885783
P 1.8140507221300348 2.673401676301672 2.802139685720424 0.7924327633613901 0.20454899709210578 0.315461759484289
