# total energy = -340887.9466121154 ev
CRYSTAL
PRIMVEC
9.10807680461371 0.00000000000000 0.00000000000000
0.00000000000000 9.10807680461371 0.00000000000000
0.00000000000000 0.00000000000000 13.33059106206213
PRIMCOORD
 96 1
Ni 6.1967074626040946 1.8911646611468809 11.211334090722096 2.6900395653135027 0.8586584672588439 2.571417864312836
Ni 4.506567167348354 0.33105764777769014 6.08150941641885 -0.1794851121449425 -1.1407408799517385 -1.059731589987207
Ni 2.7584812866728576 1.708575042959228 4.786295336787224 0.513946809770502 -0.35716993785635265 -0.03704856811286523
Ni 3.263779178517753 4.7478674494177655 5.206395366234298 1.3161299676504365 -1.8942623109599122 -1.9615411387122281
Ni 5.043980138443494 4.37370764919086 3.063449758896265 0.3432139898968928 0.5948537698292142 -0.34088457043276776
Ni 7.4538953210588135 6.165202624508066 2.4896746122790727 0.7845034812119844 -0.5722483737248726 1.8760720132041302
Ni 5.4092504555880865 4.770318859046767 11.973243852761074 -0.22453032531003914 -0.90810155238132 -1.2390500946472982
Ni 5.608444098016578 8.140097836859571 12.599981555910382 -0.12872407954199122 -1.4422261226512774 -0.24482249990017194
Ni 1.8174256703329317 6.611853609009703 0.35998763252600374 0.2988673454607175 -0.37714303854416986 1.1935796210193252
Ni 2.868852962893638 1.7804286618489569 0.289695138021837 -0.3174569355374468 -0.489975129446253 -0.408924958941457
Ni 0.45406586992921055 9.267286113312375 5.003063924457143 -0.5870026492159117 0.23388888370680366 -1.1987645076543743
Ni 8.602779036755544 2.507608415751487 1.3565742830919136 0.24048453464645037 -0.49231200510954576 0.5987700741644849
Ni 6.973517127690569 0.6665053886349659 4.823714049232993 -0.4043897900752648 -0.7159146763989929 0.6419720634732556
Ni 1.0082550079191401 7.6678258319577814 2.5531551760483393 -0.621768077721555 0.15884815262088126 -0.14949319376854256
Ni 7.7965684993435485 4.007025580122335 3.795259148301603 0.7816716681901441 -1.2711755144269334 -0.8596200598411647
Ni 7.52992954725877 3.7369073426508317 12.662741670794597 -0.12619308559002138 -0.5239931382629105 -0.03747614256858707
Ni 7.894471218249075 8.578952307510326 7.113670393852487 -0.9861041943090437 0.654185317709996 -0.7095874486293845
Ni 7.031052849648539 0.5393202024039893 0.6388778588874421 -0.1627174057683004 1.1538249668292062 -2.1575772132373165
Ni 1.8255682911071005 6.481735622007718 9.251083755264089 -0.20177400545012994 1.0367562121379563 -0.3802299049996097
Ni 0.06719028350228544 5.006691671497805 1.2234979927035186 -0.3521228623507484 -0.07074930279942009 0.6968802854753611
Ni 6.132604817180605 1.6390166594555062 7.075330854829237 1.4873368989469868 0.9448654993742308 0.8995230666836894
Ni 3.956922048938104 4.440815960000788 0.842853241703449 -0.6895631829886576 0.5390878278125039 -1.1756526042272593
Ni 6.33633428191954 5.5083281164174025 4.788894781942647 -1.174288634000197 2.3504266625043067 -0.1550604034436749
Ni 5.451739634460008 3.0332810756856614 9.410064327245115 -1.2549022311882065 -0.392877161449975 -2.0580354116862365
P 0.37704979303635094 5.577294474920764 12.443560353546292 -1.25972819182194 1.8217101506237983 -0.8877124472020066
P 4.066073242850451 6.183746669134697 12.777678315171991 -0.7702554559334025 0.027462724196643026 0.03907819694838431
P 2.5032274307488307 8.731640109141384 1.2929416144379398 1.1238438470860839 -0.6435473783801755 -0.47085614922861485
P 6.378167679252601 7.4747619253022375 5.835906478808368 1.0752872783336191 0.9799921678740348 0.07768202536351138
P 4.688273302073934 0.9571586963496916 12.48941769926641 -0.6306044450662625 1.1708721521194803 1.7829949934417872
P 3.8697941850391118 6.484486261240155 8.364546354995685 0.6329114959328842 -1.2139090766052965 -0.685457131240084
P 4.906184042590699 0.8941080338114551 3.891746472052424 -0.9394528129990917 -0.9125819567501766 -0.49301880136858317
P 0.40952464132527583 5.800305738517547 3.3907157142485786 0.4601490472237559 -1.7515894825473124 0.41040411459014475
Ni 1.4693240781987515 1.049423515636414 2.483369090621403 -0.8188680747347833 1.7985560811048382 1.220362288429808
Ni 1.996836569672503 6.761544853331252 5.0348574885918085 -0.1708174091676155 0.5352555985506072 -1.2937382302187976
Ni 6.213347919152648 5.714116006542201 9.001041540958605 -1.0725827349182626 -0.16955705439795316 1.4580358359900243
Ni 8.521161559398356 2.342825087959248 10.34321868684948 0.20585048951234872 -0.6300675987261858 0.07215158246358541
Ni 2.4088586456916015 5.268430478194996 7.219981689378497 -0.03898178057983609 0.8348490235440719 0.2230401139177578
Ni 0.5104603498480259 8.855883386524422 9.002481527921018 -0.602255461609924 0.5405006489996304 0.8487345232769125
Ni 1.2748210953884893 0.9779888682854008 11.519763632178371 0.3569845613184239 0.7406342906328599 -0.10586928643100478
Ni 4.220810361790444 6.8347646837602705 1.5627984501015921 0.12275192111895632 0.7765988816529271 0.11211321045818756
Ni 5.495868267179077 8.02152889140305 8.106105582954342 -0.5274623277584335 0.16490052946254827 -0.6579589258198152
Ni 5.24035027702412 2.6961091758658022 4.897433002277699 -0.7859810941987754 1.0977687472655866 0.6905299177773011
Ni 0.8683822705266231 7.583439499214298 7.014396909369207 -0.2325827633008704 -1.402679727817223 -0.4647978588496769
Ni 5.226915863554434 4.377177826500657 7.2244337173811966 -0.6914789119541317 0.20401240786234545 -0.003895992620296516
Ni 8.162403517257713 7.052538803123107 9.070693737654691 0.2534377523730087 -0.22414980204216878 0.4272553818195287
Ni 4.829421170236454 0.3954544840859739 10.430787381671816 -2.3653256911033265 -1.6967599363019426 -1.8875309057733494
Ni 8.506679717081882 7.18241087204802 4.569820029194406 -1.2833764273684993 0.4200514078719217 1.1768988179295345
Ni 7.726891710839754 5.848669627008414 6.924441898391577 -1.3568346444586503 0.6882359795368018 -0.11877776696255674
Ni 2.5007682499781083 5.128539524648621 2.5437438001580164 -0.9374571227253017 1.0367608401236466 0.9001732986731787
Ni 2.328680244489132 5.588360788389014 11.378739633862079 -1.2749403807860042 -0.9531789043359326 2.0409141786249174
Ni 1.375192103141666 3.3566997793433346 3.791060324837518 -1.2492612308523452 0.21208027247214442 -0.3894568229145164
Ni 3.471051685181913 2.624865798130289 2.5176154598729403 0.2973048860696041 -0.11333448445979838 0.41768779273575163
Ni 0.9328128067195426 3.1428512411367246 8.240304899228033 -1.9318356412279953 0.9319955853900981 0.22515973136392192
Ni 3.1599106692239936 3.1265842157422448 7.89541572582657 1.8373766535164613 -0.18153428136448735 -0.23895627092738203
Ni 4.34116449032497 6.62697301671118 6.083668941458621 0.5726888036964008 0.9640502998327978 0.7922620421114807
Ni 0.47567751486539367 7.443748923360353 11.225663828153863 1.9419485612922813 -0.03199403640809329 -0.27340776773703235
P 0.404493339629917 5.3275327893846836 7.995528975002668 -0.964862511321448 0.8442502622533138 0.6316480558394283
P 8.291619804643767 1.5829655540368992 7.953097177015397 0.5288574083337473 -0.31277444246011293 -0.014024339303550041
P 2.042131036238433 3.255836935436013 10.28220459031248 0.19095377490617435 0.18912469211723557 0.3411542791543867
P 3.9574229931691765 6.462572228149942 3.8705100798856997 0.17041657418477102 -1.1023777067925078 -0.6165623651508993
P 6.953215224216719 3.9796649170288187 10.513263750683372 0.6718164005281978 1.1685494175235744 -0.09997477532344073
P 6.165548731431353 7.697390649668018 10.26706150161099 1.0576366551313914 -0.4314449944208441 0.09983465020115065
P 2.431392028012959 8.8266737838144 5.661862058395127 -0.3393622202509704 -0.925856819482212 0.8590724148678108
P 6.869767023396881 3.924333349687571 1.6804010285959883 -0.22099454424263876 0.1424943938532062 0.26487839010978254
Ni 5.339619207468936 2.7167025378013676 0.4824939996387583 0.7391309666144561 -0.8842121473582321 -0.5144535742035913
Ni 1.2998045504036402 1.1625185068588457 6.985323017005421 -0.2638067543121586 0.2592505024000439 -0.6421461271572747
Ni 7.007790821172892 0.45385183012138847 9.364887354871565 0.40691975558597016 0.4173003274893458 -1.0823678393294842
Ni 2.212779965572691 1.332502546577316 9.123830258456147 1.2474655724045032 0.4638347236054592 2.5888442873193998
Ni 6.272095015342121 1.9569887331098763 2.7095490541816445 1.4376937819985627 1.0451020129994903 -0.7227643523309746
Ni 3.995385457807583 6.937685953053455 10.531246737771202 1.4863665646139177 1.8969961649513072 0.13793865616172374
Ni 8.325775093126019 7.33488918790972 0.018397404588080028 0.08519556013173714 0.011093795920316377 1.530967491152744
Ni 7.568147038051177 3.7259685422595825 8.29661376322372 0.25874888017327696 -0.2125582405498275 -0.5807165590968837
Ni 2.939987043706007 8.105277658761532 12.42756383803659 0.8721541877524334 1.6338638109983539 0.4125993224692507
Ni 0.1881364370371707 4.67013912090909 10.175306734632267 -0.06047774567008295 0.44930670519261334 0.5010031051256404
Ni 8.705855143356516 2.498436582284387 5.727128716050092 -0.5610018542767757 0.08247276188393539 0.3808852791954215
Ni 3.9782258408741002 2.8537973117306614 11.498714866396375 -1.3561944397714902 -0.22257937223125537 -0.0124114862904754
Ni 0.793627729135135 3.592471458717086 12.691949451889233 1.4983746448183872 -2.521240472127497 -1.484859641051088
Ni 2.7933834374632545 8.51983178016678 7.949431176051635 1.657045648431456 -0.8054371460408579 -0.28399659899647217
Ni 5.783783686969066 7.795530178573688 3.4321337832736964 -0.6850267285708848 0.22612620904224925 1.2243649818312978
Ni 3.1582712153768453 8.589417487901288 3.490948279232441 0.7337190515702654 -0.2484125312442754 0.2968783400551468
Ni 3.8366407850190063 4.735926760564371 9.91668015782158 0.11647380141972845 -1.2143330515165924 -1.7027467500129965
Ni 7.488715499156853 6.266930735723604 11.477626025075896 -0.9071502442116441 -1.517585156308567 -1.1071519882526997
Ni 0.5829305855458211 0.15370244140090386 0.4587018810858682 -0.470118499731642 -0.29728894523000415 -0.3986726850858295
Ni 4.721016838632252 0.38080049911554864 1.5912329554649898 -0.7387226754324439 -0.44469543167284703 -0.3529242752061212
Ni 6.444611100446742 5.64858339304092 0.5017821741504555 -0.8315837225292387 0.4213457012033131 -0.7479593635393634
Ni 7.817061672432899 8.82915118073898 11.475852682497896 -0.5285038816490705 0.8837161815584199 0.26807581400115765
Ni 0.3101773814188737 4.908870925284636 5.640639328343795 0.7194954517717157 0.03813820163261819 -0.6663628336127944
Ni 7.762240157399654 9.015302057005716 2.6468026014128236 1.7457091125071356 -0.7556703590303759 1.1546454058479727
P 8.61354478368515 1.7215176202747693 3.577090649207758 0.0827121315882511 0.10123847252721274 0.3442992525412715
P 1.673171947937758 3.4686198286419767 1.3258928151502303 1.4755386207604781 -1.0940915555243158 0.8676084773632801
P 4.207202894859115 1.1892233884135022 8.067060167969125 0.7359008897129327 0.4387878079391604 0.9514071571474905
P 8.514093691701762 1.52399986400114 12.559069895962498 -0.6509930360249433 0.8855573485322168 -0.4033852600701504
P 6.519361087799766 7.6540908519494515 1.3567609986689502 -0.7635695592727947 0.8953424529434386 -0.6937047159608568
P 1.8699519499801704 3.3007215385401567 6.03254621646608 -0.38806097100825426 -0.7881806729532556 0.2764185295388981
P 6.782220187959174 3.8574527408008583 5.896520730768203 1.8015714708923942 -1.4571341501113615 1.06880269905054
P 2.3900868991417554 8.55021632480059 10.393648287187755 -0.9750916452486239 -0.1559289220915573 -1.3228981396122055
