# total energy = -340869.7956114395 ev
CRYSTAL
PRIMVEC
9.28480493927071 0.00000000000000 0.00000000000000

0.00000000000000 9.28480493927071 0.00000000000000

0.00000000000000 0.00000000000000 13.58925055108914

PRIMCOORD
 96 1
Ni 0.2891678130846341 8.915093016851195 11.552452920398759 -1.231987274263246 1.1733445249193726 -1.9470326606834083
Ni 9.122534122416178 0.21872957106251542 3.290487416640902 0.2007656187902736 0.29424013110135133 0.9893149879368575
Ni 0.9861391022315226 2.9561796687731117 7.778119477584727 -0.4972642069084985 -1.0712809853877034 -0.43534072993082445
Ni 7.080415617350688 8.562511844945162 10.417668738069548 -0.029597768261774834 0.9432814427165627 -0.7798055615156828
Ni 5.547921470097872 5.024954847998347 4.983327354815551 -0.6334928223576509 0.19263270527049403 0.4654223798075533
Ni 7.206020454701108 6.256500622022369 7.085380202398831 -0.6392181548772023 0.09301737016900109 -0.37227311204637825
Ni 8.88787925441225 6.960251675527129 3.0210535273664822 0.1723814112206257 0.9373033707562568 0.4403808634578931
Ni 3.281287103709905 2.7724148150741543 8.849468946041837 0.007193175314329546 -0.23503482438578874 -0.3772104014469955
Ni 1.482495474194567 1.3419235317429594 9.821399511712348 -0.23601210069739356 0.20001511377749423 0.8151556588802025
Ni 7.1513515249022275 8.621498208907848 7.786232539890817 0.42742867417259933 -0.12442750904916637 1.6556130297499874
Ni 3.693272455788025 1.0273264956737505 4.393146174869548 0.6724121251306677 2.32712295478136 -0.20078927293935742
Ni 3.8582912888918837 3.5718272109223026 13.233198472031964 -0.2281105864621297 0.14122786843595678 -0.1603555904043432
Ni 2.1442513562522576 6.968877259050084 1.8349429449135926 -1.5711422635994168 0.7249654737473514 -1.6076817532863474
Ni 0.19788054221343448 5.370154600204974 7.526038888207404 0.2768065090059362 -1.2158497452714352 1.1265622744585115
Ni 9.326400578189622 7.548963999376973 7.445414287000102 -0.041306829168586925 0.7789450132876005 -0.3125309589907392
Ni 1.4544925033600855 5.9403808779900125 10.550585359084472 -0.5453638906292027 0.38527055274731065 0.3021840685387764
Ni 8.820861534424422 5.683776731785581 1.0873406875115614 1.028101621786752 -1.4705769058798286 -0.5843413003336646
Ni 7.865659401297837 7.284867015817294 12.41474479880074 0.12514947481685545 -0.8548385792921214 -0.2397998498745999
Ni 8.0940191717468 4.067459368122386 13.027660751420918 -1.665587624464196 -0.022664017256419033 -1.1749679194554086
Ni 3.7422776547483676 8.690363605021691 0.49059607915611075 0.429991292693453 -1.4417746369361555 -1.970593478722484
Ni 6.098974626273758 7.350213470967519 0.7096701164712652 -0.8264703125620734 -0.40373955808577566 -2.268400501239487
Ni 1.6930748437323784 6.947828606900956 4.99404944722923 -0.8339139133243122 -0.013167904840525707 -0.36341669009701283
Ni 8.729378354175036 3.479118436458677 1.952340014950457 0.3546589985090408 -1.799486049118275 -1.1234687231348524
Ni 4.817504457628712 5.29953437601165 7.473135928253589 2.4388289024987997 2.8211761109517286 0.331631427265616
P 1.907758096926967 9.379509660806741 3.9539962698171434 -1.8037926469134287 -1.2409951341888112 1.1690433264408577
P 8.699407004754047 5.5893316988517805 11.116699396888547 -0.9097043780920656 -0.5711561691019582 0.7579087614425914
P 5.184384228700893 3.218586817885882 7.0019970857290215 -0.43012370450625925 -0.44245008728209606 0.1485809663669183
P 8.987616625998456 8.932752715301854 9.28842944107931 -0.08363052963746241 -0.786656008778613 0.4967980659053573
P 5.847560685870546 0.7810034136619661 4.7583435393385445 -0.2588987754875799 -0.6960986701143301 -0.6131381699606989
P 5.881663773362273 8.38331511513565 12.255777801369929 0.06963678646153168 -0.6468152504981699 -0.06178412318633231
P 2.5806186053500553 0.0690111675468999 11.386786007930096 0.5274949807685818 0.1773364412330559 -0.5107802391170623
P 7.034186574981696 1.8464226773869854 9.754377149322195 -0.38647357191647635 1.1008265602553042 2.490559498103872
Ni 0.7193931639042456 4.7137003416043415 3.374550181011336 0.9969773895781217 0.9029161515256385 -0.33122853540024244
Ni 6.264903370233644 2.7586083105546337 3.953724225040801 -0.25640197720765523 -0.9157590689265778 -0.3450957803006379
Ni 6.825687001686233 1.3207727467426447 6.504616599812715 -0.8806465414941608 0.8263777528482671 -0.47904896945205233
Ni 1.4018662305849396 4.323153603470789 5.569228239816362 0.8912220030171619 0.006480208407704968 -1.4514376139472163
Ni 4.642374472257364 4.276200346338836 2.6667138134591055 0.9766535904191049 -1.897467448160771 -0.19710385366797023
Ni 8.77116925991973 2.6248978387418465 4.565431296095113 -0.8264739121064992 0.5132901500231095 -2.023403423434664
Ni 4.152053223318991 5.862407088511241 0.8990346358566538 -1.193579878129641 0.2782854075443078 0.11799126650551939
Ni 7.4603033997422035 4.659876329028915 3.3242701783720894 -0.3055115902501126 0.5327174055097859 0.423059084349994
Ni 2.420613566759002 4.297648245088057 1.7186600514351293 -0.4456441687393615 -0.1888873792954489 -0.04205039220283081
Ni 6.98147673896467 8.634756909952822 2.944899559599766 0.557373256385253 -1.8987000350162913 1.2315658704551113
Ni 6.081305643018446 6.371808611012232 10.745780735792161 -0.7843746689436041 0.17925062753663323 0.8789532129521379
Ni 4.735928163944444 8.240124857771798 4.31276576402463 0.5406618571678431 -1.6139968968710978 0.9083542918220743
Ni 5.255905078945593 0.9498726552555662 9.106034096066722 -0.14497807950700836 0.9818893848967478 -1.2758261258250672
Ni 7.588025172553585 1.1892813432420064 12.154293029547963 0.6029062078200456 0.10948528591703724 -0.4258471886180924
Ni 2.5569423534840316 8.854946052306842 6.120638860971402 0.6573380044063647 -0.9248219504597943 -0.4487189510099434
Ni 5.083124149151539 0.9205011042151819 13.026057265657284 0.9978482222188492 0.10703708148686084 -1.8136268593950313
Ni 7.719498006444917 8.123396293669975 5.4609627751560605 0.2629253801484697 1.3839803516355067 -0.01738888490040876
Ni 5.039346295211028 8.22224232400946 6.9200809681944415 -0.9915780729394214 -0.49192788229724954 -0.11088859402246708
Ni 0.10514762725770947 1.2182220793464753 1.0519479406534846 1.1367811239730423 -0.3800990358487002 -1.4018646881150953
Ni 5.771007471503736 5.308800611055685 12.879905155609018 1.5552718722260634 -0.4730351591578047 0.44924217050326504
Ni 3.7327514451740376 6.1014072450929335 12.217864230048471 -1.9705060612150003 1.464483391387581 -1.3576208878053715
Ni 5.257938451164674 0.688900936942203 2.5667238951863283 -1.0482981513392848 1.3460434673804174 -1.5987710810602789
Ni 8.360892311897826 1.5145744742718659 8.190268242224745 -0.05165629072371104 0.950118520243054 0.6131057740608666
Ni 2.381264564638135 6.627010751714008 7.654797773698564 -0.6735619224643948 -0.20602738140984517 -2.860319356810093
P 8.68344642555495 7.677400702146661 0.7583735592803741 0.8723215665682331 1.9689978521005898 0.8673408255241901
P 3.2211308543608976 9.190461753260033 8.160344245307487 0.32494501638437584 0.523398442101705 0.18099100726650766
P 6.7646394110905055 4.89091012321804 1.088883822044947 0.14515240030134358 -1.0091757314165264 1.1041275996040791
P 8.824018368006557 0.8827100923151467 5.678961632092357 0.736719528959486 -1.7934041045902536 1.0733769486847837
P 3.6867823773353385 6.644438330048331 5.731048457717145 0.5276345916702396 -0.17126118157325343 0.36222498378175677
P 1.9108406520718768 5.7451214361302165 13.376483434403278 0.8515696787328624 0.21667611937294295 0.8130524964942707
P 3.0704477596418 3.6663093830747178 3.9484513844781675 -1.5409837377381654 -0.43907962814796636 0.34584911352689474
P 5.765390164688463 6.954318685353643 8.754616310183753 0.47665141575415326 0.21142926915170682 -1.018326287567543
Ni 2.1159141324502557 1.5721866871458572 13.483498235876775 0.8233289387196143 -0.6699942597177945 -1.1082151394098914
Ni 4.036030304370822 1.4000928328961513 6.764687692074703 0.7099260629157257 0.2721579544903313 0.3712922361903476
Ni 9.123824710262992 3.209756968660553 10.72704121456032 -0.9657220311082659 0.8199191417071169 -0.7129244834224173
Ni 7.190700527023093 3.7370503097285352 7.426457501339374 -0.7889928844419056 0.3087694350657779 1.3406433794107684
Ni 4.32029388363756 8.38781824539252 9.98690301161911 -0.03203465983804161 -0.3678569852565536 1.0289968799075118
Ni 5.534486357764486 3.688806464749767 9.28405351264619 0.3379781954192502 -0.44749562012580346 0.5145209371064171
Ni 8.89696907816787 5.777367562691275 5.205987183687826 -1.0201839096015721 0.4484734106580406 0.4674674352620401
Ni 0.9057336224140405 0.4005325455382218 7.66602217404399 1.8825270248008545 0.48681472944040033 -1.9273156418704551
Ni 3.7761764765377213 2.045386756303465 11.039947487702156 0.32676947118762434 -1.6950671219805518 0.5546412021660705
Ni 1.7499906962573688 8.005237869651538 12.903359500643827 0.7950915411404759 -1.3088311199961782 1.644611022212529
Ni 0.9659075128918889 3.787225394075199 13.432443880529439 1.479977373258122 0.09225838051578951 -0.06249837564453752
Ni 3.167724657994871 4.139555876255592 6.8506129882585975 -1.175550531431756 -1.3269748807847404 -0.35657884123957295
Ni 5.9664526094565975 2.8217264125880575 11.811939069967588 -0.008161966985502072 0.7860749394641623 -0.7906530457531479
Ni 1.8736271550212795 1.8818627767487943 5.6896150169516035 -1.081859789344814 0.3099284883708856 -0.07361042639729903
Ni 7.649991958809994 5.384378920933894 9.275247803912961 0.13850918395321307 -0.28337259225922806 -0.3918515483989381
Ni 2.609438638994031 0.47688149420265835 1.9939777214183723 -1.3118313402750827 0.026239393312503197 1.1708870645178158
Ni 2.306466178350807 3.7763157486075216 10.953261766017151 -0.059360344236188085 0.4085948292955479 0.15403144795852824
Ni 3.365082465706322 6.119308348464578 3.441531690261015 0.9408000710556055 -0.6522585330009283 1.8975702922872226
Ni 3.494633345034412 6.269165095569528 9.436918536458826 2.0867098968027933 -1.9171952656070015 1.7210000397962295
Ni 5.996906768719562 2.574834172051023 0.7758169217826089 0.8946554541787429 1.0382633928111022 0.9719988652559133
Ni 1.335080630713446 2.176330356329556 3.224212481025342 1.2249601922131355 0.9290524436013743 -0.6768539629521052
Ni 7.196197131377872 -0.06813375350715901 0.6871906759250573 0.9012593326485059 2.4499450670166194 -0.933560872994689
Ni 5.789279967061514 6.264689819726618 2.54509030034404 0.6811523332171431 -0.18586736152220246 2.817674011335741
Ni 1.8597835112831456 8.115142102333154 9.429023667062086 -0.8445978754007195 0.6582067801645631 1.1323197457675789
P 3.9032854522419824 1.7847994289027505 0.9354189998517076 1.268777189398086 1.3291029828713368 1.4974835004626854
P 4.324574178582751 7.849364569131221 2.2601777132320326 -0.3133807085855442 -0.6805470955329763 0.0046673235686822846
P 8.8192738328287 3.737988074998523 6.267103868936486 0.33695412503011 0.19708071373951863 0.08856190550080878
P 7.038383306685007 6.5202262133959135 4.325961328397961 -0.17432285121771268 0.26773719971481635 0.009200949772977701
P 0.4500381954693794 1.978647580455238 12.299603007814174 -1.669150145004474 -0.9110878887031535 -0.3143111908196135
P 7.690937947331235 1.5678042593494794 2.1373713160041308 -2.0991854035619846 0.08038811144076478 1.3405559619032847
P 1.8691611639830215 4.519118690484239 8.75173523529982 1.32663755204998 1.7652680084756693 1.5772085243981546
P 4.706736738114334 4.568012471788742 11.180324449256043 -0.48719602403921897 -1.5806340051399357 -1.2130688400921883
