# total energy = -381173.15092119476 ev
CRYSTAL
PRIMVEC
9.20917929288468 0.00000000000000 0.00000000000000
0.00000000000000 9.20917929288468 0.00000000000000
0.00000000000000 0.00000000000000 13.47856477324265
PRIMCOORD
 96 1
Ni 0.9906314290605129 8.79327444883594 4.393594511541131 -0.7692596676790364 0.10233196270170765 1.6805236769487382
Ni 5.9919065367767725 7.265618931700362 2.9472367093130853 0.0974772057125676 -0.030942198104811223 -0.133032477109358
Ni 6.168317577541699 4.564511355870457 11.461228057874353 0.011196897157083942 -1.6015370738411903 -2.264719195733158
Ni 5.839476199193714 5.83167602423402 9.109339932589375 -0.9436899910088908 -1.5335650766765911 -3.054195447569385
Ni 8.39192920099838 8.252032556591407 12.16305685790478 0.01244053975619793 3.307391259134917 -1.341296182503419
Ni 0.4833990363745969 8.474130336405967 6.848269971885288 -0.5662759581915215 1.014047200576215 0.8424708017553879
Ni 6.126692086611575 1.1322317716582115 8.689994422678362 -0.2795115666419251 -0.6399565757051237 -0.8759097981401238
Ni 5.498966790534121 6.650565466490131 11.160278521203374 -0.6612370823504548 0.973482391779975 1.2953317999581626
Ni 0.5824575746909435 0.5206649017723497 0.3289804369570662 -0.5124879658367884 -0.9721461894670547 0.7980238842959223
Ni 4.590020782834273 4.803876347077494 7.112368977149874 -1.0697876886716284 -1.1548930030824045 1.1604558418821629
Ni 8.206999669279833 9.071640314841444 9.208905896691176 -0.24099695550649464 1.734293414471026 -0.41280115406741164
Ni 0.11894484033283144 1.6511690313733731 6.1256164544565666 1.817003232066432 -1.101512273468419 0.3842775927064221
Ni 9.010169042284236 1.300962356795766 2.5704026133913715 2.5139989600737347 -2.390488563522199 0.34130006070363156
Ni 5.905137648382163 3.415408367534372 8.458634971131847 -0.4081423151391616 0.3142145173407491 0.3080585250416824
Ni 2.2010951798008946 5.34738369745672 6.2916994005139415 0.17825998148858976 -0.026656683355579896 0.0897564400295422
Ni 7.517121621368881 7.306737917762974 7.548710948578729 -0.5763731945265235 0.08183821362373003 0.33987052734595663
Ni 7.93023620049155 9.06710939857206 4.174702447078953 -2.0446571906071176 0.7468519894077976 0.9721459323567386
Ni 0.9707027648187453 2.465951179612927 12.80398995909108 -0.9510616008826136 2.035531831267081 1.096007541600106
Ni 7.613698285834416 8.673334096208961 1.6964800359031074 0.13488032895137417 0.19500763326057385 0.6777841880758586
Ni 2.941365857439644 0.004586171345841177 0.10833126106359058 -1.312611412974217 0.6370509720225545 2.9903675544801467
Ni 1.5436058158725194 4.8714717239419 4.049406035707514 0.36439139530545633 0.14581420225505853 -0.33299642593394263
Ni 2.3926000656176964 4.534995935863588 12.000572859160565 0.10186222215414069 0.364504780954869 -0.1664197943205521
Ni 0.10377179633803642 3.913201351325736 5.5840881567324026 -0.35075272147609915 2.0891455028274795 2.3599911662642903
Ni 7.404953816163368 1.3303856850085423 0.33588547967817406 -0.11122540853659554 -0.2678235887810355 -0.4980260247751875
P 2.7609948695287096 6.1983947574925375 8.336573744486902 0.08502458177151163 -0.48948507718371187 -0.24473302551015919
Ni 4.396849035544384 0.21304976104490503 7.087743631409353 0.8161429624941363 0.5108164916716363 -0.8124117775864783
P 2.4968756040694227 1.61371529871567 1.4684893021845222 -0.3722250324172622 -0.0696522130804994 0.29521226520663346
Ni 2.5354712749738813 2.683748272643337 9.940051198453231 -1.1381533217302204 1.6561318783679349 -0.6770329117321308
P 8.971739136609145 5.2814275545271725 1.8792619869834015 -0.44628797297094747 0.30152355213664206 1.2901392000136298
P 5.262797384582119 8.19729319418241 4.933303075414012 -1.0214923440003505 1.7221040714936855 -0.5029419740195661
P 0.6233979026730149 3.3281145559134315 9.197934080342913 0.3293917393018198 0.24476079342430107 0.5794950279849568
Ni 0.39935790692102774 4.8228933025577385 13.374429554652862 0.6532658912195202 0.12628178864908574 0.6432208482786922
Ni 0.7864270848382594 1.1036556879510928 10.96238614854827 -0.5591694290537274 -1.0663303262506474 -0.9705050543192059
Ni 2.667263841500655 7.579191490587695 6.646132167522485 0.0542603040054614 1.1197807327603038 -0.13157594716848953
Ni 8.466845875493195 7.1144042057993335 3.2497361508786526 0.8165738793839677 -2.0068375486561822 -1.1559638675490802
Ni 5.6076903626405485 3.1866523510068725 3.3184900425127517 0.43949871796325596 0.5006539493163378 -0.7610167109439538
Ni 4.043179709508873 4.549399092459764 9.738748666662854 -0.5354995962406133 0.5766015084872456 0.2338300054444102
Ni 9.091974182977221 3.992584477834071 11.257809256655714 1.0634188090308072 -1.0999953226032606 -0.26013264789468105
Ni 0.012863381798937663 6.710940846697631 5.453642893153213 0.25838892573069694 -1.031289275486114 -0.697396048769515
Ni 6.832750662744702 6.903983665475789 5.2067024309640715 1.6719575325462819 -0.5067932294448562 -0.20153412152518196
Ni 4.33815893516879 8.163228439547337 12.430984119049821 2.4620804168275723 -1.3149709143453288 -1.1925339533636299
Ni 2.8248329011941133 6.702671003588063 13.494334912398083 -0.24295793588760736 -0.4927303235938869 -0.10110477516282589
Ni 4.99329074916838 6.818909266092494 6.617800127069713 0.1815381380192293 2.3783763536396973 0.484976647790397
Ni 1.363888679699647 8.0933307678306 2.1478771738303184 -0.1760228646279549 0.9005713054425457 -0.49024226706471047
Ni 1.4258019928685028 5.270413375953626 10.006756047668755 -1.149033458977834 -0.865804848495638 -1.5840661707499364
Ni 7.080496007214219 5.372708940832349 0.6286324002492721 0.7727915920916949 -0.12134655613099746 1.2189342977340296
Ni 5.23991257374996 1.1017678061721823 12.707038481023586 0.16182189053722454 0.8334009782436357 0.557481499828343
Ni 7.8749166597797675 4.795063162382775 9.508709811443635 0.544282998860198 1.0793313664960058 -1.0640531001806963
Ni 6.581717641226057 7.707945027909393 13.394553453498107 -1.2134547626766974 -0.7890959856786732 0.11838413106856384
Ni 3.349102275787271 3.0674395235532304 2.9975381681647306 -1.057393942992966 -0.1958013328064628 0.4534852620503351
Ni 3.7058014218484483 8.001045580969809 2.5957287776849416 -0.11004938595062339 -0.11659181505483146 0.4391598465665985
Ni 7.487992986897202 3.4334767775354575 12.802763296393758 0.6282696262854987 -0.891838039334606 0.7774031227217773
Ni 2.795317481187244 0.7221064921718073 3.798408009070626 0.7810342917164613 1.1369605869736998 -1.6154655109968241
Ni 7.425085082352141 0.5296576654655503 6.48560235664893 -0.794895880189902 -1.3294637086448653 0.6193352999103463
Ni 8.99479892185008 7.135603736799587 9.983276323846756 2.4167379841370313 -1.3786031464839936 -0.24510403569633268
Ni 2.051123693120125 5.745855681318571 1.919509784673892 -1.2973981955688882 -0.1481896444657706 0.5487461768378743
P 7.019623331318615 7.268206711114381 9.866902686405005 -0.33087140917113983 1.9568432190159266 -0.22435780428791685
Ni 3.4175448971573346 0.6585106619248687 9.58247810126611 1.096005484717577 -1.160726579045046 0.1303194490535691
P 6.829407730619119 1.3412985626085858 2.6763846127876447 -0.9123564710029319 -2.5957615832645233 1.7226632864312652
Ni 9.101422801051184 7.180608996572933 0.5553724571301936 0.1421166987988133 -0.9037057373064694 0.5516456098728564
P 0.8790106491119134 2.6016760657474802 4.164903880187437 1.521332024945509 -0.8359864795826247 -0.6916077242225122
P 3.8759778481532656 2.1814427909414067 8.090387514091383 0.3538421590347003 0.6426171532564223 -0.5375785902568291
P 4.239022118827465 3.4843022386954923 12.150130853685859 0.3830280365700371 -0.664236788408727 0.5508526816579158
Ni 4.882145162877301 8.046327116125433 8.784546909509727 0.44153734565983954 -0.9207140989390079 1.0115074648734967
Ni 2.901195416856192 1.6950323528999625 12.013080766634305 1.0970542376970656 0.19214162456668843 -0.09995729182194397
Ni 1.9063553928056198 3.217889887563285 7.2140245040596485 0.22749120771057596 -0.5439058180264374 0.9985460196168221
Ni 0.2632526816768701 6.004320510620536 7.643235807871868 0.7206542479665072 -0.5792430598751508 0.9407499345439604
Ni 2.592568187311663 1.0994747204992616 6.043182326809923 -0.9136211966479685 0.5017438399464068 0.21955472647231866
Ni 1.927306275961822 8.240953913761995 9.18455037990735 -1.7600003323188271 0.05333984907372104 -1.4986746925573093
Ni 8.075382077161837 6.058433648829698 11.96856175153377 -1.045681282541728 -1.0887904550263765 -0.34841353181996126
Ni 6.028319632161223 9.102104280327474 10.82017431643779 0.6752012578400307 0.180417908371857 -0.04831642771720066
Ni 8.304046001895244 2.961119547272635 7.901511848995942 -0.8575858030199554 -0.5355949841678969 -1.0132100493869003
Ni 0.9007922002508362 3.2406181423454856 1.973194696040521 0.0643130602557731 0.6725429942815773 0.4771633223935654
Ni 4.893536917806629 2.3273346111438484 10.514831080270625 0.8380469616560793 -0.14303149730359885 -0.2575162933177565
Ni 1.1486793660832564 7.037995644240209 11.9119105634794 0.18660552523980767 -0.26222449742670323 0.2247730374484645
Ni 5.10590059498554 1.3833384666121302 4.66077951282578 -0.35835727329623446 -2.1575689857072007 0.3424120628208877
Ni 7.533790236099749 4.862455937300176 3.978751369443332 0.9132447871451563 0.27668952381209766 -0.6190707333950499
Ni 6.490049469385689 2.627517023170031 6.2175544552536275 -0.8422851681071429 0.1930638792706417 0.6462488364717387
Ni 4.34087564309454 5.210737893381235 2.0949197876370262 0.4583086515809075 -0.8022926868746054 0.9174230868925618
Ni 5.342429158934506 3.284380162898573 0.8713504536792412 0.4143345599928025 -1.303246169709233 -0.08010760408586848
Ni 2.99042315615309 6.757548503688198 10.461469411101264 2.93993228064773 -0.20733195915388164 1.3196955735145077
Ni 3.7670700924586518 3.4468116693201525 5.4973404494504345 -0.4965576677597771 -1.1381949736014334 -0.9982935372863839
Ni 7.337312393401915 2.604549329723188 10.253831884795217 0.284993929912735 -0.4583924695439654 -0.20325444665039835
Ni 4.953553140017165 5.183091936794457 13.21454714909178 -1.62350303658932 2.0019329122657137 -0.15708257608002624
Ni 7.971198630504204 2.377911424459832 4.473239178744691 -2.1114138273073766 -0.40514492307373456 -1.3980386295007858
Ni 2.8154395381966077 3.7259142696784022 0.8057728080234171 1.2162909465739116 0.030641636145256904 -2.066239030542951
Ni 4.8891165116901565 1.0097588946936698 2.0235910094400817 -1.2588509314233094 -0.09593094427137026 -0.34190581260843056
Ni 7.703874570610474 2.9883971366830395 2.0732726905174794 -0.08068353119399653 5.156842841538041 -2.2663240783264325
P 2.5460434129357803 8.734418583230978 11.446603880972352 -1.2335062820109337 0.136051723551656 -0.9795442817033387
Ni 7.06193030152503 4.853891400449508 6.700369629653673 0.7285997280658291 1.0478253254679244 0.4544931344895592
P 5.736895149753303 4.3882292436172605 5.018258676382928 -0.1745470514133768 0.28209141155395934 1.3384283740373206
Ni 1.0248159030279074 1.1625760178119198 8.362694660963497 0.13370044971066006 0.3053087302106871 0.16511701634872852
P 4.762416621376737 6.968107181702882 1.0566262505435793 1.188885043757133 1.219686602519022 -1.0262144320663682
P 2.144394262177714 7.098767019162309 3.965622763277406 0.09947341020698998 -1.2343043524321968 0.1996865267934819
P 7.854840648667451 1.1734520586943264 11.660441026856754 -0.03725862724114229 -0.5771818064707479 0.9608976131364289
Ni 4.128171226277484 5.770950695208967 4.512543035545726 -0.5437986030246119 0.569270007822839 -0.12542998217175172
