# total energy = -340865.0023038583 ev
CRYSTAL
PRIMVEC
9.31116899899070 0.00000000000000 0.00000000000000
0.00000000000000 9.31116899899070 0.00000000000000
0.00000000000000 0.00000000000000 13.62783701740954
PRIMCOORD
 96 1
Ni 6.322823656906062 7.909530619418401 10.993017276259218 -0.32163086440947836 0.7708552943009305 -0.2991779347226009
Ni 2.7838532451451483 0.6668342508403975 3.8838924173393203 0.8480560091526491 -1.1296283149783448 -0.8974268462762931
Ni 2.313266774445985 7.139320048192361 12.45929078827761 -1.4315087362337733 -1.93671070993211 -2.4989382090858703
Ni 7.91936321366174 5.732327954515884 3.253686442289116 2.1233740849930465 -0.9805359561926469 1.0036995387933039
Ni 6.470927107696344 1.1344541831627353 2.423383449919462 -0.3732408752762862 -0.14224422551561308 1.9351078842213643
Ni 6.138779094582364 8.49504484650537 1.0876134174425294 -0.03471297800115312 -2.203510228324005 -0.4028730963204223
Ni 0.8142794019971537 8.308141755362826 4.465678452442358 0.7645931154413026 -1.7761499454954959 0.07727296285055078
Ni 2.2595413305216843 1.919218111209171 13.424618763753653 1.939896049638627 -0.7412379856551298 0.44859245273440806
Ni 0.7389315619062995 9.20525424604195 2.2130785982543943 1.2317286212852205 -2.3999250263447505 -0.32132541735391756
Ni 8.9229582306352 1.991295868820612 7.116129651201397 -0.09924766734942908 0.5021757852775028 0.5072514000281974
Ni 9.122412777308067 6.880730268527597 7.965348282970049 0.2759948117379182 2.029159094971518 0.011811133702315143
Ni 2.0097599165332443 3.4028318128671162 1.6261276578229669 1.4227482164323237 0.9501280333247506 1.3912486031621458
Ni 6.94074075138585 5.573488726109533 10.826947925286623 1.0592482225928854 0.7529830420062 0.09884194727057816
Ni 7.135167266911558 2.0788208554563883 0.6116059842732225 0.19074500132947794 0.6666158301638648 -2.85564611970414
Ni 6.034233291396566 4.612669218562112 1.601134618554057 -0.23135403310009187 1.2273171224810864 -0.09750857317113529
Ni 2.266152260363323 6.429743808133574 5.961811020539857 -0.4227304973659816 -0.14589133534989712 -0.30763532146133465
Ni 0.356768605631248 0.6331538910894474 13.06146362744863 -0.2849836455000898 -1.087911909076165 1.0254754970178146
Ni 3.0813171545125044 7.54022173165938 0.681854097217224 1.7552620463028934 1.24431185726687 3.3928205325440146
Ni 3.514603083034761 4.313380320111712 10.58156510743507 -0.2069177544345985 0.7858890487056014 0.29049454801599006
Ni 8.765152541964651 3.933074942010473 10.6525115580384 0.5306283841912409 -0.655660873814258 0.19233831395852682
Ni 9.254454461933806 6.399519754237858 10.38449328885583 -0.9196931138736614 0.39105399219830717 -0.5135477745598704
Ni 4.380895605015543 1.6776491480944284 8.797218345047236 0.13055624765472354 1.0023335116837127 -2.0595865582234403
Ni 7.997539786831312 9.173586960983622 8.094430878153995 0.6386993062592549 0.3655573905890995 0.7181631061135374
Ni 0.5878243280640272 3.3694233392448645 13.328596404479173 -2.1335816216536676 0.7211913514168999 -0.3631325831976907
P 4.04093552128588 7.942529401613847 11.387747517051535 -0.17548010475060744 0.08888792138165982 -0.6494236346552945
P 1.4706991105447729 7.136666365086914 2.730732096075386 0.6972260988505541 -1.3343781152273473 -0.49885880508912794
P 2.4580275156402847 0.3263331882039755 1.0618047197875244 0.7782546720887952 -1.1247303634560952 0.49507362701508284
P 5.79755269189712 0.5880338293618257 6.622093001901999 0.16788892266691086 0.8551756509165659 0.1961430324165977
P 4.7812386183551006 3.9746027548185117 8.777879978585124 -0.4258811271798214 -0.4930954202427895 -0.3972503508170062
P 0.9618437361144352 8.916235566768067 7.0649973677854 -1.6059084634360083 -0.8223766021086739 -0.5511599284856895
P 1.7753233087124385 2.78055709139312 6.826946164239913 -1.1563991553142858 0.6163088543791967 0.9000372873159468
P 4.228685928788412 3.6125286452101286 1.2985532908191455 -1.2991601725653172 -0.22861735089521917 -0.41915923507495556
Ni 6.871549456099633 3.013746002595927 8.549219088765401 0.20054064726366108 -1.572148593376744 0.4917317071260435
Ni 5.594392300045417 3.486027106015059 6.593679039219262 -0.10028870701943374 0.013828421242660056 -0.4250928269505711
Ni 2.4075144249488925 6.5053877433919824 10.073165049158616 -0.43963781464428153 -0.2376151835184553 -0.10577466983466943
Ni 5.305941602067788 6.142894631188004 5.535763594635754 -0.3440408566735623 2.029872576098775 -0.14894323480234348
Ni 8.944206317816352 7.247227183311724 1.218659738124506 0.3253239969903494 0.35145591819071087 0.9246653702772719
Ni 3.302280501092675 4.490907064281681 6.727885570588917 -0.1617956652849794 -1.1708531259560868 0.590714293739544
Ni 2.3249429801099493 3.106596977780178 9.064800851530386 -0.6964424266069942 -0.09019378467727691 -1.934776211913558
Ni 5.913597788539851 4.523254064661754 4.259911864446043 0.33649852554993015 -2.101937255275509 -1.4981694707861166
Ni 1.4765279022079638 5.799386992148954 0.7243288558913114 0.25937108713830814 -1.1790449177382596 1.1472164603737534
Ni 1.6376763004744936 2.3836685216750384 11.319212659165085 -0.905348415116215 0.5037205040568034 -0.8984797130208397
Ni 8.032326313434638 4.961558713162382 8.668012842435248 0.18381382142728345 1.8648782013708396 0.9402351996910709
Ni 3.6363559261464005 5.729227335308468 2.4392468881887566 -0.08327905983531464 -1.826800934883144 -1.3935949919071355
Ni 5.672177804125766 8.889270421949215 4.613009076222985 -0.3900972847119927 -0.31133539602074123 0.2019817505855618
Ni 7.110073667019705 1.617079995108713 5.047000791339602 -1.7734024646573459 0.6707704757621867 1.338538931473256
Ni 3.5780773206832808 7.309081277590603 4.008464682360887 -0.6734696198609047 1.1486958731327572 0.6437067867761752
Ni 8.207329730862234 8.927250679447868 5.650141992064889 -0.07302472909715811 0.03597153299860257 1.2121519847048736
Ni 3.9050669462870244 1.2289532352230004 10.966074478245464 1.2354510644421304 -0.40013872810839474 1.9175313087901813
Ni 4.779208783558653 6.353634314435612 10.00771125702512 -0.7786225969511752 0.11977972586450984 0.2875220956512274
Ni 1.7956216566769057 9.141761386055848 11.412836461358992 0.2656188678202329 -0.2988832863003175 0.27714435196132914
Ni 6.807358258454202 4.234766122008961 12.95786477012888 1.222633600962488 -0.5943495764992861 -0.1090559116891025
Ni 6.446010420011521 1.1375175576949874 9.951713887915805 0.6867020593907787 0.19977343008033338 2.243202147596988
Ni 3.5129643173275378 1.9491348965347826 6.137950400559961 1.4188609655627757 -1.1479623374008423 -0.11781051795328099
Ni 8.710663582199485 0.9438824915165189 3.6340123049616957 0.05618066095662582 2.413027882275296 0.5463231692186785
Ni 9.407911834778936 5.351277682911362 6.391564291622792 0.21819152757620489 -1.0874223710342563 -0.3078165842342054
P 7.273922304235636 7.109608108580153 4.997477477890698 -0.5214678007378954 -0.916731460142176 -0.10277316400418429
P 0.9380164551781637 5.062584894545166 9.064936794594734 0.8612514247970006 -0.5296184548694879 -0.6444976581085868
P 5.742868197587342 1.8506972200759073 12.164534566794687 1.4298208070083893 -0.16233533983853335 0.45947079020980863
P 4.186012842219076 7.484103317355782 7.079020919101586 -0.4713575143450657 1.040562473257924 0.2261514058532299
P 8.24650181796614 5.141776385112962 1.1774829563798894 0.08729949384861739 -0.7285542195398743 -1.2001786143930815
P 6.664915998288872 6.864007409378889 8.973576537533928 2.3883429779341063 0.9222619030421019 0.49828776307700634
P 5.126925070891253 6.636442444125872 0.5892759392785504 0.13646618538125532 -0.7191606941401163 0.4176939633833387
P 7.685168696229501 4.107994558918951 6.865526992125587 -0.20493080591155674 -1.3391670519755583 -2.2224775134551273
Ni 0.2748619782439853 1.924823434821377 1.512771626727087 -1.2577111613919112 0.8416261943669054 -0.08877093618782131
Ni 1.051100600145345 1.117908236221057 5.343202106218893 0.43195253018488194 1.2093682513121493 1.4245947827227594
Ni 7.381112479358088 9.13622124062518 12.791550535417082 -0.026086412674406687 1.4254609873777968 -0.06885131444575884
Ni 8.512000484873855 9.118008594469904 10.673498932493406 -0.014290191370427 0.3786206515309608 -1.2033778380566695
Ni 7.747004168170798 8.333365711617752 3.224509894882392 0.1371729816402928 -1.367401364230903 -0.09262193450279532
Ni 3.440625846989948 8.672571590675341 8.904591950194872 1.2546271231499488 -0.8091238508638258 0.20573067610503282
Ni 5.234683227309959 5.924584967713279 7.754934490630126 0.7060310987366937 -2.884364570684755 0.1511870365311977
Ni 7.738894140153802 3.368790179767074 2.5433764821295948 1.1187497203926282 -0.3535930191383717 0.7512118090383901
Ni 3.9340805482399053 3.314068440782132 12.657180127476705 1.4881835632179983 -0.32100454367938913 0.8798183891659105
Ni -0.15078320516834406 5.478617227297626 12.709265874576902 0.37177226115055967 0.13827238535205866 -0.9170603042365044
Ni 6.050909594701318 6.703724949809926 2.9882715759005203 -3.726185140450654 1.0789307886234774 -0.3554938357055103
Ni 4.280130136358908 1.402830001226882 1.5263724509801593 -0.662829109427923 3.628353379612144 -1.231757674750943
Ni 5.913337075813702 3.545907232510238 10.720773598679273 -0.3386253420849458 -0.9156228004590297 0.44873643451144013
Ni 8.58858484818016 3.3958949921177912 4.9715030414312125 0.11901379423276277 0.5624902658968441 -0.380960355407731
Ni 4.517360094817026 8.846411112004057 2.41026028862537 -1.4583225139925078 -2.6359461259032084 2.3330051245937495
Ni 8.245356544204842 1.9593120040233893 11.885694857243172 -1.486621360937201 0.916265576249351 -0.549983391679085
Ni 2.893771592723376 8.621322917649456 5.984787260648628 -0.5598988510205841 2.34361786711259 -0.2978851840531063
Ni 1.241374334390248 8.395564319141899 9.156938591185243 -1.937019242311464 0.5530342626902668 -0.3233002816921013
Ni 0.808167550802715 5.269469753913285 4.105290595502033 1.1464695549053998 0.026742815311482978 -0.6358890905039695
Ni 4.799972689962673 9.260022540870848 13.012322071920156 -0.6111807891240119 0.46018144312358816 -0.6783102357826576
Ni 3.1125002587936974 2.923008662727242 3.948433714931294 0.5457009622536472 1.4607054124023875 -0.5753982322077638
Ni 5.043282841641339 5.561635608238538 12.222874625971828 -0.8147481390291388 0.853720149416962 1.024096357282101
Ni 7.462454849916615 6.88656837135958 13.137275163745276 -2.4164327941917865 -0.814010746642482 -0.5199765609043497
Ni 5.708975543187956 8.892547953363662 8.525697214165476 -0.12005740500592874 -1.4986564377248643 -0.635580301014299
P 2.239522317620948 0.9890789048282272 9.69837281409855 -0.5797133146433501 1.0641847406625544 -1.5506346305643681
P 5.29073646343202 1.7165232777970205 3.9165448240557397 -3.371293457105516 1.1367934652682163 1.347218461525125
P 2.1433844998534597 4.533207704099376 12.40987641550356 -0.07248916830866226 0.7788596526626458 -0.021545587381259668
P 8.654498612051933 1.8256594871968008 9.603699643181892 -0.8372265226373129 0.29676109775099213 -0.48396594713769553
P 0.8513750984606571 2.6270066068600793 3.622565154049991 0.6319388476069697 0.7302334070145101 -0.907499914241579
P 3.531642521922364 5.060443325723226 4.627836181405837 0.14361179528710105 0.11626014274702559 -0.4202776649501149
P 0.02976594439119677 7.697543239552793 11.978200388065275 0.5804663907592907 0.595251005267633 2.311080042385884
P 7.900107716601869 0.11529368532129497 1.3482740010464203 4.487408568088775 0.3363036359303047 -1.7440893175155252
