# total energy = -381166.3087369552 ev
CRYSTAL
PRIMVEC
9.25737149794329 0.00000000000000 0.00000000000000

0.00000000000000 9.25737149794329 0.00000000000000

0.00000000000000 0.00000000000000 13.54909893668925

PRIMCOORD
 96 1
Ni 7.19494953600682 1.9682282858746338 5.0875644405764335 -0.8337876721590931 0.4170771557349462 0.46192490817725607
Ni 7.891140908134996 4.539157748314411 5.692545707761159 -1.711383342642072 -0.27993194200879534 0.011685149647412135
Ni 2.177565229360811 2.2382010131946437 3.97667429683136 -0.8358368413786378 -1.2808328350110394 -0.10894535425316722
Ni 7.782542682157181 3.1333055284125253 12.833666405255219 -0.607384041085741 0.3357912150702604 1.2310151401579639
Ni 2.1310284224397917 5.52802092287108 7.719002860859429 -0.05934363206563972 1.7255511495020217 -0.40352075720675024
Ni 2.2229078353483094 7.907582000056964 1.7389592956445445 -2.1646652304323495 1.7534113662473996 0.35236274627569636
Ni 0.08641015778042166 7.688330411611087 3.2017202815830865 -0.4891737165908801 -2.0063428684079514 -0.1953894420800248
Ni 0.4344308591347309 6.457340683440083 10.958023869740478 -0.5272604961602726 0.014175005948801394 -1.8715684689068222
Ni 6.955989003472052 8.751511765193406 10.460216119047763 1.2766722758754465 0.7901108000964329 -0.9421442437883258
Ni 5.680017706805079 7.641978752121621 0.1380264844861165 0.6207699754743438 0.20577078531434884 0.12305196885787839
Ni 7.135082114013935 7.078982442253166 4.17865070417612 -0.29983716557315454 -0.6118785865219849 -0.6173398667468722
Ni 0.666235443439948 3.489445870377622 10.692434507862501 -1.5539343843615625 1.389871263198645 0.371321032545754
Ni 4.255280448884719 9.565456903789729 8.943760526484336 0.5889237774980245 -2.1700177529935147 -0.08304740344048278
Ni 1.178759637729709 0.12230654181005064 13.316433704345668 0.33182503133366076 1.5016600004378782 0.13985901311288818
Ni 8.457701306060859 9.20848339838264 4.774431069749786 0.5923824254705863 -0.6761937036602871 1.6729908589068025
Ni 5.9945554209000615 2.229776805058951 8.486234376737597 -1.7193223949834906 -0.27573795853210575 1.5935334868104232
Ni 5.059986730646512 1.1330652516222588 10.793930478365917 -0.5426660320820654 1.0343807699272443 0.8024050440827536
Ni 4.952906713607437 1.8476602784468723 3.3233501095308084 -0.5909212675440274 -0.6350717368089966 1.8111218335849906
Ni 0.04406601444693547 7.363109690715457 8.461561630008754 0.76627950200479 -0.9365613503839096 1.4305450867689233
Ni 3.8672484618344996 8.132443555678918 4.669981071975931 -0.38070684463602816 -1.0442790028775628 0.11468534206073797
Ni 5.823932805351761 7.618622403631123 6.152646332543651 -2.7392880179266696 -0.03964409675418334 0.796895427118434
Ni 1.0852231553087859 5.825034432569505 5.3454044567067305 -0.589988471317113 -0.7584903449776743 -0.0014963820398683906
Ni 0.7868552921485445 2.757104462238587 1.874883431045369 0.28946122165546917 0.7657210583981586 0.40091777236626436
Ni 5.188525335002659 8.113188222797335 11.38361393901852 -2.5120989148375448 -1.6250266723226983 1.4062805577946038
P 1.2433853487135236 4.409295339822653 3.692413742218352 1.8258740521935006 -1.4089305938229415 -0.25758699865469187
Ni 8.834263409726328 1.5484990585424236 11.762609805671762 -0.7495184804963673 -2.345244861193051 -0.7887504294137965
P 6.951841701005249 1.0460274440488702 2.898653376610013 1.678849888790741 1.166115097050469 0.4761485079758058
Ni 1.244579549647045 2.7039764067542564 8.709861924728246 -0.48013757453054084 -0.12065981447661801 -1.1853207234446423
P 9.080324346261179 5.124492095799816 9.28690444449152 0.13475794444089695 -0.02031994250427468 0.08967493605932944
P -0.13621296539404815 8.786282452839188 10.561021489631484 1.5373350852419847 -0.5265732402852608 -0.6140938490057488
P 4.019874747035781 0.8647810688780185 5.051320905112641 -0.9286909464968973 1.5381208143680738 -0.31054581023991035
Ni 6.25965877077021 2.3855691113398017 1.4948988771076308 1.3778516130299496 1.1269271139970978 -2.0462060231514756
Ni 1.6878873023876173 9.344205723083071 9.178769087092588 -1.6637801389418119 -1.0063223211281316 -2.5397953523115486
Ni 6.900759524639588 7.066670138054847 8.42365084192382 -1.064819546033076 -0.2901351077940423 1.321769425324401
Ni 5.316443695463103 2.945408657500265 12.604659398640777 0.4258559303688408 0.34024436574560757 0.42255231991690445
Ni 8.248845745896721 8.304482549078603 12.45439929761475 0.2183609632745336 -0.3721422428954688 1.2215668502608705
Ni 4.4236164936533315 6.144367465141728 8.364007448323115 0.7925433207973254 0.2977910816774033 -0.09959836582062848
Ni 3.597118359197669 3.9021765247971025 4.428970031636706 1.102389790977366 0.38562485076293584 -0.8115671701979958
Ni 3.5456751453404767 1.5138116872408403 12.638287726633873 -1.1427679376840965 -1.5768292866818652 0.26428575083110617
Ni 7.075686817971511 4.3895493662474525 8.73656759025555 -0.39509448081626797 0.42006734871152174 -1.1250944316637332
Ni 6.724156647052102 2.635647747139368 10.673031982772834 0.7322298686192487 -1.42860673209563 0.021339384907724537
Ni 7.707622773978981 5.920977831600627 13.22009964423397 -0.6914130917132028 -0.22388677818876926 -1.4460534668171676
Ni 4.598904824476785 0.7710020433217601 0.9739671379510171 0.19252549026866841 1.6908242875437978 0.03995545734701506
Ni 5.073178485144712 5.3145459342896775 13.247618106985795 1.1068704524565387 -0.8991124615088322 -0.4523105250159436
Ni 8.0792692133367 9.039665970291988 7.2875723158530255 1.9397726366868853 1.7818919901855956 -1.2711022379868366
Ni 8.129370108315127 6.448138856091863 1.8259304501425737 -1.917469088093678 -1.8105363933951655 -1.054368783013397
Ni 5.4491573744007855 3.386457611575883 6.203535955580498 1.3075545672765998 0.022619537171728786 -1.5914187544602656
Ni 7.8429192595868376 2.3381158246325917 7.403661606911503 1.5424914326319434 0.4368625658919896 -1.3160325228406238
Ni 6.473124501980034 0.712182555791469 12.703756784168416 -0.8905972249489694 0.20113148677012455 0.05074534887366744
Ni 8.619335013807229 5.301798533627205 3.652715355681768 -0.4720108316583484 -0.3095901311948604 0.10849926785468411
Ni 7.875681097600264 6.993398042017475 6.42769302522539 3.012011615112484 -2.22324575907972 -1.6462837819292615
Ni 2.7236575787284134 4.747957764249081 9.759226651230872 -1.1598035530101445 0.5987924427619881 -0.5427467647213298
Ni 1.0843066755225952 5.250855217835209 1.6475566373722776 1.0293640334389431 0.5047106358842146 -0.6140460264869488
Ni 6.179480675535885 9.172870289923289 4.495916565675047 -1.7826489229562783 -0.11306606128976011 -0.5284339476430835
Ni 1.1328708468191275 2.5001753714715345 13.047295066204809 0.09727074612871635 0.9725411109126282 0.3839348646550227
Ni 5.400519144131632 0.9512875033228482 6.652580501487761 0.08716296827075311 -0.6908914148817779 -0.1464430940883091
P 5.994222155523265 5.332134940287278 2.0622137508170746 0.5136534468997993 -0.37415901621518144 -1.344577167247536
Ni 1.8512336238758587 1.4962226812432398 10.930193433566485 -0.05003649573210092 0.627014670832475 0.08095555390846057
P 6.1937277703939415 6.164761454727367 11.462415463099244 -0.8291401460847527 0.9309226640408934 0.801872054397419
Ni 1.1077648551004475 7.816341345787307 6.386368118502608 -0.5338538331070741 1.6910639143584294 -0.048421585836497257
P 3.500073332948803 2.6751396942897694 9.836347962370244 0.2600542292482618 -0.9256012518279801 -1.3002333510248383
P 2.808621735068401 7.282653874333802 9.376491732197405 0.06433260063979888 -0.16905851749497983 -0.5317650688988454
P 6.100450494377194 5.514014519674043 6.615496396684716 -0.19628521442141678 -0.46770834762825253 0.8621981049809861
Ni 4.738394899409333 6.312416531391434 3.470344209864227 2.0547557124936997 -0.8516002748604817 0.6094959452224213
Ni 0.18203695470358588 4.368016719957759 7.252236928541003 -0.28928947196429533 1.4485978305055762 2.4777780300684875
Ni 2.877172571601154 3.5219855314731823 11.724915640081747 0.27492754681566844 1.1997289284501726 1.4459333962995355
Ni 8.37625495092039 1.2677692654491446 9.445374908369796 0.2580639382911104 -0.09217687654557673 -0.5502135054120202
Ni 4.3412814308414065 3.860546124812256 7.9468443643922395 -1.8081007873704797 0.34466846295523224 1.6913158824682355
Ni 3.121863417142507 6.097043781636605 11.711231393415613 0.33304784799716836 0.2303379331307517 0.21969125205018292
Ni 0.04313564860337819 0.74303367231126 2.856109274050448 -0.2764264999586981 0.31154339826648925 -1.4402345461425452
Ni 0.41641693978171485 4.741579435232056 12.61620334099815 0.8309021230811818 0.4717251820971295 1.4925392690835326
Ni 3.581917755067111 6.245652367573173 1.1520937789001893 0.5915668715478264 -0.07567476512549548 0.7315336138831724
Ni 1.5815571324463344 8.81078671540532 4.071165214261942 3.0676307471386846 1.4671527106896283 2.230218076632495
Ni 2.2262775186025863 3.5640602852937575 6.366003752506017 1.8717867555652152 0.32172676655739435 0.2203473975769431
Ni 4.376542759180806 3.5812512243135175 2.0672941963389078 -0.9300389758843596 2.1771006279822247 -1.4478367839698356
Ni 1.3098347618981423 7.186340180439572 12.831362245469531 0.4354196627978759 -0.9914937407557312 1.3211981262019632
Ni 7.158938360569627 8.432104673648562 2.020915690471867 -0.5850725220727343 0.5839620626173749 -0.3890750140950654
Ni 3.0238185947632523 1.657837874246454 7.7768845766489 0.43553356266792087 0.43617865245108756 -1.948026906275877
Ni 2.768731720940159 8.6761382458079 11.036852240198778 1.009428727967597 -1.4923886024382815 1.4853352951359255
Ni 4.915942028897742 4.313194565474712 10.399014709810533 1.5171652951623291 0.5620696334196578 0.44389041927304845
Ni 8.179878327642973 1.0363442333786124 0.657108600801509 0.7812206966956545 0.3646896432721654 0.3535840202773072
Ni 8.677610167888751 2.8804959679975424 3.6746784697498245 -0.5514152390296052 0.938273705089326 -0.6488060556759536
Ni 7.496600988865666 4.601330255830138 11.062080429222283 1.626663950815805 1.8660385402275281 -0.051641121215059455
Ni 6.142515990826191 4.251503441281023 3.9873369374145367 0.2624088455233674 -0.37543376916254695 -0.5696728996882124
Ni 4.45684120024564 8.293281129469607 2.266845172330315 0.5875220120544915 -0.6761633646429839 0.846396362062039
Ni 0.28476878431262287 2.7743046586299247 5.762269453272805 -0.46877355566797335 -2.4383997853811814 -0.9488144567196499
Ni 2.5932397279419956 6.432595729212932 3.387138954124 -2.31892962033729 -0.6387396725788871 0.9655397398941308
Ni 3.416034913766584 8.36634956333227 13.411209748820845 0.795041918849463 -0.21905104736302275 -1.2761290017774667
P 1.0059522824890745 0.9933067129139577 6.8521860959714775 -0.4689707592804439 -0.2943877124228091 0.6246477132621953
Ni 8.280339324004004 4.078575740209879 1.3741086927620052 -1.6150099115166443 0.20194678358256835 0.009038713163500562
P 9.422523086630282 7.894214355498788 1.007733400780621 -0.7197417634545669 0.6711540843538506 -0.49646202272217727
Ni 3.436336329636446 5.816008495281262 5.569763337052016 0.7957062919063393 0.8784911857140548 1.5126468384666851
P 2.9133781518414774 4.591304522411506 0.09881225848304544 -0.8070392004206552 -0.26622281995281893 -0.5847652752449607
P 2.329302806890636 1.7173442587478094 1.10089403391549 2.5092912701854204 -1.894304477051757 -0.5036428567413326
P 6.451758488378738 9.262555705767895 8.440654782037711 -1.751476611118532 0.6771015601865371 0.9313165570452026
Ni 3.300567718078127 8.004080841382745 7.1705628420597245 0.21244176957662123 0.12939179503297715 0.21302849531802667
