# total energy = -340874.5908906216 ev
CRYSTAL
PRIMVEC
9.24029491471273 0.00000000000000 0.00000000000000
0.00000000000000 9.24029491471273 0.00000000000000
0.00000000000000 0.00000000000000 13.52410563100630
PRIMCOORD
 96 1
Ni 0.20922800034551492 0.7219331622750813 8.64551479470365 -0.7931300465387309 -0.23836517431060242 0.736809260459815
Ni 8.091144218458052 2.860887743981578 11.331023587090574 -2.0611515887177143 -0.28458023941408406 -0.9292511898757415
Ni 1.562256680581911 4.226307659852092 1.514591542703436 0.5793685297094215 1.8738726915599666 -0.941668846813804
Ni 7.790363374963512 6.120152327555798 0.7255211688349084 -1.0083120978646505 -0.038611027503978664 -0.17335997308381113
Ni 0.3117934271103052 4.821789232711977 7.346591737981063 -0.9181684496990187 -1.3902988376543668 1.0455894941588701
Ni 4.950783751319201 5.5503218136968915 8.436688747191905 -0.7380446755288128 0.031885278744370894 -0.041013980518516464
Ni 2.7712568821986214 5.544444986058339 3.3406706587517117 -1.120486757688393 -0.29780188031068067 -0.9501570867904734
Ni 2.2886732340051457 8.374405462577283 0.3298175465942058 -0.04659918791577781 -0.3328341893244655 -0.1276555290681608
Ni 1.5668860683915253 5.475641749271133 5.684168411223935 -0.11564102110578794 0.7988713198978822 -2.1005154352273174
Ni 8.706898998611935 3.456757409232688 1.9239929782953815 -0.8190174558284541 -0.8840709937946775 -0.24166955609348703
Ni 8.113866103934782 3.0048053390609137 8.527625262662484 -0.2889799111436765 1.6061745726132015 0.8582054388818252
Ni 5.7350445516250455 0.8480105197415967 5.699031425778355 -1.2830784365121064 -0.22212223008917872 0.21312928256194907
Ni 2.3978658003648574 7.557166049312328 7.2888842474648845 -0.046713087785822775 -0.4599207332630337 -0.3430322129033899
Ni 4.273867458367235 0.14058369663281073 8.063450130226123 0.22945193098137256 -0.20080058579326707 0.32783185101386764
Ni 5.650920905679475 4.883107830525554 0.8876929667443709 0.19885503203112204 0.40788083394765884 -0.7702798814134346
Ni 8.339172217631054 3.517595511704749 4.336396534829634 0.7531434788434641 -0.7362071080994418 0.6278690484129702
Ni 3.3820681045119 0.5490065849811668 1.9290649762368932 1.8449801768953324 2.0021231738996486 0.29665182586663746
Ni 4.534998195891602 0.6620080009519027 10.54358227723569 -0.1934156061831056 -0.6637197395629924 0.5701146152113215
Ni 3.349163413913023 6.062058592707401 1.0153642751034182 -1.035387356814888 0.5301493876722935 0.06297017307463348
Ni 1.6589656083572126 5.610476134336794 9.094055347950656 -0.3328627285695558 2.195533123655799 0.2655836437069233
Ni 0.1990950928165262 5.428368399901895 12.44377317956543 0.44205105207146456 -1.2310485644990603 1.395069776680449
Ni 7.245684944174008 5.145319682568334 2.917906832518083 -0.718228412133834 0.392861220610375 0.5711098892450551
Ni 3.794360828418473 3.740610032233786 5.626650346755854 -1.0115992532563545 1.6749814069742701 -0.698251711901591
Ni 1.474039583938417 3.09889926334296 5.228825152776454 -0.28906270066546985 -0.6382511629782427 0.8673598516875837
P 3.230518025738469 5.476889189100071 6.935648097148748 1.0676508448342839 -0.5008812348357954 0.7657907352938295
P 5.090071958588922 1.215403726071926 3.573176810334714 -0.3114693504954442 -0.25507888752085744 -0.6688092382707579
P 6.563002707123839 6.879048518006568 4.299623856731546 -0.20414224857199037 0.7080309027755419 0.28050221268996856
P 1.0103985405547418 2.2970449413015745 3.2192106767112727 -0.5832529523654922 0.4769092974012302 -0.15084945068612085
P 6.496611187339246 1.0268924671818118 11.489756147190178 -0.14193260781246522 0.4293865692299186 0.600579616569398
P 0.5021444287407271 1.6387016413582411 10.812698477724265 0.6175848928781428 -0.08038142657254543 -0.9331962905664185
P 0.7480000345523722 2.5008304078749077 7.446575426314703 2.1632974035505455 0.7717482384288451 0.1913813493618962
P 7.1618569876693705 0.19182944883508918 7.216138176788732 0.28646305825909374 -1.008234964769812 1.3975529481136189
Ni 2.972316461738349 7.893826958405137 9.72640200185892 -0.022069063984897476 0.0219883313456331 0.17684227520545673
Ni 3.9401172422086135 3.0344482055144937 0.8730387828576088 -1.3492889709009086 1.3106010674124076 -0.6816333866186196
Ni 4.321990914879156 8.136246098495434 12.54596160229303 -1.7163062338649864 0.3056049212948672 -0.6728170738785703
Ni 2.7632732672934175 1.034109137599594 4.295201451530584 0.9149905661916694 -0.18431107277867612 0.30770139881257974
Ni 6.785250283165456 5.396295335855643 11.800390841303825 0.16174707143523112 0.6029452885880972 1.3546057551281316
Ni 1.2247826255265342 0.45562785953437823 6.54415250526433 0.44664612764131467 0.007139439258258671 -0.080376541476539
Ni 5.124233329311767 1.2694224908124583 0.08496174070471696 -0.5411429105693197 -1.920401174138809 -0.8240601604586839
Ni 3.0079655199608903 3.2121483192204776 3.1382148706330764 0.5840358532781038 -0.7073379904735753 0.4278032839031987
Ni 3.177478732271029 4.74720157123651 10.818202921473143 -0.8636692902098738 -0.6456212301900688 -3.2166757976262152
Ni 5.04785305060064 6.561635143459522 2.6315343810625293 0.38542404760603943 0.2091445868825882 0.673836259171704
Ni 2.378812312014707 1.5168498708085654 9.301365987077618 -0.5339659332049063 -0.9055013957543114 -0.6891176108108067
Ni 1.9975854599962068 0.26325785344008257 11.403187519179887 0.052295724079922834 -1.2179421090240896 0.4631500388336088
Ni 7.3828201627019325 6.107363759235426 7.865660691097219 -0.99485031593279 -1.3221088109416907 0.757211735375567
Ni 3.2400078087334276 1.837756076876639 6.713244360121139 -0.7633247902518403 -0.6546038933046533 0.054844201533389425
Ni 1.0667458596426256 8.916173200432597 2.3374795483197235 0.1628397902787776 1.180225311199606 0.703338382395879
Ni 0.2928831633331071 0.7376425878541746 4.437448401268646 0.012752414569661908 1.0733687211546674 -0.4264233728365366
Ni 1.316843684902163 7.9464781594813525 4.8826485878626045 0.2700455361330188 -0.9597771263787405 -0.5382128814067183
Ni 8.898367151911385 6.654426186142455 10.707318457093589 -0.14439109665528682 1.716997603505056 -1.5237365206219433
Ni 6.009102461895223 2.5393716784415794 1.9590072282494184 -0.06347899439025197 0.5762178998955818 1.0637993322986776
Ni 3.6100723843566898 6.833780312658661 4.932322565880421 0.7995822299219778 1.2043638561190226 1.370280485550911
Ni 8.376844900464985 7.709751041129025 3.134995551844913 0.3909290365846687 -1.040228486957273 0.1294722705619254
Ni 0.32308691569495784 3.1745865199268986 13.043593994971012 0.014539588377071734 -0.983669616725622 1.0077222867994515
Ni 4.183672938587498 5.398189596336623 12.492487090929714 2.1047726678417753 0.8651340476808584 2.414691643130964
Ni 8.2724757681105 5.645552294267526 5.421259840935954 -0.8385218444099688 0.3005156796974179 -0.817258049935186
P 4.492160188136366 6.658843047166399 10.691927821693003 0.11557622930612355 -0.5406826831034495 0.13923963436133438
P 7.042906669758854 3.9406716599103637 6.5444232459086855 2.4609218777430972 0.3447412251746966 -0.09742346965649673
P 8.032412903252641 0.3518593463567899 1.758945600572841 1.5987649104126918 -0.25082782555398736 0.4673969870354208
P 4.9256871100199735 4.3238944156551655 2.88120253260321 -0.30099596176794613 -0.11218622978796809 0.5416455612373511
P 8.059542409458286 4.811735791720239 10.044407679317336 0.8862410048628028 -0.24505132808152633 -0.7787766060305362
P 5.6412370764889035 7.32834862350497 0.36918767162499394 -0.02008520078564928 -2.3412231416281677 2.0765365558142177
P 0.9046378197688643 7.695899838880298 9.014979675179521 -1.1856284844930483 0.7556593032867824 -0.21873480167418458
P 3.4767164464956966 8.885587823886041 5.885853558737137 0.15460943194918533 0.5030466179182305 0.6286349800447174
Ni 6.391465870202311 1.4684307248557102 9.036726709530674 0.35289650729197936 -0.6686554863017129 0.34624069253835854
Ni 6.228577949428088 8.015918976625573 11.215094845654598 0.3321186513146796 -0.4894709361163248 -1.312337847597856
Ni 5.520263133966999 7.839290737142972 6.675525475812063 0.3939775936030053 -0.9575706056457248 -1.4166349044457345
Ni 7.382182582344919 1.6960191914241876 0.19830412356202917 0.9876597117216217 2.0596161259097947 -0.9749507487953856
Ni 1.61609063942186 1.9562443800356963 1.1143296829248435 0.5066554183154113 0.23247991917441896 1.010356639098505
Ni 7.838542273245609 8.351304725004356 9.212404122654773 -1.0232594632031022 -0.8423221919926654 -1.4415830897506399
Ni 5.379718246573311 2.8592706923514735 7.223062853883593 -0.40137028652265067 0.030391210697347657 0.864629340130298
Ni 0.8131718353931141 6.7898889112701 1.4711113344436726 0.29143994264839485 -1.4209695272653462 -0.08085245267169301
Ni 8.188093393904111 1.9031404045030518 6.437054713787732 -0.6491194731513142 0.023473143421275704 -1.8030462556657076
Ni 9.005221923628715 7.300535335467166 6.86065755881001 1.5859615880004363 1.738847866610928 0.7143691862887439
Ni 7.803290547709322 8.795864559152793 5.207809025762108 -1.0478849750612662 -1.2266884877581519 0.6510285172485691
Ni 5.862385057422049 2.9627065549080114 4.746488220460258 0.3887716239220337 1.4246883708778302 -1.1539434946849416
Ni 7.157745056381389 8.706677231531236 13.413722328629976 -0.35641429063725066 -0.8474908806777985 0.044258198487427
Ni 0.23657372945484306 0.5947543616410887 13.538170622082848 -0.04344444433688002 -1.6684726593214747 -0.6041624488246498
Ni 8.433340064273334 9.141562476784133 11.32308432560151 0.7958906400030035 0.6722987394812551 0.6555564870259097
Ni 7.4444714111365595 1.4374757365079882 3.5180390458661486 -0.12082256530672741 -0.3704573989938781 0.4046317308827418
Ni 5.686006305905236 5.377546777241456 5.844348001525107 -0.5865948722545317 0.8630740798280362 -0.4085945721852318
Ni 6.117749850848214 3.9536265535412616 10.1424980311995 -1.3276819341540942 -0.7996429079565841 -2.4555503290185388
Ni 1.0069796313939487 3.8245765931638616 10.595569101099308 -0.8166574402367097 -0.2617868956686524 -0.26157606520942694
Ni 1.942818231358311 7.104151345212199 11.907109780684227 0.19189197044972758 -0.7079198311189744 -0.29003586321201663
Ni 3.024755136028894 2.3818893302594213 11.356786453661405 0.4338505185385431 1.6104714002163425 1.1407665909833515
Ni 6.25842410237231 8.691430744733104 2.5091947229353133 -1.4785699513876343 0.1488815283264726 -0.244978565862062
Ni 5.581849700336423 3.1831892345990567 12.16320178532919 -0.03478291200714009 -0.5222021078007588 1.497878421908259
Ni 2.6795839152142173 3.7076221789796464 8.480898938758974 0.6984324604538295 -0.350750407483254 -1.2961375836889097
P 0.2671988392700239 5.592753248470845 3.471827406395762 0.6247664982282466 0.1904135861319882 -0.35339658685684944
P 2.149884002667 4.236093132287984 12.78126756326987 1.1454251728012852 0.8549614780232307 -0.0736515640478796
P 2.9463050312312333 1.0881186620450976 13.173046832211684 0.9496657489763516 0.027980801483642136 0.2891012672128892
P 8.886705899584571 7.44502582883831 12.986617411791642 1.915328387601592 0.7011058935209344 -0.843045186201619
P 7.422109897165966 3.836884666142717 -0.009015755859961972 0.0767587422182936 1.2696595920030391 -0.029100002689749885
P 5.625057319892825 7.652627537258692 8.793197810007374 0.6267521611997077 -0.028701481699750567 1.1291680875124748
P 3.2406269085003823 7.894880352038462 2.6071908238081782 -1.0703332767624534 -2.601566362871758 0.2653172774194141
P 4.367554809667997 2.4024397464042972 9.192186357130947 0.3575268069751391 0.5329056102611919 -0.1676222992690855
