# total energy = -340897.51275288843 ev
CRYSTAL
PRIMVEC
9.02626957187136 0.00000000000000 0.00000000000000
0.00000000000000 9.02626957187136 0.00000000000000
0.00000000000000 0.00000000000000 13.21085790775163
PRIMCOORD
 96 1
Ni 6.344835484146812 1.9698478822681909 11.492798489675145 0.5270306395376536 -0.17860090976777626 -0.3619416482133831
Ni 4.579495785573035 0.2899012044756736 6.003211951286721 0.13360609022464087 0.7286570636663258 -0.08920930927682055
Ni 2.625344585630155 1.5232009981374288 4.79900292097531 0.6305890184472946 0.508198594432815 -0.2659816504762903
Ni 3.356761240135418 4.12937378775898 4.70141360510609 0.03946283398131269 0.539939891400154 -0.042538901803475124
Ni 4.862577643587079 4.459067300475675 2.8090381923020455 0.4837306911984378 0.24565065222842208 -0.7197232515118056
Ni 7.004926558586167 5.91362352053145 2.7081335277162726 0.4855356056176606 0.8435203260658246 -0.8401773777355207
Ni 5.123978402725103 4.527694026018714 11.55523319447341 -0.27062146324114683 0.26230728694849664 -0.23018829492676485
Ni 5.513669527527104 8.071614960240007 12.611164088366866 0.719174063876555 -0.7026135884147126 -0.3739188751799173
Ni 1.8522716982719232 6.6353549880700315 0.3322596810807468 -0.3747470275081675 -0.9458738860340872 0.30160428477590634
Ni 2.5194303415788575 1.3697092885676043 0.4355662359291793 0.5131500249008195 1.014085252903002 -0.4740414889351319
Ni 0.5256890218274393 8.896399344459487 4.689140586729019 0.20675088983943102 0.7644799869022059 0.5665965747557339
Ni 8.606403364156087 2.476122301442661 1.4380146789233048 0.4695436010647784 -0.20663313331464414 0.17331857832291442
Ni 6.717349618457111 0.7485629556813191 4.828515211102301 0.46399284644987826 -0.3295444628296002 0.5204779260208003
Ni 0.6542799622593467 7.410386575867937 2.488450380062506 0.23188033791720708 -0.07049116404202697 0.07596298578987562
Ni 7.7114487623420285 3.817389815423114 3.743072027081853 -0.4703442425892029 -0.6086971034702097 0.5701518962071601
Ni 7.427527461282409 3.884572337876992 12.724235261351883 0.44027647666954495 -0.10915644182270878 -0.6328359054999424
Ni 7.952116180881295 8.806461597082025 7.006206483573936 0.3639003146016507 -0.08254938075814171 -0.6641750819328561
Ni 7.066657214378465 0.812987952861832 0.5982566165500244 -0.3661757408993887 -0.7781731681185824 -0.6869961935924297
Ni 2.0318132210624773 6.370479115248715 9.117354293458645 0.6139264701899492 0.3300447995047864 0.08207346956298768
Ni -0.03109910827120684 4.886235495441387 1.3384847151530268 0.3340099548001215 0.06541657773259701 -0.24443760575692738
Ni 6.284738583099126 2.1556987673045143 6.962029213703451 0.2554807509449665 -0.8012177086428718 0.9244856501662981
Ni 3.475240051062411 4.300051514089812 0.4177709459899316 0.11542710532276895 0.48760611499344414 0.14215500823591648
Ni 5.975498596632665 5.516855800592563 4.804722867835315 -0.0142757931927238 0.9169438332632982 -0.3632074022996841
Ni 5.335265314669264 2.925973511177498 9.214163739659718 0.5716197390019382 -0.5709520235109522 0.3233010530230496
P 0.12911265879786665 5.672757524067425 12.397768639912533 0.13952631236381777 0.04430602100622692 -0.45455869762017204
P 3.9654567371392795 6.219018316273022 12.629302376539789 0.2250802842762382 -0.21670388728708487 0.4657831055810817
P 2.395553821606128 8.539103500201215 1.4905150717220068 -0.6878428578634411 -0.6975626562543664 -0.4603688765440459
P 6.370470088979408 7.725493637384113 5.743882720954711 0.09066866743116643 -0.019345751516463457 0.1927247507636681
P 4.621467937851757 1.0090015145111906 12.668340088666724 -0.5573989674168658 0.5060902898405607 -0.695600390321673
P 4.085127015614829 6.102110076205491 8.046323353641085 -0.498105214752555 0.9822007454895794 1.4600371826907694
P 4.629420081111446 1.0633847870873854 3.744789726131023 0.8588261031849596 0.8751986310057119 0.8051640948851294
P 0.1885154397358243 5.441161506181946 3.446580743384954 0.08219379719093586 1.1697745481799273 0.9500565566568672
Ni 1.416718099119774 1.1496307903181806 2.7478057865755074 -0.25058485630524585 -1.3468569644206483 -1.4087184778121353
Ni 1.8808849719759129 6.328570146855142 4.861027833147024 -0.006876415404859126 0.8804459954475804 -0.7872075104067088
Ni 6.047113017316404 5.526893012062228 9.106217682387358 -1.0711735132755618 0.822822688507157 0.13602138453435283
Ni 8.65563263695784 2.2918690660737213 10.298537310767257 -0.09456208894830166 1.0038406923568581 -0.6027123466416846
Ni 2.3552063978027102 5.09150188575761 6.971105127491893 0.5590380456821856 0.6890217086628908 -0.7165199140831595
Ni 0.6256350966127818 8.737717530037992 8.906060160499038 0.3127091364398163 1.303452372182768 0.5277004119111686
Ni 1.4815267127458451 0.9830780690607622 11.374139153362007 0.29052462992297706 0.7751372095057361 -0.3135318894514278
Ni 4.114191602784182 6.896484959128839 1.672983813648903 -0.08378839537156538 0.08941139798529762 -0.37970925660944926
Ni 5.7959299950341885 7.83627304059202 7.902233406181695 -1.0227398432542065 -0.050307747115616586 0.5519428293983011
Ni 5.427883864030979 2.9047527520361482 4.939843411484088 -0.7729692553201397 -0.004365990278179578 -1.0952529228222685
Ni 1.0432381539935984 7.316387007302213 6.967776239371378 -0.8692439560841739 0.3355127645978931 -0.778768121390104
Ni 5.06288861205362 4.732184157174513 6.78784387911982 -0.27079861224895946 -1.1257683178023064 0.6698621050153043
Ni 8.093548794656629 7.117267506384229 9.092531150236772 -0.6436515080582076 -0.45951655584607953 0.45913628968852543
Ni 4.594732128163677 0.4168854689708901 10.486250315161666 -0.0054921334628228 -0.2802744129498786 -0.463832152502298
Ni 8.230089170467433 7.061566398489175 4.700065983098518 -0.5458014923872535 -0.7717947753960643 0.21651054032935615
Ni 7.3996543416616145 6.09781357201524 6.972994325657901 -0.05302643159836029 -0.03428540354543127 -0.46871699139842504
Ni 2.251991008274281 5.310018839416879 2.566764097826088 0.2726814310939691 -0.2814944013999088 -0.4125694976725797
Ni 2.4739559968089204 5.228430391148627 11.335986015627183 -0.6243821183056343 -0.2299808069016491 0.3302975389455408
Ni 1.0247433281830387 3.3160347130210956 3.566521809939722 0.5530136938649766 0.5116253607261769 0.5788951896174288
Ni 3.4149987297058093 2.5771984651452717 2.543922220717156 0.7617538462202945 0.11492933975074399 0.10626189388373312
Ni 1.2425381802977278 3.3653993798624584 8.056152960916684 -1.4843137958499468 -0.26285750302501176 0.9866050452048621
Ni 3.6282533683589504 2.788945716824102 6.96911032197499 0.3097621379963504 -0.6076018135235018 -0.02281982610799296
Ni 4.135692176274056 6.9340342394470085 5.965904574985986 0.1273688510656774 0.15440682902007602 -0.170870373892738
Ni 0.9202642609515941 7.3923611160613545 11.073063427483955 -0.017798975854633862 -0.7328057957273767 0.7945330975338445
P 0.33097704821218626 5.516964115824251 7.959898630278007 -0.27803883875114055 -0.09925435221764842 0.17771593605966168
P 8.582980195303767 1.6184371655982468 8.106737076741455 0.17693843446368884 -0.163458397699383 0.3415869958164311
P 1.7748353338850062 3.361039691787056 10.320665209973985 0.6721596428002296 -0.9016979628478212 0.21313622454048456
P 3.885556201231483 6.2059482783161215 3.8938080166321725 -0.05190388795814287 -1.1235494557741166 -0.8998513965573857
P 6.840287406421886 3.951348678212044 10.394487456130278 1.2192551714085584 -0.12361324067798712 0.42666145698927166
P 6.333525568704824 7.922825936979261 10.367458292689712 -0.49652090098457063 -0.20387022585752632 -0.7130455823813139
P 2.4367948460709634 8.570054577655782 5.60432305806063 -0.3186303870202577 -1.0114023067542002 1.8385454770135818
P 6.746892597899748 3.9243872117912817 1.666919965928291 0.2820921828849077 0.45582265193426014 0.057302176155578734
Ni 5.3599070298780624 2.728090609154607 0.44622445472718275 -0.5592589034437401 0.6442947980691615 0.4900543194236206
Ni 1.5674929016281154 1.1165404870377937 7.151513172135943 -0.3740705702664332 0.008098460737418312 -1.376950441371919
Ni 6.834212727178105 0.7193052063487918 9.114527265911613 -0.413305861617972 0.2708947715071915 0.3350890467969132
Ni 2.834474219209882 1.7050983772171755 9.165666497298782 2.0568825290287156e-05 -0.5873134955881111 0.5829955849390476
Ni 6.391961636199975 1.9992283888632967 2.756049478333821 -0.10337634480582197 0.14567767667719428 -0.6588225593716912
Ni 4.161805173379937 6.889272969952344 10.54119411906184 0.669651274556079 0.20903300100538838 -1.1137193570575723
Ni 7.989114858771721 7.040589348619121 0.5167954386790037 0.9281579568115629 0.3184671219695161 -0.2736954741807803
Ni 7.622630272358666 3.940842100738403 8.21433923315321 1.0877249898763397 -0.9354272367794664 0.11598117805402605
Ni 3.076594867107616 8.289238313237858 12.408112744538641 -0.07730433030911847 0.7035936929397948 -0.4815100293980353
Ni 0.18138107647537213 4.926673181937877 10.184818051645976 -0.706133685752829 -0.14058946352100948 0.16839980086505837
Ni 8.585480471901876 2.286020043562622 6.045472944183276 0.33688239125191016 0.4208163110624043 -1.090724953044928
Ni 3.621898874766645 2.7304193866358784 11.574494350548154 -0.6186341600782636 -0.4938994042013236 -0.3257387159302648
Ni 0.8643167359044526 3.487353304472743 12.495133201676 0.6258476471075674 -0.2917518174618588 -0.3972876318128448
Ni 3.0867764988861963 8.35042739287172 7.891294470408237 1.1603643106096209 -0.03066066230865042 0.24880976668269408
Ni 5.453085207936827 7.784290755651553 3.664242909340827 0.9716857048908686 0.08198193829044591 0.2594806161329789
Ni 3.2122867736035383 8.441493423912588 3.504787543639701 -1.3489889231619865 -0.49409275115905227 0.5416131653375188
Ni 3.5180245675787862 4.194895476660324 9.115663673217396 -0.9160110370363836 1.2229768432345196 0.3174227398654017
Ni 7.115453226253471 6.178309841697315 11.35288228914343 0.5934903138227843 -0.4251123673345969 0.3890919833759299
Ni 0.5186088161828306 -0.14685830425592453 0.23260515479402855 0.03434479602845698 -0.1113832742706985 0.22887986052798645
Ni 4.696954628068307 0.4142046669866362 1.6134284887596526 -0.14435355854913204 -0.2779231391088826 -0.2182969428058176
Ni 5.948600314097052 5.638141781274112 0.3859984780284037 -0.7989754495759144 0.2301103905009779 0.39350065396658684
Ni 8.153799142282537 8.870259268545684 11.105879332177402 -0.5170930687089675 0.23799699233790622 0.4599104488503886
Ni 0.10938755248072836 4.797173296186729 5.6425556269653585 -0.10834217345152954 -0.40436022238891 0.48691088869863247
Ni 7.67987487230526 8.75522849249406 2.843967146640319 0.5531695027165505 -0.2003053913244034 -0.46025471956368474
P 8.5426959553855 1.5755804389274133 3.6993569021998995 -0.9316389733816278 0.6806486541078471 0.05908600752887889
P 1.7933301596955662 3.3238153571639475 1.3476003445264209 -0.9283160796559818 -0.07573672871168247 0.4132953200950108
P 4.760463458914134 1.1128758216990493 8.169554495358348 -0.2207006671513038 -0.8845664453738573 -0.4270957163132128
P 8.609246638987871 1.5876395347219021 12.418761034440408 -0.7023803893579839 0.1763123708439157 0.7390481770926627
P 6.288475458592329 7.804473493822569 1.482350811133597 -0.7406787707175503 -0.488941545975416 0.4426200372010571
P 1.7580554992428243 3.2200042338612396 5.829912093722132 -0.532819992525921 -0.3017156135427901 0.46515369952719887
P 6.983164223286382 4.023955988519581 6.02231514764859 0.8714633323329959 -0.03464124422295325 -0.2513947538010509
P 2.478812129696222 8.579198188464028 10.01431904544743 0.5787090417485518 -0.46046015070627144 0.805567243860819
