# total energy = -381161.8926123522 ev
CRYSTAL
PRIMVEC
9.28756004538255 0.00000000000000 0.00000000000000
0.00000000000000 9.28756004538255 0.00000000000000
0.00000000000000 0.00000000000000 13.59328292738220
PRIMCOORD
 96 1
Ni 3.033019919900603 1.2463534123704139 6.716848894733651 1.0041528242806383 -0.8827234786278475 -0.46197144514447536
Ni 9.073593269965007 8.94144057759997 8.434767953802583 0.8733816324016315 -0.5887923941264828 -1.4764369642050312
Ni 5.26683600743745 4.815590613435924 5.204160765755886 0.5659530276344641 -1.0338976596432388 0.15905486931504864
Ni 3.2313093275886735 4.217230267781982 4.54891039959363 -0.4917659027980885 1.0700977637128797 -0.6790435144042564
Ni 3.335330000474219 7.8989955467654624 13.46080260480205 -1.3812909777288018 -0.6308121902016943 1.3132377337043062
Ni 2.562252074612878 0.24022645646908775 1.4510010836886134 -1.0222276795044782 1.1198612082892518 -0.16955808283921767
Ni 7.610839707752343 4.013461199647262 2.7514842537118427 0.6528326603368435 0.40596536209250084 -1.332404536440744
Ni 8.082861373650742 4.816194304841063 4.907609901187298 -0.645653626089901 0.10943694917760509 -0.6875870330988932
Ni 4.822704884456488 2.912876042717798 12.061347479552255 0.2239651968351885 -1.0091795880712684 0.4555130911136413
Ni 0.5747123601806219 4.136437782654182 1.2929453862630589 -0.5053025038319426 1.9849232650815944 1.0665900076699373
Ni 0.7489144808036334 1.5275342937641534 7.039377064843387 0.8326121637937531 -3.8689186468978596 -0.41111168218013067
Ni 4.477969229441697 6.884097419125466 4.448103222495442 -0.8862080947423383 0.7042763208291162 -0.18433678381028898
Ni 5.38584680229061 7.2240128304592215 12.675355506427408 -0.2845637843538518 2.2640471093667975 3.3181996626043304
Ni 1.98654408799178 8.995735653822193 11.624907385072769 1.8760822976167753 -0.349614751216914 1.3928059203469367
Ni 6.248902610197947 2.458324277328123 1.3747836506557616 -0.22181575459235345 -0.7894063178302405 0.3304690315263986
Ni 6.91639026552038 2.1669456549675683 4.07608164472436 0.052295724079922834 0.3237106297566425 0.6579175310589186
Ni 3.754514737082808 2.843767308169464 0.984426571776587 0.8510454307982763 -0.2866497203486031 0.4578183422080503
Ni 8.187346424540241 1.271401961903656 10.21470005151944 1.14492277924357 0.5734020277133415 -0.5471145547717222
Ni 0.877150609083329 2.1840719157533672 11.517221840980024 -0.8832675240567756 0.36933665512587355 -0.8558801331827584
Ni 8.459109720013808 0.35964033142967794 4.541964233410496 0.9324450142226909 -0.353907465054997 0.08387427021715232
Ni 6.85679199249301 8.493863769829673 0.6303977841466811 0.2640790341369388 0.07805046444652364 -0.8513904728425208
Ni 6.332973604033657 6.019397713084133 3.406408626515323 1.5193422482089898 -0.389643999224658 1.0438570848487958
Ni 1.8550972501927512 8.522608768274385 4.780988879605354 0.5155079836100347 1.5118346269780352 0.19045086712782683
Ni 2.443204129519403 1.561963278977253 12.988708495935034 1.3792394945164117 -1.5719753010236734 1.2127217411654148
P 4.557870108801906 9.218980735442717 4.433435378862573 0.03601652730392507 -0.925027381602381 0.9208357121185368
Ni 7.3543915988491575 3.4400008025652986 11.431883095193522 0.14733963776064946 0.2208608468782519 -0.3347398909876106
P 0.6299231898266409 5.208482267460676 5.8300642995803065 1.1454441989646789 -0.9462125003204284 0.23047317315703533
Ni 0.612389205153371 8.903389443956035 2.836605670592496 -0.38052635319410594 -0.2661356595556513 -0.46183569089755944
P 6.69789112710026 1.875984972810572 12.865851722453133 0.4144358614573572 -0.8032709916274746 1.0623335463864285
P 7.9577207891454 7.535805509873565 4.361051850630359 -0.1236482076809806 -0.3202383549373259 -0.7630381122493568
P 0.5422987755046796 9.140194363291995 10.30308325949986 -1.4601253715292015 0.6386463415341324 0.7185654837582786
Ni 0.24492224684506378 7.325107921919861 6.1124098410079615 -0.5273103755616015 1.3330208298685042 -0.2709485075632624
Ni 5.454918386598627 4.277710859016864 0.0026989649589767373 0.8611940891965041 1.7377692888347684 1.4855983189893254
Ni 7.733537663956891 9.174976275788099 11.97333020143895 -0.4739810680108417 0.4012077928028574 1.285654681879715
Ni 2.1592555552221016 4.953325129408481 8.777128779705157 -0.788107910733791 2.4236923039676777 0.29142683002227227
Ni 7.8435488130934345 0.5788806171441069 6.669231574208277 -0.27736752371572876 0.3754995894034759 1.0437128459614475
Ni 4.500519425313669 0.8304592582978377 2.5383013146809814 -0.16061938558869113 0.8949909831412908 -0.051022256684137936
Ni 3.456755560947935 1.6669312829908631 10.791381374436822 -0.4751617185825042 -0.23180166216047177 -0.6056287489575312
Ni 5.415808471105677 3.362616851986516 9.687008750507117 0.22682503488148675 0.6724396359344935 -0.34298156217111253
Ni 2.544884337265023 4.792947541963159 2.3102192717712806 1.8996904239540189 2.2137380766996007 -0.45159344434426096
Ni 2.349687687083282 0.5788889759481781 8.991426225945505 -0.8978482500844279 -0.9220148200283024 -0.31345861301133116
Ni 8.353463724114425 3.089627598582513 0.09818065510782822 -1.207641755539346 0.24176005892476427 -1.4765791462098508
Ni 1.9783245973218062 3.319290384217671 6.183815389163848 0.21096492792077862 1.3526835984047543 0.26412968486921606
Ni 0.20616061485507955 5.101508150469987 12.364885375568324 0.2552696633754249 -1.6757792202852173 -1.4244551718211014
Ni 5.436946957845633 7.884729854484016 2.3600386727914016 -1.8818212569830817 -0.45139804050400323 0.16444415865142
Ni 2.6923800788806793 2.915383683939146 8.381890159248425 3.5905843883934874 -1.1682100319062847 0.10498739804668372
Ni 6.57372573640322 6.242327017661967 1.1462511610822266 1.0707176566850656 -0.7451586608657748 -0.9177164497632647
Ni 4.802151514001514 6.422691434397439 7.431597228274422 1.2925280119607803 1.0926347684731312 -3.6553808160435817
Ni 6.8152487362593455 5.248019410717261 6.776346862112168 -0.03904657237950049 0.14215732222876162 1.366941136765033
Ni 8.929320311696788 3.237002601917141 6.61995642420879 -0.11150308767801442 2.7099316762517396 -0.3126188907188552
Ni 1.4122942483030958 7.1166857861855295 10.10861754029634 0.009028428750855418 0.5432923528121546 -1.4893431307437384
Ni 5.04855048289915 5.446940372490709 11.572736373840627 -1.9577035101336933 -2.4355438039896247 -0.6017006175477185
Ni 6.831176901794945 0.2818551582554798 2.8018200430723597 0.966949989978096 -0.022023041238310462 -0.0008960294517081342
Ni 4.479548114655137 8.73895319275616 11.20847733878363 -0.3968911677053745 1.6071755030738901 1.5125666200480532
Ni 0.6579446873411925 2.614903252701106 8.93831717114538 -1.9466109997649574 0.7716878175045548 2.173950512389017
Ni 3.6308137243897205 7.756459362232028 9.473185898586806 -2.0213460266850025 0.19355264598160213 -2.608298282278953
P 1.3120628999298096 4.1722599018791415 10.68010618837352 -1.3754954540929472 0.08040430939068088 -0.600317621157263
Ni 0.558583583347315 7.988304724485766 0.5897117697083144 -0.31537871285217944 1.585854630108927 0.11773467041002304
P 8.847859122243294 6.094543361683861 0.45585759633679146 -3.30534620368043 0.793520082888298 0.7524420819010654
Ni 8.897436117945352 5.8600696199277476 9.951370789353673 -1.3376642421777867 -1.3039213413993864 1.5954960098534328
P 6.566444289301232 5.361141892480291 10.043832164964812 2.075242776703458 -1.0673849927674068 -0.3894002586449681
P 1.0558191173483638 2.284358989487128 0.8051367257422627 0.4021243910798558 -3.0813419260771897 -0.2548233198666256
P 3.722946320374061 5.510327970030338 0.4637510936479901 0.5584487488376189 0.08698710481452115 -0.1994399580003146
Ni 1.642922940186476 6.0085869931521 0.5102743395960503 2.3652557570973394 0.7869833102110446 -0.6525968901769534
Ni 1.4657905943585188 1.6352607031212463 4.691164242300661 -0.3111302219884706 -0.5642285887441896 -0.3034639636924645
Ni 2.7884598878986226 5.820922554194481 6.482051945886786 -0.34378348924711766 -0.5124002912189886 0.5041845881774156
Ni 6.810688544260524 2.7802218221084902 6.418721002463639 -2.246610144837273 0.24799524120119873 0.4456873632724711
Ni 3.399330576979066 4.092377597639091 10.727479246068814 0.032926575524691686 0.4811973832536228 -2.5404805513040314
Ni 6.558373399592523 7.62102816115908 6.1589126543238475 0.3722481723457138 -0.060179754813689895 -0.9285652195523104
Ni 4.712470833878047 0.3513028887466999 0.1683138075328834 1.0065503779785376 1.21973853880288 -0.29905323621927854
Ni 6.394215775195022 7.48879188075333 10.656264092894547 1.9834063142164358 -0.8548907726862954 1.6354319268164221
Ni 8.342996643905318 0.9568601647059097 1.0280883204642868 0.391599580289132 -0.9959000973535429 -0.9863021692524627
Ni 3.1025094444121786 6.747783899845006 11.534675023880604 -0.05742404644542369 -1.4251892217736488 0.3339585327368958
Ni 7.226678360201914 7.518837137609109 8.44478644485987 -0.10681288129119669 -0.6229482140725853 -0.8368750528351653
Ni 8.718084045258498 5.941744423263058 7.76986595520616 1.3304075606153731 -0.8710074757424999 -1.1472452567291596
Ni 2.004682692826197 6.328710613957365 4.344399255408593 -0.9918835199949821 -1.2591545787066574 -0.37769119773815596
Ni 4.620282512533233 5.7682435134260155 9.28457970103717 -0.6216989150465163 -2.3791170884604638 3.200583520050043
Ni 2.724329285552668 7.4432456861255885 2.4970041787894117 0.2353281872564915 -0.16618942347730087 -0.8906725582715952
Ni 9.167936305248165 7.492293290903138 11.862314138301853 0.37406337117758154 -0.4340299815392009 0.42090835655557834
Ni 9.191972510732791 1.97370867996251 2.841281957092306 0.2929972598331857 0.7264880810394649 0.3523290648242835
Ni 2.7076023898502695 3.8209858045686875 12.755651107090978 -1.6245862423511699 1.6189665821715473 1.3147040338371876
Ni 6.039152353372307 1.2102805290233194 10.984391732975952 -1.1344599320390332 -0.32433515071451885 -1.4549250582751845
Ni 7.8115160183807335 3.9401823506234273 8.739502087556835 -0.2981988586387832 0.3368258269823618 0.2797550501112988
Ni 4.403464422487425 2.142723698281363 4.7115002838497855 0.1783535696436606 0.2676101872186488 0.3725947570518551
Ni 2.6443912559521423 2.6992621608992673 2.9881981549590275 -0.3643111768868242 -2.6946845202846816 -0.5134834969808382
Ni 0.7930870452956817 4.079820816412193 3.5620244819081064 -0.41913969469092976 0.0005859544104570554 2.71937816637662
Ni 4.908605527627775 1.3172917962543238 8.644281377846205 -0.36592737233400846 -0.9273442026610158 -0.1666365383170485
Ni 3.7071853309198852 8.118962119678073 6.287858352193584 0.6716541639187208 0.8330903889817524 0.09111192561617212
P 7.064786900463705 1.9575854756652504 8.568281273719203 -0.7609192661341412 -0.38471930822953093 -1.2110135002250562
Ni 5.582408723803973 0.6578128039880697 6.4122912246209 -0.8646334538953561 -0.4179287051019641 -0.8412775527782349
P 5.5173586530101915 3.5828806268216584 3.182649942822428 -0.6530416910238559 0.4467546281947209 0.5970772598430943
Ni 7.033487822997251 5.774354727958042 12.322487663807385 4.124826715188232 -0.3998638771804533 0.7629414387704926
P 5.545871462452926 8.509392570281873 9.159289586814554 -1.0262771669835034 2.376784840782862 -1.8514755548116888
P 1.9195900673817894 8.167238856969062 7.378651634531687 -0.4664500497411192 0.6442937696278969 0.6391289375975058
P 4.364726009397637 3.6563545146071537 7.041959006545367 -0.34829217575074856 0.03815799912696009 -0.6008639805790362
Ni 9.100490043953984 6.148021132619125 2.66061290838624 -0.42145882974240967 0.761172776905844 0.3420963313526818
