# total energy = -340897.4883586992 ev
CRYSTAL
PRIMVEC
9.00978570743323 0.00000000000000 0.00000000000000
0.00000000000000 9.00978570743323 0.00000000000000
0.00000000000000 0.00000000000000 13.18673210593088
PRIMCOORD
 96 1
Ni 6.483756943108072 1.857484395091942 11.417823583187328 0.12860015236961725 0.34582314538496567 -0.6681242963885913
Ni 4.585629405908867 0.4355537505413346 5.903725877209781 -0.2587931031476511 -0.3968412883040456 0.21924208032790632
Ni 2.7456600337068657 1.6772166080642035 4.729671548629207 -0.4340250964431944 0.031237360747726848 0.2853518274727859
Ni 3.404987122216604 4.236707445281957 4.675342542442819 -0.6597795239683218 0.4167012604527662 0.2208886147923938
Ni 4.862590210248764 4.56910545941702 2.492384153324311 1.1773747291246885 0.2124569390852728 0.4659198882692621
Ni 7.250940173086676 6.038745620793296 2.6108808513945236 -0.661597551013667 -0.3226785889477023 -1.0237112060285403
Ni 5.164544159391489 4.4932520758211325 11.577660780757643 -0.30458470756046896 -0.5665441242512436 -0.8532874327549175
Ni 5.506024037247261 7.927241697360121 12.349584959833308 0.2175397529248189 -0.33538523788109337 0.8544989365645156
Ni 1.6215901927748566 6.496640936283285 0.3707616805267118 0.881058689330915 0.0130329219245582 -0.38949384680003885
Ni 2.6462460611926684 1.513752070876866 0.40039756776533336 0.681834189775516 0.2708618613867271 -0.15401036491260572
Ni 0.4556933239291347 0.0636658468349713 4.6188106437170315 0.4485726552400661 -0.5957773100847481 0.48235797922062734
Ni 8.642222230515518 2.3053608291757515 1.530201236149584 -0.5503268910614328 0.10900320407429614 -0.6530951699696107
Ni 6.8484099891083545 0.6217752037859825 4.84288040362632 -0.7506875611038039 -0.35828991039340874 -0.6324404698337367
Ni 0.8603894603265618 7.365535634062575 2.5620892593378453 -0.3881908117178992 -0.23001166013958455 0.37582997615970115
Ni 7.543893346577625 3.8470522446934114 3.9413027091735433 0.3268095803969404 -0.23358420798219126 -0.46312741312578953
Ni 7.525873775703201 3.550233873249899 12.748009384587892 0.5739949241023341 1.0957656007926289 -0.6465069752291317
Ni 7.8928513463462835 8.822129626125768 6.959534880733839 -0.08629984893950944 0.8906543034391501 0.04889749703165128
Ni 6.828336187154246 0.7310035355769349 0.37829926702348343 0.011207181569729085 0.058719111107763386 -0.1623638790836236
Ni 1.977044247843745 6.369152472346735 9.119521920901631 0.4197526456845803 1.0755873260725413 -0.38686720781046924
Ni 0.029910685694456464 4.838047554717799 1.3788179202550037 0.09597413880447987 -0.5368046882052819 0.2407100203936951
Ni 6.144142090837803 2.0971807268635305 6.989403220436741 1.4991927698443084 0.0775339298214213 0.45726786902121896
Ni 3.221124430799418 4.115192469090279 0.3279435762149055 0.4222895531738211 0.3152388448402055 0.2462512619268985
Ni 5.968343157386922 5.655793700570037 4.73186092649045 -0.06170930408433888 -0.5656756056033613 0.35568486867039384
Ni 5.084744489774102 2.69578186152646 9.556134321231838 0.5850393548419537 -0.000987560724249912 -0.9316220041007633
P -0.006756438099365294 5.400393312781388 12.352934798058865 0.5005575329477896 0.20007656314304895 0.18110362158497198
P 3.7269067558881894 5.990426141493528 12.58180316969201 0.7255874236020665 0.6956759807546148 0.8527670414750732
P 2.35600483311832 8.450539045338832 1.3888530192749706 0.6757967253321846 0.32840237880535705 0.15771995255370902
P 6.280018665016397 7.598907096457241 5.680751707209658 -0.19474075275243233 1.5010406216863244 0.09411883076329597
P 4.747427132790321 1.1440535450317453 12.51282335140617 -0.7382742750411156 -1.1096392734509277 0.40115714207058006
P 4.11861618755642 6.288974391740985 8.120930460775131 -0.07864310372520003 0.3860601385281416 0.3998343094940985
P 4.656139986740488 1.1169971593637975 3.801220367152858 0.9236500416388802 -0.752141262831195 -0.35449341946545404
P 0.13893449535598423 5.52131364313421 3.5818194780571333 0.957648252961196 -0.18317670206391679 0.6372993405879347
Ni 1.4896058459051378 1.232944088155279 2.529690070905631 0.0871475416517854 -1.1090134669414706 0.7826224621391877
Ni 1.8971724999428607 6.42556273896912 4.805271757254309 0.08373517353612675 0.4560849044567113 -0.45060948316443683
Ni 6.10582347337334 5.712663466249719 9.019302473569347 -0.47213270194819335 0.01667797487631321 1.8191989541661702
Ni 8.659043499926794 2.1996580264263796 10.139435939243839 0.31068619247251655 1.509155794594291 0.2747537402419655
Ni 2.659607572996053 5.1723196042238015 6.979513178962314 -1.2721216803902864 -0.15031851788331532 -0.20655240067537975
Ni 0.7184393897847428 9.02293972395035 9.09370167779567 -0.6685775818759261 0.08978497927463246 -0.4562036894227627
Ni 1.4374121588673683 1.0956349580921678 11.367200301751264 0.5133359156593804 -0.05280608805743809 -0.42650281992422034
Ni 4.007075043843734 6.729787154042021 1.5017447298246935 0.04510743386159973 1.2237841696271634 -0.036170536383286093
Ni 5.723042739073387 7.932818754545756 7.792342684901465 -0.8136752176799341 0.22835252726960673 0.8179267938674365
Ni 5.264174366756179 3.001033392139203 4.919284285112421 0.5399362918557282 -0.7128262672816562 -0.5326248457959795
Ni 0.7549686638613752 7.43764995670202 6.895025717981945 0.25661640721130646 -0.4835707685818059 0.02537138888525308
Ni 5.142902654771305 4.558257677750617 7.152008224093369 -0.4099148336585521 -0.3689229646272227 -0.41825806341692484
Ni 8.060892854535725 7.248507531018628 9.046941792355083 0.851360905156166 0.042577982571526674 0.5011522291089949
Ni 4.7163974317445625 0.26277760010463835 10.441716042619388 -0.7868588688180385 0.1439082434815973 -0.9458468894508937
Ni 8.063190349822214 7.19204320568362 4.585422180843811 0.6287244544347301 -0.06473369273295948 0.3341660207620116
Ni 7.292331127385228 6.217157392020969 7.00665155367774 0.5397033499093156 -0.949968624928751 -0.9577757796779958
Ni 2.401819592066543 5.150281669044382 2.536652833091509 -0.7751621492064006 -0.02794403470843575 0.1429353380453667
Ni 2.20825336173348 5.293456169427118 11.264884277347742 0.04538331323080571 -1.2316810558767368 1.0268039860212508
Ni 1.0362875014172521 3.379020920586559 3.812877227551523 -0.30526399301568075 0.3512260615680919 0.16278682555365515
Ni 3.726330129620208 2.594656029779192 2.560019711622918 -0.765951686351726 -0.15231857903247958 -0.4592411906975059
Ni 1.2240514299287508 3.3253045798099006 8.236735935935249 -0.19763761468425317 0.7378911806700841 -0.18467334121410128
Ni 3.615482739386188 2.693925845726394 7.227541760306236 0.2600560290204747 0.03143559280146199 -0.30728359454887083
Ni 4.091649899742843 6.9592393597715 5.954033816155541 0.047441481311415075 0.29470395811164735 -0.22292878515087414
Ni 0.7953721456760088 7.152976776027869 11.14029606334343 -0.7176013200727964 0.9327306637839098 0.24063083041632755
P 0.26514447073899394 5.615583028163759 8.065084206721115 0.10828560918198124 0.19017421642767246 -0.6477467611735038
P 8.547610473639354 1.7276804162980282 7.99921636832529 -0.6238259886918481 -0.8274848698695167 -0.41000919314457135
P 1.799281181167552 3.300167278440079 10.367065465379369 0.24674671350607824 -0.9366179146534578 -0.15576437148923497
P 4.054088104255107 6.1618733485782355 3.8338844432769266 -1.2770908514701038 0.24468597432230765 -0.915307583211456
P 6.874421239665585 3.8759466265905504 10.300841740458772 -0.01866363784777431 0.23853743822240858 -0.14050641688889995
P 6.298308529453937 7.695546055056777 10.23326024087279 -0.15982028672616347 -0.4608324464440257 0.1860833341877505
P 2.2283271636875885 8.63004100060441 5.720417287596984 1.2508625139011942 -0.9343939104189456 -0.24466309150417218
P 6.958527586721959 3.802237571928719 1.6691240187844998 -1.0090476904790946 1.656571794118831 0.0380114462467668
Ni 5.311682965366598 2.871337530770536 0.40646655923583935 -0.2596114852838884 0.41537559966280724 0.5175093303107796
Ni 1.4062743403963638 1.2612708535698736 6.873135543283696 -0.10685659004493854 0.17265729058983167 0.45696756417198076
Ni 7.102305742728989 0.5518457541150613 9.399106374760846 -1.047176893250648 0.2813265083634768 -1.5547388825407287
Ni 2.8103052442188616 1.5590622818406052 9.210945114711567 -0.1628935263348485 -0.49282956817591256 0.4623586532805651
Ni 6.359052502871621 1.9551955181585061 2.5852984666241037 -0.11892431984275002 -0.5056935686227743 0.7158871655951671
Ni 4.116733142400042 6.769637435030809 10.598440359321147 0.3903520810352761 0.3501775656989195 -1.1031703778971322
Ni 8.099220481785624 7.023037650452398 0.32878328821765357 -0.22716030673371845 0.39373848100900577 0.48986225801747246
Ni 7.779003697561673 3.9607196977692785 8.020961485478 -0.06960439056169948 -0.7878523430795593 1.0396772424394933
Ni 3.1052946292186205 8.46105346494406 12.394472611860042 -0.1396312133727982 -0.8402300853503272 -0.12894545152417794
Ni 0.11579556439613632 4.821766872432757 10.17137472764021 -1.1736314600321722 -0.32641388762041845 -0.23029268171511305
Ni 8.393110672962043 2.2545636588807496 5.721472333471681 0.3908886702650365 0.9236438709912932 0.7283708998844746
Ni 3.5621177802415818 2.696682840070181 11.463503195353992 -0.3788854751565733 -0.01480981131932288 0.20106103854350535
Ni 1.0517212638711964 3.29302251858837 12.653842711112327 -0.5719357275804602 0.3603064266028053 -0.8779689946619976
Ni 3.0083673574850933 8.510192834718614 7.780554281635417 0.7581000515177911 -0.5549358505883539 0.6837270359228547
Ni 5.607348084274147 7.8173763737387585 3.4360934064385784 -0.34936818242374673 0.4389294757233473 0.32810413083864787
Ni 3.0408746633425543 8.398138133236008 3.6175558910152907 0.49818389050929046 -0.2315916030321947 -0.14282632327132821
Ni 3.576263143378004 4.566087181295554 9.361129228164453 0.3424352027493393 -0.9845594755297431 -0.04519099471434152
Ni 6.998359848139874 6.063828863450495 11.552988384316382 0.781045604570371 -0.6617711004770538 -1.159286761274726
Ni 0.574879270585294 8.947050301212712 0.21475093883157967 -0.10794133846868506 -0.27609199943741486 0.47162927994921355
Ni 4.649373637877143 0.307052586721642 1.556852181472857 -0.8735598098507084 -0.06564412036237083 -0.060582646679063414
Ni 5.8129694075222 5.439459742437139 0.42995236693502 0.5899612176236033 0.70855900736487 0.5177103905779923
Ni 7.947603812448221 8.665836878146452 11.488649506509251 0.15679281275374934 -0.2755818925702157 -0.004930347422081831
Ni 0.24507156976342925 4.94737229121293 5.895180996701129 -0.34854928606687713 -0.775631118423019 -0.03909413778798429
Ni 7.973290710729713 8.793145146374258 2.2723246489131257 -0.13239690040788812 0.0234245495715274 0.7654935157683849
P 8.43697931825583 1.5583054598638795 3.5989227537525927 -0.40569796736372715 0.9872491065467643 -0.4300488854042658
P 1.6761534533826128 3.213294927254481 1.5961618753354132 0.9175184748198456 -0.016082507384159398 0.3606761512373982
P 4.8540669532251615 0.9278006749677822 8.161953815827845 -1.0813273138801118 0.382242050333632 0.8933038252468551
P 8.553151491683241 1.5759646393208149 12.406643931007173 -0.28068218991125854 0.17004993487397166 -0.025143074924530894
P 6.218743114257918 7.74465839547502 1.2852567043608194 0.46212056912782995 -0.9816844679747931 0.42553454247368
P 1.8679627755554193 3.3177994285407033 6.020837771258294 -0.30198532226440894 -0.3149169427244125 -0.7134543877839584
P 6.897134908752797 4.043123195378019 6.066648025313798 0.4098716391254425 0.19588103700446266 -1.1961545808353529
P 2.4368496378464237 8.369838397177725 10.140834257943695 0.8139379844230176 0.5415751130107318 0.7624233614834934
