# total energy = -340877.1545413553 ev
CRYSTAL
PRIMVEC
9.21272867922594 0.00000000000000 0.00000000000000
0.00000000000000 9.21272867922594 0.00000000000000
0.00000000000000 0.00000000000000 13.48375965893148
PRIMCOORD
 96 1
Ni 4.176866893056121 6.8426067646282265 4.194851981830713 1.828144336284916 -0.19261804998247473 0.1021365588614499
Ni 7.05067624007856 0.4525246225097494 6.551879766898152 -0.48416289363985004 0.25369383424787273 -0.1186381560608989
Ni 5.635076001456821 7.097624305028523 12.32392693210106 0.624843374212769 -1.5832153927138668 -1.0103476402374405
Ni 4.434491635650461 2.456887314190698 11.819000309309642 1.1755626156166143 0.2541070105258914 -0.7666227442768216
Ni 3.494222129189889 3.6837648074239016 13.520165653826396 0.1786099086288408 0.5383368085790922 0.05638660631984482
Ni 0.1470895035684078 8.404357729773947 2.216150424394588 0.7609413776213282 0.24555526430113836 -0.45747381438443796
Ni 7.399110848491538 5.264715098973806 12.92088042215929 -0.6590166776603682 1.2354896309895498 -0.6394282140054794
Ni 7.5272506906008445 8.187444034866791 11.095988132533039 -1.309294947006474 0.3522398475445869 0.056401261607864156
Ni 8.25265172790365 6.43886814642431 3.0881858564729194 0.1895080435985833 0.3842889055603317 1.3025326885819761
Ni 0.45205753716968594 6.159317109759934 5.30146375208976 -0.12489596404515262 2.1177757649696622 0.1119247485964653
Ni 1.504364878690988 3.026215516266401 1.034130627991813 -0.8352287754809937 -1.0686931700558693 1.2880432367165495
Ni 8.984059464254214 2.6510639949109414 3.387457659980288 -0.7502733563845208 0.8310167942821753 -0.17779744002987444
Ni 4.919219350984502 8.407600610241447 0.4527963980034746 0.08518193328498233 0.15086847684951435 2.908228778896862
Ni 7.510428248175682 3.5547958197405176 10.760296570320765 -2.073340674584739 0.014825237938290594 1.7593729831474731
Ni 1.3458046067416543 3.2976962026764274 8.104197819229455 1.834039361613112 0.5713178914908033 0.7050281113934761
Ni 4.88356609129919 4.778126412462392 6.222323881934049 -0.21860933183991382 0.28211840813715283 -0.6039691018669211
Ni 3.857968292537489 3.8928016193773254 8.400234112452203 -0.5199503356521046 -0.735325733935753 0.8694660993973091
Ni 3.2921132891443086 6.103727505382369 -0.07687745635556358 0.9093644782541437 0.40843336401701913 0.6735148712765433
Ni 6.664285189830056 3.60464589419975 3.3086178924327423 -0.4960419044656232 -0.7830906600248577 0.12024560975733484
Ni 6.542760086856164 3.9764992587161028 7.854586307972141 0.1342018148271108 1.191725598529722 -0.17100484258807322
Ni 7.781466723612867 0.4411487452334123 3.3343582561435343 -1.4817018121483965 0.85010543548251 1.8553399228631016
Ni 2.790259111341275 4.80673193476805 2.264394720258691 -0.26551268125967176 0.460881040293774 -1.6500447916335903
Ni 1.2786438152414137 1.0458842271407853 9.253971222983512 0.31951484650774004 0.05064559007100954 0.2777745293461603
Ni 5.340710897202268 2.152425059389607 8.155287926958362 0.9417462370189587 -0.9065971999216514 0.3539360043000872
P 9.144858429253555 8.312469974709009 4.485547656283544 -0.006938636101362244 -1.2618187558023817 -0.16362526229455046
P 5.342046742849392 9.212912855428078 8.162542029458677 0.8565961854131763 -0.33701300329250344 1.1932942285684225
P 8.443373635398572 2.057939314859227 9.514087087391525 0.1126127758024254 -0.20288600756738606 -0.9867654820421263
P 2.6758093839328407 2.5809090666154226 10.461415386506072 -0.8707922744079002 1.5735470163861673 -1.8636746679810419
P 1.5787023857712958 0.9446271270887764 2.136690640212205 0.6911914626206999 -0.2249818110251609 -0.2298540515157977
P 5.40960368167947 3.575957457336684 9.952565062603549 0.32916368245141375 -0.4439364420196355 -0.338987610520371
P 5.226150617050623 4.827414510476971 12.356557495532432 0.1117051763864915 0.8379178922773828 0.5990091867584845
P 3.8338493690604474 6.9617826218089 1.9672400017837992 -0.37889987333427644 0.7549640769919708 -0.7087922064215986
Ni 1.8554711783982134 6.870530545017421 2.8440347294573325 -0.41157910873485243 0.7765999100941915 0.7925309795021512
Ni 4.280500877087151 4.071970765206775 3.8394470229583275 1.9261586454478765 -1.1867060338279434 0.8742329246583331
Ni 1.1935919047983106 0.888662564657156 4.367645919468369 -0.315829684346669 -0.30510407039904874 0.5780912056588947
Ni 7.654948321737311 5.147123831112479 5.981799806168619 -0.9334212620930311 -1.0134532757459576 0.26803056258551905
Ni 5.114446282765243 7.752713797649595 9.99626564072171 0.11606576734803238 1.9747704929183083 0.2432541269717875
Ni 0.6134286126151408 3.3646451014188488 10.805466578650764 1.9095169231261373 0.695070485960132 0.5553356571299339
Ni 8.608825028341347 6.056152974887548 10.915723593272947 0.6033936889794254 -1.4785943768676664 0.5297542091164037
Ni 1.631998020727248 5.402058456955369 9.5622374134239 0.039951600692273125 0.22482780194579988 -0.1792611690595945
Ni 7.382039662394151 9.123411197070762 1.111980027214767 -0.6225952016085406 -2.0000318385882587 -1.3864560668695092
Ni 6.43746781167698 7.040394834960005 7.438504475988799 0.6181088837024129 0.2735964867090707 0.8097234321210377
Ni 0.9166020066849722 3.5270194430089368 5.54542509689617 0.30263838246737557 0.5444668327362301 0.06656946039011762
Ni 0.41074858339630743 7.7393000648067485 7.568003195566732 -1.1627055571482878 -1.2363877173237867 -0.6839977730857382
Ni 2.0067073311098667 1.8580875933208567 12.298981626868521 -0.4635477884926597 -0.6260931874594701 1.0267253102645155
Ni 5.80930712475621 2.545808570646161 5.332098838506188 0.8095025743594833 -0.5772669099853864 0.6394289853364278
Ni 2.019605151151065 8.310894598118262 0.648761269345144 0.2532870857277573 0.32110995890900185 0.3169380869194993
Ni 8.862884444967154 8.048543725751683 12.953779997265807 -0.14293636648663127 -0.2635185336477784 0.07718708800496384
Ni 8.755666709510391 1.319962903016253 11.531742825170648 0.028099329339377414 -1.0271174034966117 -0.45915454452097054
Ni 5.830883335139416 3.7949440161790324 0.6056779440432406 0.6217004577084132 -1.2112996640069074 0.9459949849929837
Ni 3.5034993468909508 1.2046287536621363 0.7522229753513378 -0.6482342423328836 0.5617490168554455 -0.1612793877701932
Ni 0.07681573107393784 1.0433967904185542 0.4404200184010845 0.8143958978960426 0.4309271742441611 0.4423642124365091
Ni 2.1254962536893047 2.8042348206287744 3.3624994569277087 0.6138380242412009 0.2797583925454085 0.09935153991714503
Ni 8.120725454339391 4.570803168028727 1.770242383565974 0.7771416415302744 -0.5775127074476054 -1.1316152635013867
Ni 3.8560796831743134 0.9511128880237789 9.945877542912188 0.343188535975596 -1.786685040698865 -0.8115401736148022
Ni 7.090871374964095 7.462319379422011 5.170347277369517 0.2444041814158307 0.7546030941081262 -0.4284401461562492
P 7.606314327453392 2.260987853222095 1.5026301218954468 0.4474699090941906 0.31962026173735275 0.2831931292585704
P 4.237431370878149 2.9268378128489667 1.9909038164679582 -0.14347809792271418 0.1926828417821391 0.3427995280672935
P 3.5170881215772134 6.66034214198889 6.362608864157864 1.2621226601960456 0.8891589498405461 -0.05073172202691263
P 1.4314553445438132 4.469168346104082 13.02678165869899 -0.47081655423993113 1.23343480534305 -1.2439606445750384
P 5.708050024704201 0.2254962728717135 4.456625216114017 -0.08255966517078685 0.576186275326698 -0.27016586376096696
P 7.814945779348378 7.049662839932466 9.227192584759406 0.3545121885185314 0.20334417815072725 -0.8042438970637052
P 3.0810957405417003 3.2017272088413096 6.328292371392536 0.5158980199596018 0.07040991718213035 -0.4374048115487048
P 6.270616083986876 5.566634640681061 4.29974166077004 -0.7097180606699777 0.023971680324249036 0.2617146476698203
Ni 2.4784082482022978 8.206689424913979 5.20299165989379 -1.0799294050913208 0.26853835545987303 0.423059084349994
Ni 3.664196971875683 1.4825122864497575 4.740889484730591 0.3447293981001547 0.04554709250217962 0.500774276944286
Ni 5.67424852346766 1.1563632685222511 1.8443219342454575 -0.6117256058838884 1.4269925935309746 1.0496924605836502
Ni 3.557218767362543 1.096526596259691 7.162303187443693 -1.2741744491542573 1.2013027006951955 0.2606538105054737
Ni 3.695068825417152 9.076122261162569 2.9249648651244127 -0.4061584519399134 -0.36928291906980276 -0.35070464184698313
Ni 5.534224261463249 5.638650540153953 2.2345694326862797 0.2920891461966195 -1.1832296452435689 -0.7377212307511231
Ni 6.858986996080548 1.761344730283267 12.844426751319366 -1.0967284789265306 -0.5830701469307249 0.3157144989250434
Ni 8.64253440229188 3.33367190786277 13.166837243980643 0.7903956783267033 -0.19439005428123296 -0.4404276575354286
Ni 3.378639236163549 8.535924706922772 12.2025464689662 -1.6095182922744538 -0.47632077188761196 -1.811184825612442
Ni 5.965048301753683 7.782166890986532 2.9028782695767203 0.717874371228525 1.6348120338442362 -0.5706131521142948
Ni 2.592268360980278 5.339734347970577 4.725005819349855 -0.29832895645874424 -1.0665082465894085 1.264536411843861
Ni 2.350277618821592 5.271514092681238 7.311717062438096 -0.6541750332973508 0.10077284574470387 -0.9450832718119917
Ni 6.373310369700619 5.682558404665633 9.897713397786912 -0.45644974399529775 -0.9149964797289403 0.48268528065305905
Ni 4.4632353488851315 6.142310412762754 8.50339824732459 -1.4821322148175957 0.0794332037266632 -1.0740608621256855
Ni 4.751298946776698 8.518429735309747 6.227487616314829 0.27367130581106414 -0.7611362672409537 -0.9181823336560896
Ni 3.823273156626665 5.222990651140529 10.810159542600038 0.037054995870768444 -0.020805366781125458 -0.2695156317714778
Ni 6.325496308262175 1.0289328065152101 10.312271444459673 0.12460542938792735 0.40451063192384534 0.01705746970291901
Ni 1.668987126059685 6.37945525967739 11.737882233979104 -0.10391113426336943 0.3274628977102232 0.5334452848147457
Ni 0.7645486849464231 7.902227170112888 10.047558428479835 0.1999040421209267 0.0659146004149381 -0.22072457841070373
Ni 8.626034405367745 4.335242910433438 8.962614074617141 -0.2912568801033113 0.5478432054076307 -0.20806678043737717
Ni 2.5986251437148686 8.286186060010767 8.053350927535611 1.6354090439982867 -1.2502667892987243 0.4711600536222789
Ni 9.132568649300014 1.8462031734257522 7.322841432223631 -1.93416377514054 -1.182706168639931 -0.4068822174798154
Ni 0.62493438936475 6.323911718942829 0.6097370722647778 0.013402132338518852 -1.494754788677613 0.8362124795505019
Ni 8.168935663107671 -0.12283054661663362 8.927583595385247 -0.42906029623875136 2.001238200191534 -0.9922033652282459
P 0.8075785764224416 4.931914490996482 3.5681395358459977 -0.6439032190576974 -1.4094201318648503 -1.5313685832459043
P 8.050340207828851 2.823627614333576 5.681786378008881 -1.2351738995213437 -0.30875118023333276 -0.7399372645658353
P 0.21345247277181437 5.320839041610221 7.2944579366772535 -0.16923952315753432 0.25628730600666183 0.20603355205743226
P 1.461544116154209 0.397054783603995 6.81639102412163 -0.56243010208287 0.5341222562771124 -0.6450015943281988
P 7.535707975456431 6.783000410580688 1.0434124520571757 -0.052866251871412175 0.530516541203725 -0.14559077339034282
P 1.1439260849110955 9.070161625757814 11.860044857772175 0.7079296013109873 -0.10033910064139494 0.4808405141348364
P 5.180538397747784 0.3562166002621202 12.173583492790831 1.7628326595612995 0.6508601099915048 -1.0553527441932211
P 2.9273629383792152 7.508263256954481 10.0598684764363 0.3891876284135297 -1.4363722349736616 0.7701778086179316
