# total energy = -340858.4382200979 ev
CRYSTAL
PRIMVEC
9.32472758614088 0.00000000000000 0.00000000000000

0.00000000000000 9.32472758614088 0.00000000000000

0.00000000000000 0.00000000000000 13.64768138022173

PRIMCOORD
 96 1
Ni 0.8162931612327782 1.314105853997646 7.8809630463477784 1.0198897753999208 -0.37585748696352683 -0.46179249636444986
Ni 7.097441639455011 8.51345743887362 9.433891020314142 0.3872035081039654 -0.4825137880722013 0.6419494377654363
Ni 1.579030683291728 9.008106251642028 1.5291405944468395 0.5269216247636151 -0.7067039564340023 -1.6352064410691771
Ni 4.363795239093093 8.966601890120504 7.611243442240313 0.9633512168832441 -0.2796637759490732 -1.050255789286288
Ni 6.919926804522364 9.338714460526674 6.796982139101343 -0.61759903394553 -1.45515182957401 -1.0897975561346522
Ni 5.649777715344411 0.9876378240650455 9.748428994050238 -1.7791766481369617 1.3219745993566716 -2.0905177005846576
Ni 8.248038399028957 6.064951876742803 7.505296822341104 0.2066092220552442 -0.41185807342785197 0.6733672899550855
Ni 4.132215634872245 3.124548296417572 11.43129797638294 -0.5456037745541508 -0.339379446642151 1.6427323171325772
Ni 4.976289956356892 3.5119347702549364 9.185203338788522 0.022820340328625212 -0.8390052118042904 0.11483266627187966
Ni 6.190015120222167 4.045952581977255 11.377429958842233 0.900753596656681 1.920889169518821 -0.3960275341534986
Ni 0.5848599552316301 6.547347997747722 5.5767016918953285 0.5873114387055821 -0.12859038217760432 0.4535839924117285
Ni 0.9476160941952698 0.09240711575873517 5.930654355749449 -1.374107315496169 0.5698330794151606 -3.922672186470231
Ni 1.207430972890881 2.2713077679287332 9.787884712968687 0.04205656285041789 1.4410606415882667 1.7016938832684498
Ni 6.12951628904903 8.662438608055682 3.792827262696503 0.9434894449623105 -0.6179384195628197 0.5887039481777345
Ni 7.394471505082187 4.9090493472956265 5.304703124418764 -0.5696158211980319 -0.6103703774075747 -0.24447385831150154
Ni 4.766595487272196 6.822054466052379 12.272554365256532 0.3891354350193556 -1.452886173468285 -1.0133586591496226
Ni 8.618966729059203 8.743582385624832 11.62770097907519 0.06752591076611597 0.3702198290617753 0.15939811158708034
Ni 1.4734188211050832 9.403055079376033 9.979634676703572 -1.0419030464462185 0.03721851803182623 0.19201564051178546
Ni 3.431536970875345 1.7531140185524097 8.02049640175909 -0.21976684248312478 0.5250292928369087 0.9319385068999175
Ni 3.737630471505648 4.45949491608599 3.027246631262601 0.9482917514469605 -3.645141397703761 -2.595952873339723
Ni 7.807445030821383 7.222066620748009 5.297115593758225 -1.3986258694628235 1.9611156211390353 -0.13284118703415831
Ni 4.684640458421901 0.11550446545291847 1.7130568547186298 1.3708900941104518 -1.1629706378842164 1.2360401041763809
Ni 3.8354561863387833 8.676500296928847 4.083796055533522 -0.4433597435805591 -0.3043239976999146 -0.05267213358273509
Ni 3.277044887817925 1.707488127533581 1.130007761542151 -1.6823807847621346 1.069892589680609 2.1100963940475337
P 1.7792792035511495 0.4505064858740601 3.459687390331045 2.3053071444578492 0.09473126753631428 1.8545863325265286
P 6.9196284132465395 5.943068365296428 0.3271851014673129 -1.7979654987086906 0.43916113211817914 -0.38820135324086047
P 9.015360889535476 2.6022050433618333 0.7869743534376828 -0.10867204598712253 1.207803735038507 0.22637766293142303
P 1.9893000380937775 5.145226042109625 6.443452817869796 0.8930904236844683 -1.9350202096035642 -0.9602003299590882
P 3.05582505570456 4.069413596038848 13.566463792244637 -0.6230441162205012 -0.5086444237209821 -1.0244439704295067
P 0.3537521822156769 1.4125003772003195 11.879719453217184 -0.2694205009545102 -0.7770681079798617 -0.7449164629479816
P 1.8114308635210903 7.444526641601514 10.613664851827167 -1.7928322912471832 -3.048128929660331 2.0790287261084517
P 6.570482646351382 4.369809688246403 7.386425197835069 0.8760869471479362 1.0579184480378683 -0.9115244620199398
Ni 8.388217025574237 4.7360943040466505 1.3164482255128576 2.182759626040215 -0.41076638302557 -0.7274830979628826
Ni 7.860502729553681 3.403674685495361 8.76074641129382 1.1962540825276946 0.5585821890916897 0.8887429453490501
Ni 7.030760514035912 6.689177101037397 11.683697831874346 0.867548570659622 -0.7569865067386382 -0.6702629399981489
Ni 1.6063521344842826 8.623647742198678 12.597027836004802 -1.1207932331852182 -0.24103269384043652 0.37893381189600545
Ni 0.28136991848288384 1.4828181462935113 2.573925010195697 -1.1121617827624652 0.5128350647635619 -0.6537927102572676
Ni 8.985214045949972 8.366341215165454 7.611039230710921 0.07092645180723268 -0.3551948164078528 0.6723280500572937
Ni 3.186156770147677 7.235736671071657 6.0232405062736785 -2.7028310606512163 1.9880942066104086 -3.8005568704940087
Ni 6.320123041208416 3.151841773428018 0.15603252801885664 0.3842110011345448 0.9712352476170113 1.4130394737849923
Ni 2.3257268768569745 1.7500368585204837 12.625606260446762 0.3429386247483191 -0.3230069188213986 -0.3128117234559516
Ni 6.310276129106254 5.363909548378493 9.307499935657363 1.430526317715846 0.5326610983505536 0.5552202145979922
Ni 8.760609337801489 0.5145431186111753 0.27923548838801154 -0.10041983328065932 -0.5727510243929039 0.17865464582384716
Ni 8.779277441995173 8.285533127781605 2.513329201857917 0.5915514449288587 0.45443965554380444 0.6272815513406165
Ni 2.185492301947478 2.4650010048474154 3.900725548034143 1.9143364560019678 -2.639685795451299 -0.9238459596997702
Ni 4.535025207778716 5.460979960294702 0.7240585529303782 0.29038887567606114 -0.19484951041615473 -0.3758641718317462
Ni 8.58591989526179 3.400411030916046 12.140622527596813 0.15426207591209562 -1.6779996249753037 2.0469783825411265
Ni 4.1922202554948 6.246989204449644 7.42508924739985 1.3780770987771944 -1.4393434017868436 4.19224155429778
Ni 5.421191348609162 3.3797847339747724 4.738010535521077 0.6026642670125686 1.0231023687999474 -0.2650241716590275
Ni 7.945805335529616 1.3612982992145461 10.066365830912508 1.3068652545190589 -0.054478333553538434 0.8337961567995253
Ni 0.3091221720799078 5.724422157937037 12.66270095839526 -2.7485275342470663 0.4653935834521469 0.24051950164944383
Ni 7.439789680097823 6.350829368436089 2.973925042745747 1.1435354119777403 -0.013199786519725653 1.022825203879161
Ni 6.176111951714283 2.2090931869196133 7.359662297811946 -2.5613167713230918 0.2426764000914466 1.4591792055658481
Ni 2.4171651534420215 6.13358187018212 12.711763943922476 1.7985193143296314 0.6181793319290322 0.028905370180440544
Ni 1.6586638550270232 4.463793615403316 4.224980820161968 -0.84360697224236 2.4246320421731276 1.752940083037936
Ni 1.972627425557161 2.514664502817226 6.1757669368016135 0.5179065657491984 0.9451778884083271 0.22501266426309635
P 6.9901699757966 9.104598530461327 1.775098928271415 -0.6276875285297835 0.5800704408724526 -0.35759134166448736
P 8.129353269070311 1.3978139315934004 7.753315920914332 -0.4032482202716539 0.05703015344111469 0.8582175230666833
P 5.551066151411175 7.057224090310475 5.7873538104808695 -0.4966841660353123 0.12660214810298198 -1.7847186610011134
P 5.270056167404753 7.0840047073156 9.846037442735666 0.10662647631200345 0.9259311243635732 0.5328086796720114
P 8.57692153335025 4.815941944511444 10.72006278853106 -0.08704135509122428 1.9753225087670367 -2.145927030592898
P 2.9440588734540634 3.7004994071204083 9.765584627464595 -0.043111229367177366 -1.1237070643979035 -1.367707582617412
P 8.016533392627064 -0.009513086862335807 4.4081464398805155 1.3590547920384208 1.40651658506481 1.347618525177021
P 2.209708618925998 8.670858836870316 7.239439520310074 0.7246973076876293 -0.3063700815956659 2.7423851687947547
Ni 4.723244829731518 1.481941621920781 13.254764265519809 1.7711645764657626 -1.0214319230760602 -2.0266023899879357
Ni 1.6687718594955312 3.8931948982105573 11.598905288485522 0.19561389938600504 0.49617688738159066 1.0592327959739178
Ni 6.274571748008544 7.261789959341963 7.7253519960060215 0.009269084006751778 0.06685613839260099 0.35882469985095616
Ni 3.420561766761476 8.262258608267402 9.692719342854062 2.2132279698324013 -0.9781456015835993 -3.0947178331634637
Ni 9.18074425416044 4.070821629871638 6.617773933678399 1.4251511694468617 -0.17954039086291015 0.7926556780054735
Ni 3.735150094025368 8.935438651251728 11.740404296426318 -0.14796801537326776 1.701143924302251 -0.015723067162211633
Ni 6.293780686389657 4.495824053917454 2.1489365732409356 -1.2572697029791187 -0.18376265647437384 1.0741783615401563
Ni 1.866036466996721 3.4005415770992182 1.7142168508033921 -1.910024716000491 -2.735517238030327 -0.06677386309143983
Ni 1.9697927084368412 5.435849820033972 1.4287207404595168 0.48962263120284066 3.922317374233974 -0.6529339618013981
Ni 8.958666547129084 6.967781305382497 10.016906544472091 0.9337092256470952 -0.8640840091497893 -0.5011871961119884
Ni 5.363937522560602 6.964508326075811 2.507201923503437 -1.630771031005643 -0.4444025830227766 -1.4396233949211077
Ni 3.345311216889833 5.562423669347193 10.573949905487849 0.4430476116567789 1.803732740209771 -0.5569562234524925
Ni 7.314437370070005 2.1779392727782056 2.8590388067174244 -0.3689461045556743 0.2500215276026081 -0.08976389622870992
Ni 7.214849281764038 2.0511882536449666 5.470263658863748 0.7551000883492028 -1.2393450001798978 -1.6715243016636052
Ni 1.4677027632275965 6.448216821082859 7.9681436524159235 -0.08566581489993633 2.1278336634262964 0.5901926169081191
Ni 9.244329570092873 2.683153001656224 4.781860998448758 1.0319603334112097 -0.7192913061807096 -0.9736749674067554
Ni 1.1808368504331455 4.570533769601667 9.242700540221426 -2.3948861783692625 1.338343270522682 -0.5059177688184384
Ni 1.7464561632106061 7.766201761666206 3.771004603233727 -0.11230938562939369 -0.4981643501252646 0.9416079116688815
Ni 4.567167543021288 4.111318920837257 6.923686534597734 -0.8761532816094976 -2.422516538492021 0.18187032454766744
Ni 0.5303103001202163 6.13607157238977 3.101613196979618 -1.9573736375981 -1.233840525421901 -0.9321845614724525
Ni 6.283234419734783 9.371351006319825 11.614694849340248 0.19078022544278758 0.3133485697960281 0.40787363485880723
Ni 5.041880088673761 1.3434041473925284 4.022149350421203 -0.27481827493131383 -0.760463152433329 -1.2520799312480628
Ni 4.108642724082219 5.157730501512087 5.0267143520800515 -0.8679190666251633 2.7614887223934246 1.3068886515578266
Ni 6.599995408475762 8.211336272102713 13.455044489852284 1.1208240864231536 -0.902647471245284 1.7796366184925156
P 4.306653309772966 1.543363601103496 5.959642135722928 -0.24028218882765714 0.6042254408521014 1.3928118338842077
P 4.485436307627862 8.390473609597649 -0.10148287290744273 -0.8070420286341325 0.8687598173589038 1.8726377907116007
P 3.56472205189352 1.3050235695397798 10.25377606652964 -0.7178964827157119 -0.8098830976273536 0.1614645071978058
P 5.1171959116369905 2.688645266076843 2.310538760917578 -0.24685084318411035 -0.1441599544810872 -0.803755387463061
P 6.726932922156392 2.202342084304115 12.0271144862737 -0.6481743356292257 -2.6946397830896753 -1.17080376077539
P 0.265193381442323 7.056990972126239 0.8644068895137822 1.4956423334888886 -0.5073688994426682 -0.3248619697522663
P 3.3686696589503615 6.400213124584815 3.2153524915414953 -0.5789044455888094 2.5871093069061635 -0.009029457192119934
P 8.565918355054274 4.199903830847245 3.4983915362235147 -0.6547391333309369 0.8631062186175522 -0.3352939637188677
