# total energy = -340868.24383819214 ev
CRYSTAL
PRIMVEC
9.30202448253913 0.00000000000000 0.00000000000000

0.00000000000000 9.30202448253913 0.00000000000000

0.00000000000000 0.00000000000000 13.61445309323847

PRIMCOORD
 96 1
Ni 3.383509129209285 3.952886055518811 5.63333400921136 -0.950096665866183 -0.3679014653412438 -0.5225265810197129
Ni 6.906269566813499 3.3347107081111025 12.89164799937252 -0.827133657177685 0.7507942618849973 -1.2210464589810262
Ni 9.226213108317308 8.352259990239236 11.28052710488749 0.009389668745016087 -0.5587675656296184 0.290428470664745
Ni 1.1341493504376547 5.456139742436811 2.179537851854919 -0.5092517182876778 -0.6955368840735892 -0.9935033149865922
Ni 6.486608726583893 2.316883175407488 5.726429601699488 -0.4268658596905939 0.5048402194835434 1.049977595924237
Ni 6.024130667079613 9.30126184286175 9.366853208986344 -0.35881492965894335 -1.1372140977454028 0.6114237583727534
Ni 2.914426632232701 0.4455679089677975 7.8000601825724685 -0.4853116625323125 -0.20121119096812445 -0.3552020154967044
Ni 2.457064686263305 6.022279564182446 6.034007556809322 -1.269343346314201 -0.00483598793606264 0.018566193037961573
Ni 7.405304583030677 1.7222977624078992 8.795359141875837 1.4777011756294356 1.1117578624558273 -0.7477914705029315
Ni 0.10375850329728749 7.598349499738757 2.953873727991577 -1.662572491786956 -0.23337003508885615 -0.27612799488167283
Ni 3.8690841158174134 3.21890980375516 10.006268799385968 -1.4816593889462353 -1.2449083532002883 -1.8039160598651707
Ni 2.2840377265135343 6.948733309153035 3.7759820119120584 0.8901341692696217 1.196450771919533 -0.005585207397261349
Ni 7.700392709698166 5.370077410755456 2.6110066821230373 1.6237652891117713 1.0432158517203713 1.1495749333036007
Ni 0.9219952845755534 5.009744883481284 4.405214675972342 -0.5959799130138574 0.14711132379992728 0.29018987229137766
Ni 0.537967710015182 3.7022523044571565 12.668806837437277 0.3435070956572794 -0.8049182974229105 -1.093338736518691
Ni 8.246058775279657 1.7924536320080697 0.35304160038573223 -0.20343622364390124 -1.124528017637302 0.18613475625097622
Ni 0.9677454322094062 0.38791210003703946 1.0433420560033104 -0.6006248679850366 1.6895523628099094 0.34192278188929504
Ni 8.477735000188416 3.1211920352388782 10.687482107163131 -1.3180222995771431 0.1488244498362921 -0.2021668700131744
Ni 0.6725289376023136 1.7892630375672238 8.198664959897416 -0.26957630980608416 0.44961678023386437 -0.2947510092994988
Ni 6.389365361322665 7.580443102366663 6.584821362809366 0.47362934109837784 0.5145489621308752 -1.6312495133039584
Ni 4.640473110557979 3.5222581282753347 12.126666239182551 0.12768226854103815 1.5934681807901268 0.3492905351082759
Ni 4.870419158889485 8.775818378779965 11.412397256755272 -0.5783184911783523 0.6945747772706361 0.06422949940303131
Ni 1.7924908401065052 -0.06176730380788284 10.276965157124053 0.7858908484778143 0.8780214451664878 -1.1243644954762442
Ni 2.415624166630746 4.713763762451342 11.3385931331035 1.2777817068895414 0.4863768705720334 -0.3530906255806564
P 2.4233820551545513 2.7582549410742203 7.488888855356225 0.8749695457140416 0.04735072136982168 -1.0568889783320894
P 0.6462739731437508 4.652342493958909 10.255903513004629 -1.7619173468358815 0.43860474539407684 -0.7143833273561309
P 6.187390500990061 3.8483778090380474 8.340064105774536 1.5203917725194267 -1.4727417747416314 0.10807169339896226
P 2.7887655817913455 3.3959366340867483 13.121201502265532 -0.6222511880055606 -0.8779029173107525 0.7066430212890799
P 7.056674002714475 1.4654874670059488 11.6140409650118 1.14407868607572 -0.880955073873515 0.7234276969465864
P 4.518644494255481 6.442638056257719 2.6800593316045944 0.155338596805726 -0.9013207820140605 -0.05346609023894018
P 6.014307729092636 8.222171176084055 13.177755951482597 -0.735653806699133 0.1783967641767702 -0.11522064573891769
P 3.395787801693007 6.2031574327021115 9.977773907401588 -1.0913533306575463 0.7056024958397075 0.8070034620867135
Ni 1.1826315026991356 6.910306645493754 9.916563794867777 0.6862212630996182 -2.6103366528652203 1.46864420763349
Ni 2.406843055399963 7.119471970849022 12.072248465018145 0.4667763227322864 0.3146150952132776 -0.2627225201090443
Ni 0.6234802920421519 7.58511271872032 5.375053993921207 -1.0159930114486762 -0.9577757796779958 0.447046705513843
Ni 5.481459853422182 9.110505224207454 4.169684622268125 0.942244516811616 -0.32838386686259574 0.05301331897223773
Ni 7.567755140800151 5.308498007844673 9.839982086667792 1.0412137336886778 0.08893522967982748 0.04321073105951913
Ni 5.224965826856933 4.8413875400851705 0.660619555495565 -0.5427840457171684 -1.7980387751487872 -0.7641526854697743
Ni 6.938194115271174 7.565485446795585 2.2733552814526963 -0.5429233995085102 0.5980941311433828 1.6579774162171057
Ni 1.0485428179621352 2.641961029414006 1.1352646631882595 2.2996196071547685 0.3407447024207938 -1.497660649470498
Ni 1.6726249509964817 7.730215000594235 1.119525637550035 1.3114629011920704 -3.468402480845388 -0.5341438535436672
Ni 2.11776403662981 5.345352629345054 -0.035995114426520806 -0.19733962382786016 0.7448588702371688 1.3970145591116456
Ni 8.143792316729634 8.53938881929607 0.2708786774204198 0.42709288809973545 -0.9283006530370143 -1.5047936609708537
Ni 6.109197682127817 0.2018930025160463 1.4113152662912165 -1.2467320366725883 0.8838851030361163 -0.8978112261989054
Ni 4.158023604218434 6.831899880065507 0.5782873356823709 -0.5853969952916886 1.5669130560094175 0.1366417917271711
Ni 7.922897138342568 9.27594173187638 4.52715956758245 0.5525256984849646 -1.167514291390841 -0.9080426741189265
Ni 8.357748184758476 4.17416261691484 0.7793412955786964 0.8129113429307161 0.670275024183007 0.6315603812216285
Ni 8.609916769880595 3.93977020082029 8.226424061735234 -0.2342706925262546 -0.492196562577604 0.053658151645088234
Ni 7.843969459536224 7.578052482042182 8.475691345381843 1.345960677858624 -0.9603772218565848 0.5342724087017314
Ni 4.115429633534374 7.160084610291391 7.1153493135423656 -0.17151726344811752 1.775452405207839 1.95959378517787
Ni 4.732405019767537 6.549388090669222 4.961610626940176 0.26652878122901197 -0.7166361279460497 -1.4324824130009521
Ni 5.156298281194184 1.687517492395298 7.905586070545444 -0.7841381274527657 0.8098643285742761 -0.3044597519468305
Ni 2.4756687354810643 4.856633558419125 8.249024260724969 -0.6263340998256827 0.20156394632185287 0.7615504719602368
Ni 3.606180994296647 3.0017447372362542 1.6121822554929033 0.6470471640033179 1.0277414102338558 -0.927998548415563
Ni 9.02312200503164 5.96263498239031 11.834063613490553 0.07157179870071545 -0.34442729347870354 0.8203356604192452
Ni 7.006275633383565 1.7405855427889567 3.063538086713042 0.17611593856239346 0.2502177027738142 0.48103771774730697
P 9.484809392444165 3.3976016964917384 2.724851370703733 -1.8946572324054853 2.2548394747256 2.485712968644848
P 2.7030567270451282 8.259174629978178 5.921429803980356 -1.2935178866778756 0.6381033245464688 -0.44448537254457
P 9.207320696336675 5.916124859345911 7.643399204919561 0.34549507262158563 1.0113290303141034 -0.6045224032672298
P 5.737516684830812 7.2475701517379045 8.661038836726076 -0.19656469333504856 -0.3436089113424663 0.5099536294507089
P 1.611985052571195 9.032851922772528 12.56400278657395 0.2847558457599999 0.9750787897328174 0.6066628466490004
P 5.751404607571869 0.45582990251631356 6.112984536346093 -0.6749498039508569 -1.5918985223101616 1.6641516633486177
P 2.992265974159806 1.2107608251163877 2.4167152941173677 -0.9347728910249191 -1.2035891827365273 0.76547191850183
P 9.009671277447199 6.440796255385161 0.9227859566673081 0.10116236787363868 0.19460782671899388 -0.28325586417570575
Ni 5.271643386344292 5.2386584070812034 9.705729686297673 -0.5496776875132081 0.63046380572334 0.10454388275136191
Ni 4.719307769118234 4.98345736193659 7.239867145159291 0.7704464888982859 -0.5951075377112331 -0.4030165638768221
Ni 6.112723149454584 2.813164792340437 10.354866822616039 -0.3900587181645734 1.2177901568272576 -0.22820006085214248
Ni 8.036698107407602 5.415954996126451 5.781568282771084 0.08790396020183572 1.6794741526383008 0.8229278466264537
Ni 1.5753908877598624 9.262081715209149 3.6695445255274133 1.047282565590577 0.9126742593536669 -0.3704113762472911
Ni 7.286973527981119 7.445638161734779 10.950322905119018 -2.6321226383920604 -0.10720651718518956 0.4423945514538123
Ni 8.050213949164306 0.19388488953026178 6.953160142664402 -1.0288606114399634 0.7764883242169918 -1.2015526119224724
Ni 0.36427751591079793 3.5515967138917413 6.089786217174007 0.7165733930289142 -0.8203940244610064 0.9799273760743703
Ni 3.1317870412683924 1.5080721356654 11.911966209185 -1.2903358894054682 -0.36247155257492414 -0.8018226892167223
Ni 5.763450729440369 4.211017238415222 2.7852447654768846 -1.2447227195520434 0.38593081203912893 1.3817141813091494
Ni 3.3537984626085238 1.6425608074605824 5.671358825407538 -0.18174922558877085 -1.4403240205325583 0.8776992859403786
Ni 3.077500425650971 4.915561884316378 3.304051235000235 1.563955001822358 -1.6161815632272425 0.15860646892372038
Ni 6.852922455681574 6.333534609620169 0.38084535194167357 0.8305642801257891 -0.11580505748747796 -1.8423553376779755
Ni 1.2259417292780794 7.8762102768306015 8.022574843443941 -0.537174669950191 0.7713157788771169 -2.7113347272468533
Ni 4.726935429297515 2.222755988390235 3.8780494071354514 -0.41095021690160194 0.13863851044222575 -0.6038197207732504
Ni 5.135294309627334 1.4059173014106834 12.958236542535184 2.2954749888587753 -0.08877864949730517 1.102023665887199
Ni 4.809462991627496 6.453428404804019 11.899617771516711 -0.18789159104108283 -0.9412793246848692 0.09158835103195839
Ni 1.5625447917749995 2.5230439468140884 4.184824597521538 0.45243882306369176 0.04518765228023185 -0.6034618232131994
Ni 3.4903335798176593 -0.007534639933192539 0.40976813705806314 -0.37620767121409404 0.28153759593301836 -0.3780609223727489
Ni 7.64789208280565 3.7062521750389745 4.361199355928044 0.9879757003001437 0.252412653542604 -1.3226603125697864
Ni 0.1044608061552579 1.2482665883393909 11.69236494242103 -0.7470867311264231 0.12642217088169194 1.6649957565164677
Ni 0.8743549655411761 0.5428708071865225 5.862233579774367 0.8123598413026204 1.0605414874830121 0.794483989463464
Ni 1.4158332596437493 2.626110379480475 10.396895230203878 1.392650368605679 0.159967353826989 -0.7434961855616873
Ni 3.964206619467817 8.535342438591206 2.7008763324768066 -1.1779935936556098 -0.09424378637693447 -0.8547922994352182
P 3.7908726929059533 0.7827700218495294 9.728098264874646 1.0391380821065717 0.6903486550044304 0.9498508684039642
P 8.905358373483223 0.11241868820815447 8.860245414535077 0.8493528735872018 -1.198985879636561 2.1372708975797967
P 8.295415317854372 0.29163149432283036 2.1225341148492434 0.4710392117736985 -0.29915890855920735 0.8433999984378765
P 6.63293887570618 5.329567093583785 11.855724307994791 0.4602565193358977 -0.6656879190329568 -0.1679783970569236
P 5.441591375948523 4.183780910360421 5.010132777907474 0.3227503227259022 0.37891632839450873 -0.05042036143408091
P 7.452782116634399 7.005410545094939 4.323215468640146 0.3730231028385253 -0.28194228757060474 0.8575186972274458
P 8.56579726716068 1.9114544328294674 5.187338207111554 0.9933662751880955 -0.2086177678448407 0.34793813484543945
P 6.0321676163416855 2.6297381690779384 1.3428737598264624 -0.5046116484125052 -0.18055391972908905 -1.516745176905775
