# total energy = -340888.0353566016 ev
CRYSTAL
PRIMVEC
9.08218167366929 0.00000000000000 0.00000000000000

0.00000000000000 9.08218167366929 0.00000000000000

0.00000000000000 0.00000000000000 13.29269092040590

PRIMCOORD
 96 1
Ni 6.589395246654714 2.173656696721522 11.18218366195162 0.4464604939930698 0.5786717607527131 0.45722236049526416
Ni 4.962449556049586 0.3875085358971952 6.019315787173688 -0.7001340165259684 -0.541605452028035 -0.854975876200934
Ni 2.722865302789441 1.5580028497613923 4.449276322082272 1.57046529213705 1.3253527718002853 1.3918517839637836
Ni 3.492761840574123 4.351400375181904 4.770587560646081 0.8529076808179956 -0.281644810934844 -0.1259367466048412
Ni 3.687710869517714 2.681750266496516 2.467907575083261 0.5054737393024843 0.656668746253482 0.14713086418395308
Ni 5.083987310781621 4.553333601808124 2.5379466352511755 0.7426482357390952 0.5672167248382359 0.7095080015417007
Ni 5.440798980947326 4.795891426918605 11.945144137616376 0.8689616489570647 -1.110877773843719 -2.055497218645415
Ni 5.589746759874644 8.108308386629327 12.20594715742729 0.6542627079151506 -1.1317888129647735 0.07625969109468803
Ni 1.8460896514427667 6.626868328109233 0.3861489333054013 0.6086929897051517 -1.2804973060484914 -0.6199793612522484
Ni 2.9128100496483396 1.8151739051337064 0.21730118618249467 1.112205491516207 -0.1727917592851669 0.10645498373114569
Ni 8.414259839600339 9.150752113306076 6.711824871623985 -0.3015513200507839 -0.54843764445852 -0.9494011824610552
Ni 8.269934891128752 2.4616617587681193 1.1624565831111071 1.1788451430226279 0.580589032380084 -0.5543056732035228
Ni 6.912357625841022 0.761408330822153 4.54041056554985 0.638955388134119 0.31011566468102725 0.17030961629326152
Ni 0.6568079366341153 7.489212392826914 2.495915206830582 0.9754012060692427 -0.8777645919606755 -0.3193482390228887
Ni 7.763348963506315 4.136497793171038 3.6953144719883206 0.013341454303912505 -1.3806489732694287 0.04660458723241651
Ni 8.193363017705812 3.9496046593438203 12.429556826978256 -1.1600215825582214 -0.8070119467271457 0.8831867914175112
Ni 8.147824958953276 7.5392733780371195 8.612520231970569 0.8927803486432172 -0.1979158080463043 0.2540432471674915
Ni 7.19199799859542 0.6026754093938411 13.22527037429823 -0.5346999831574533 -0.39215185324817625 0.6514182964878201
Ni 1.8323301462552737 6.79611478300622 8.947310336309135 1.2272759848305057 -0.4645327781137483 -1.4821378712445508
Ni 0.12682540088395483 5.147698814999617 1.3339481533099735 -0.11329951745680487 -1.204176936919197 0.6161232207309518
Ni 6.639492560591488 1.8909102178455908 6.708581624559659 0.42773977765511495 0.9377494571547399 1.372559768503391
Ni 3.859064390555623 4.341210167379681 0.4022434673930294 -1.6432287971530217 -0.03804487058786351 0.2285798127890644
Ni 5.95888295052842 5.7169608781328725 4.834711395910619 0.5128054970772072 -0.08983897244101947 -0.45923527716023493
Ni 5.504129033536362 3.1919054915042238 8.964152333945892 0.15873630963336532 -1.2240389659504467 0.3381548302064305
P 0.3616188689087675 5.733435955631296 12.413485906562897 -0.2781522244005532 0.3618092364005769 0.16353450235295708
P 3.9834993612314276 6.204565046123719 12.575403949093024 -1.5547435105264191 1.3843439056225126 -0.6353507015019961
P 2.2005036256550072 8.575205180476619 1.0636914906279964 -0.47732118812766827 2.186938954228885 1.3255219503882978
P 6.840998924680538 7.816615958836115 5.916257547428446 -1.9782875049326314 1.537627676781739 -0.8609462348517559
P 5.101170798448114 1.0548227402546715 12.503583873105132 -1.1249309095026756 0.7390980564939916 -0.168123150164904
P 4.111421889657725 6.086959876042631 8.075469034248512 -0.06853326898470778 2.1438704051741855 -0.09935436813062243
P 4.758291194921099 1.1981758952905734 3.7993699352778436 0.8533673940632335 -0.15568466729123512 0.09568951768452552
P 0.18315581608157114 5.630471262356967 3.8324154531819317 1.2592229700507476 1.3498574418098688 -0.8194658562197823
Ni 0.7699755527649663 0.5153375178525811 4.264601057012009 -1.834666196563834 -1.4799339216146963 -0.6854589310122969
Ni 2.264596581501964 6.4085962567092185 4.783467910650636 -1.5355044597911491 1.0523612656650652 -1.497954269451517
Ni 6.088976120367134 5.614532033575415 8.998207790448562 0.5943968847974537 0.4063813665839969 0.6032597345047223
Ni 0.06857137961458211 2.176018063948419 10.164575160974675 -0.5110131810634747 1.4930200653746932 0.6343623694467979
Ni 2.455286067255499 5.354200378991718 6.799171845346886 0.3099729684555758 -0.6291047205922843 1.825241046595192
Ni 0.6938877596235398 9.314685491942546 8.948001490332086 1.4607990005574583 -2.0155733858672837 0.31901399561192156
Ni 2.066214487897731 1.3991736572076763 11.375499714635998 -0.5830225815222411 -0.9774550032744779 0.08673796491819256
Ni 4.02365168627031 7.426091230415642 1.4975809117340957 0.46805261834154877 -1.281764088576057 -0.18119540996782987
Ni 5.709858612088899 7.970195650400807 7.928173304161856 -0.24093447769967535 -0.12134707035162971 0.4019680680076496
Ni 5.541556704082671 3.12773079602249 4.856537694832457 0.13152478221557995 -0.44329418044994623 -0.5861205037212744
Ni 0.621384703576175 7.072167694012064 6.652526399465793 0.727943839649385 0.7112825769436202 -0.25108107921537404
Ni 5.253124779498904 4.6268447800177395 6.885853095155436 0.07928048019888283 -0.5004711438815703 -0.07270411253294574
Ni 0.5503611349182773 7.111756923789148 10.78478553846455 -2.336037226551854 1.1791577891670402 0.512601351486201
Ni 4.421069790556993 0.38552952851742306 10.283903220913233 0.04303461049297105 0.012362635330410966 0.027848132560519778
Ni 8.349849007395916 7.55872741111409 4.381789354955734 -0.307647919866825 0.24608748265552458 0.7123930363989796
Ni 7.400406820732321 6.103389542632844 6.898614468580485 0.2113958448106101 -1.8794039057908405 0.14307366339544392
Ni 2.6462480184582913 5.440281296593737 2.338662681009901 -0.6602212394914306 0.15967450517691856 0.6780058171683614
Ni 2.308899463551199 5.568076674477047 11.151039044665184 0.9515781355077162 -0.3170684418497765 0.5243932019148067
Ni 1.5498288862836735 3.592347962277662 3.644855687222199 -1.8781250390784172 0.3006249515817726 0.44909973138812975
Ni 1.7284663169983947 1.3975388645121325 2.1707231520511856 -1.831869093434671 -0.3762354391282359 0.0193758334234505
Ni 1.2441862274884878 3.5580718087610954 8.399066257931588 -0.2553048874887345 -0.37718391908443427 -0.9343355463771845
Ni 3.7700590104649088 2.7185421843278923 6.674206475263195 0.3083053509451658 -0.35901496148489137 0.5621945890332962
Ni 4.246001657227542 6.924128133248937 6.067462248493779 0.4075527611842787 0.5568958025282023 -0.30492280762617807
Ni 0.5303885092695537 8.61449469825952 12.84567060217481 0.5612335106716076 0.7098497011518355 0.20114974160256974
P 0.1854872121090493 5.417748403940158 8.171880933468202 -0.0959509988760283 1.7574577684026313 0.014547044576239464
P 8.625020946782493 1.699367007017716 8.028824765771992 -0.4070583380463635 1.6130970107646476 -0.4091231909951922
P 2.3404327982119093 3.2793487363525298 10.400135165130065 -1.5944799098840925 0.2889243753153927 1.1625492340760817
P 4.152219049593183 6.25903088943025 3.6341813991384626 0.5540706743745812 0.6107509006754449 0.41227382080903197
P 7.022460913885893 4.357657998333179 10.592506670923683 -0.3468628995033897 -1.2056116124831946 -1.402917554859642
P 6.670063183998155 7.623328969132993 10.066887215234296 -2.00275669371859 2.065131142190753 -0.58443591693
P 2.233026918114686 8.589500534380985 5.479446388488143 0.7045349738071415 -1.2910964217205765 0.9929317587538383
P 6.98673161130662 4.3476312698005115 1.3463099107427767 0.3321903850928795 0.19595585610645608 0.32268090294054746
Ni 5.695145477829005 2.8844009854724466 0.34430823069928773 0.2371410720955142 -0.5328140789886501 -0.44787125829766744
Ni 1.5173600869138466 1.1895296583674757 6.652752545788676 0.22243333357169437 0.835939171284457 1.1409938765028091
Ni 6.929840825501698 0.8360947433362328 9.224329591441679 -1.467766175903911 0.16686433805713843 -2.0727601194909204
Ni 2.733627688035104 1.7090576948296339 8.936197378852095 0.7393600519061266 -0.25440397294101996 -0.38054537935749944
Ni 6.357263766069146 2.331377863114925 2.523763900399169 -0.4935659321213048 -0.4436160825657392 1.0955768818205907
Ni 4.436754718252571 6.806341319535011 10.3292578195966 -0.5234917731464598 0.4786352789534015 0.05959919971987156
Ni 8.043388952252958 7.011834761364859 0.4031961882472658 -0.09378073069758688 1.11352292477605 0.8977130100581443
Ni 7.704732563189429 3.741495549201103 8.155145197356655 0.7337668740890654 0.2995013795002906 0.5640339562348802
Ni 3.198826113915359 8.311313310689293 12.430633065502821 0.03946977595984816 0.7005001416161356 -0.624523528979505
Ni 0.08774749793331016 4.786255232196538 10.407366398153354 0.30076687647627554 -0.6878480000697638 -1.4788208910561758
Ni 8.838234243007964 2.297437750319109 5.411666975112737 -0.4190381361160589 1.2291454339390766 0.39509190971310665
Ni 4.197711697437509 2.9105576686011463 11.6255085615655 -0.9741020276418451 -1.047620151435654 -1.099102635585662
Ni 1.5922608389146755 3.7872515803130433 12.675271618427464 -0.4550184108654099 -0.4106180303731638 -0.7429444268232753
Ni 3.155667586753004 8.654910406566017 7.566093060425679 -0.1041412479963045 -0.3646528764969591 0.40830326619705815
Ni 5.662059090107529 7.987878658057606 3.791128763655975 -0.7812960300182803 -0.09984442039316353 -0.45305254538829076
Ni 2.870396261380622 8.564724342861856 3.2493185027535554 0.39328159597724527 -0.6221336885910898 0.7769122991282879
Ni 3.585245696233689 4.465045714067119 9.276277853997074 0.44955147421356767 0.25594303529336565 -0.18610570278525368
Ni 7.332090650421877 6.474314923070077 11.592848128163029 0.3638535205241153 -1.74041572531868 0.04847352212035523
Ni 8.20875731558885 0.12170305043791779 2.203968477951396 -0.7800410745652566 -0.21470074081412702 -0.20292251723227633
Ni 4.682600293117423 0.5992668666236325 1.6211503504994258 0.6989438528726092 0.18087170807982397 -0.578669446759868
Ni 5.686517405269191 5.98023515956855 0.4795219345477103 2.224914405031394 1.164237163301466 2.1667789343412425
Ni 8.157906180575797 9.216779573842759 10.919174580219888 0.3912910479097777 -1.5698266301117867 1.2380172825074098
Ni 0.2741365706794011 4.709038523877022 5.924139972875459 -0.6778793188928262 0.8865580218825893 -0.4060792619625458
Ni 7.200762303879863 6.207834631514805 2.6474523157440086 -0.12831527413934676 0.32048158129638354 -0.6609421768178553
P 8.402498414374065 1.9397905194423486 3.320008755345195 0.3726634055062614 0.08840995330397677 0.0009294537928048507
P 1.8096973496036346 3.6232001333152293 1.4873589162961263 0.8268477505061502 -1.5647733839585953 -0.2606314419079705
P 4.7820774286412595 1.2706607869746547 8.075495372575272 0.431100980817864 -0.8122220301731753 0.6519649130199094
P 8.929019730700494 1.6404145659800806 12.414163437313382 0.5202462696259685 0.5036240876882552 -0.6837044102150354
P 6.290791278632009 8.027113682750656 1.5267183668776705 0.36539875352404816 -0.2650079737091113 -0.310383316520117
P 1.8396957955668622 3.344304499455468 6.054688160014432 0.6772694532229692 -1.5472286902066128 -0.8272683829833366
P 7.29500810277796 4.019828087799066 5.9615858077850525 -1.7558783397306534 -0.46726971742893714 -0.37410245194563313
P 2.173556792723461 8.347569379803796 10.443708747993455 1.675955083741449 1.5558485706651397 -0.3795051110184432
