# total energy = -340893.822078201 ev
CRYSTAL
PRIMVEC
9.03154303424578 0.00000000000000 0.00000000000000

0.00000000000000 9.03154303424578 0.00000000000000

0.00000000000000 0.00000000000000 13.21857615298218

PRIMCOORD
 96 1
Ni 6.164759712079615 1.9760745328743161 11.273224464531104 0.569109828095891 0.18838498573773363 0.053038258672902204
Ni 4.822338242211017 0.34061471284052647 5.859741923163416 -1.1047762889316715 -0.2493844082392415 -0.22579325118286275
Ni 2.5971195617301484 1.6546509459400163 4.869089121848172 0.8994626457593993 -1.596662262247392 -0.2694212722854586
Ni 3.6916071107658937 4.159016560163484 4.671749002236124 -1.3964638288144984 -0.41165469916779424 1.2221764588204111
Ni 4.894355766789232 4.435372747092103 2.573008954304264 1.1310650474248714 -0.13764220796722748 -0.2217674178529213
Ni 7.274817641397885 6.0289343355895495 2.7613735263961416 -0.4023089962868362 -0.14261780680494793 -1.2843151371326849
Ni 5.195413224061647 4.36133215686233 11.852185212062993 -0.9603116587259719 0.023180808991837495 -1.4817882012146157
Ni 5.567250884509315 7.690331844215787 12.336963221971793 -0.07523819180870914 0.7552862362180799 0.2002513981580164
Ni 2.0898539126882563 6.459404773760039 0.28770522397213427 -0.9427849626961182 0.6178648860124069 0.9109955860996632
Ni 2.668595193723125 1.5053595387067704 0.37289435098888357 -0.5096677227791738 1.5272936418455825 1.1469266970474763
Ni 0.5346041299671814 0.20035304238597407 4.927210714232252 0.20339200066952712 0.08243650932936125 -0.07565393918988907
Ni 8.469392750927206 2.220025543205665 1.2563318980060443 1.1129153730990382 0.90210316870604 0.44538011644469744
Ni 7.125851369715782 0.6551770364913966 5.218958456890266 -0.182485332423847 0.003960013089012534 -1.2586835526075095
Ni 0.8832605287726494 7.405296344380262 2.7581086235700787 -0.055348909083949835 0.13813046045755564 -1.4552119933879843
Ni 7.6656667000443415 3.8326165929880753 3.681281347554171 0.5755944073789699 -0.9547310793144008 0.0899130202120645
Ni 7.625656964167555 3.729638938706559 12.387062094631414 0.3233802430004173 0.23303913411199867 0.6394719227592213
Ni 8.17193887934663 8.56180349979657 7.10109861957639 -1.1598506041979961 0.4938307557469172 0.33293034858269765
Ni 6.606049938868703 0.6049327559880697 0.12135774761850242 0.8643205506406276 -0.3526124003926572 1.530127511749952
Ni 1.6876070466656128 6.677128182965838 9.315791939743306 0.8464686100608713 -0.48609584899650476 -0.9477266229721097
Ni 0.1148631649844173 5.115113774472367 1.354851582619664 0.3770571636985829 -1.4577710123644119 0.4285435045033329
Ni 6.169230325907834 2.1511690587080086 7.046492103761891 0.90032396531843 0.0011631670701657388 -0.18639006679489192
Ni 3.4089198121330693 4.410888233782404 0.5359100910976066 0.424686592651088 -1.0731728030937775 -0.5565463896085835
Ni 5.974067711334138 5.452532224214294 4.828917721350122 -0.40717738012273097 1.979526519546055 -0.6824985628323924
Ni 5.142551602371618 3.0403064125675705 9.218555637402394 0.8710781810794352 -0.7825684689728006 -0.28024253127067866
P 0.17194071098760338 5.57952475156497 12.394728068403923 0.3456015162924629 -0.7579311300400947 0.35165055070002016
P 4.058856747325208 6.208138213527969 12.608287936246471 -0.5346771003393179 -1.1323647400729016 -0.38422205687813826
P 2.5901472104667445 8.312858046137938 1.5433742067155698 -1.5954368744807232 -0.10360620142844093 -0.5999000740038701
P 6.327128793703287 7.6285019002400585 5.77694073613895 0.42567955269197655 0.8304359820780408 0.3491511813169342
P 4.541195337446123 0.9985454668192439 12.609173027469028 1.4214652359548423 0.6088531694320998 -1.2295922916685083
P 3.8062806133454776 6.133862803177926 8.177038088573726 -0.35901007638888494 0.40943763691181745 0.7639243715090521
P 4.680795898946683 1.0178007166813905 3.609001908226424 0.634724637882223 0.14699845237114684 1.271396629298804
P 0.11107985158514286 5.563331194809422 3.6854972718673276 1.3169036125916673 -0.33917067306545456 0.20850541063669253
Ni 1.311741318001004 0.8763459793850042 2.637925879707235 0.5490325977300415 0.8741473069230623 -0.19466464809885828
Ni 2.0560217522831903 6.493507880457724 4.526278840883121 -0.7646990448915476 -0.529812830268481 2.5116482004533713
Ni 5.6570605489695325 5.694469200437173 9.201992690534574 1.547545450116083 -0.9517470569854125 0.6184786083370057
Ni 8.490174331571108 2.5643350603232102 9.988313151579575 -0.42478326612995226 -1.3457742728794309 0.8049576353012783
Ni 2.4135534484805583 5.216790886549311 6.8427946809706865 -0.6861137909874764 -0.5037883811802614 -0.06730531011487763
Ni 0.2512828170096278 0.26995462918833385 9.435287383177204 0.7717027299028903 -0.15837944051457886 -0.2018565378616072
Ni 1.4514321949324382 1.2365356587129679 11.376356558199413 -0.6411022592737927 -0.4274173613186897 0.15287985085258832
Ni 4.256033396007375 6.720262832750834 1.643690265249256 0.7986694882997213 0.7513498772781512 -0.3703486413301557
Ni 5.537663549355285 7.720759112876937 7.900954654246342 -0.06300179764351731 0.6982082602581653 -0.1988216076900253
Ni 5.583552819781911 2.7566075811089674 4.671167370861302 -0.3927920579353364 -0.684803299706169 -0.09962433396255746
Ni 0.9867231769179544 7.269723851096641 6.82300566691208 0.7191565803750583 0.18303863382415575 -0.4696932392687652
Ni 4.998200449207131 4.589062515808869 7.076882343096384 0.602663238571304 -0.191696823719786 -0.4624213881977004
Ni 8.150082545075337 7.2524013514551795 9.231073356121405 -0.6137868592882914 -0.26881063528465315 0.2348623033636665
Ni 4.572209656407947 0.37306956292477744 10.378314148330134 -1.1423984701598198 -0.19073703090967797 -0.2022074934431227
Ni 8.32766074525804 7.3151434812827265 4.7517738929155495 -0.8255609133739266 -0.6984095776356939 0.2207484896701037
Ni 7.237743157024474 6.166493768352378 7.059922911487031 -0.47221292036682544 -0.7602438373336714 -0.14141247364293713
Ni 2.59990127700104 5.316616532293356 2.5749787338516064 -1.9338462439001212 -1.0744730099624398 -0.37189464566103697
Ni 2.269139074514461 5.303854961910986 11.37574783219533 -0.3589082607036981 -0.04294385055137766 0.4939533973677106
Ni 1.2338081327006003 3.4476470688914573 3.852778609776188 -0.898910115690039 0.669597538500008 -1.101140491951297
Ni 3.407348323635877 2.544068277635285 2.726727623958909 0.7602165836401618 0.09238025080563446 -0.25193082881017903
Ni 1.1178882771749674 3.531098527018208 8.232502600981517 0.3954791178491963 0.24895349134941 -0.7611362672409537
Ni 3.6782223639104994 2.6347630333180594 6.947948033981937 -0.6360127605660272 0.5464620087893879 -0.3046649259791011
Ni 4.079909274261729 6.862428352488191 6.08714082447865 0.15413994851193452 0.6017543536037895 -0.9440851695647806
Ni 0.6798205049594325 7.3791409955994105 11.41668601070149 0.19385295083084034 1.1128300124740835 -0.1099856225922235
P 0.11420566864766109 5.726206042845983 8.024957740835118 0.4568685767002713 -0.9378489588470815 0.4803252650613147
P 8.364915860493197 1.5996398169952066 7.847419279441999 -0.8657146027746768 0.08614404008793551 0.7475428448272351
P 1.6224896210061028 3.2482938183252488 10.356054104082839 -0.11845612195707984 0.633382779142348 0.190795137841123
P 4.134405605250562 6.082590733071263 3.91158840574352 -0.14641841149796075 0.5828785997452091 -0.764901904930973
P 6.740186416801441 4.068881760152123 10.35764004304897 0.7303223671838905 -0.13306898677424825 -0.6378528990985596
P 6.0972669905881425 7.729104258689612 10.068285659309094 1.0326290773434603 -0.16272074820241006 1.124369637682567
P 2.442147313894984 8.544652599473766 5.638964949239797 0.717152662571152 -0.09623716265787942 0.8807108190731928
P 6.752288684538438 3.8952413127554877 1.5968833900449595 1.365945605620983 -0.16286087332470017 0.08718559397857244
Ni 5.41241410982046 2.651408167227973 0.3979713335251105 -1.104493210473614 1.3097037524091186 0.3999476951435112
Ni 1.2709458378756215 0.9600801248103878 7.2132180017708825 0.8547264791942892 0.022176021876406972 -0.780023848174076
Ni 6.67813068424853 0.5695345260116642 9.09753928211259 0.2625615690511478 0.8434619620240635 -0.20884479625398225
Ni 2.585116640967112 1.759642634330003 9.094975227030105 0.714141386548654 -1.260485381702939 0.43537441138223726
Ni 6.495151621299615 1.7507375328459145 2.469917502579847 -0.7171596045496874 0.11062454172780303 0.834849280654388
Ni 4.0217732314087105 6.880654006438385 10.478973405501137 -0.7189334086206587 0.41189509731337454 -0.1458813080475681
Ni 8.233145646849334 7.1760938439104915 0.3988040417977605 -1.039458441560468 0.020187530691468458 -0.21134570829896504
Ni 7.828315759503719 3.7942505979531798 7.934423746619298 -1.283971894860653 0.6041490790882111 0.08222079377412937
Ni 3.063165248121554 8.578972463205547 12.464178828436724 -0.14908953057222066 -2.2435245639334136 -0.919764333431229
Ni 8.965919895238287 4.851148864659538 10.19139010736068 0.2760930278786793 0.577923826843095 -0.14538611357870443
Ni 8.890226532623537 2.4126954518872643 5.790675003711824 -1.054432546371797 0.32581996279016145 -0.15712731327503263
Ni 3.480847021280411 2.695581444468009 11.361247689768652 0.7773298462816807 -0.22128405045859956 0.9532046153675454
Ni 1.191983056663264 3.433485609330554 12.553681420431973 -0.8606551859738986 0.10846224396916158 0.8776792313357208
Ni 3.1763756407209938 8.440555033849423 7.966003440178389 -0.6434509620116273 -0.15926338578142896 0.19199944256186932
Ni 5.8629165105586045 7.749082031998744 3.589385396640785 -0.8943818888023822 0.9173048161471428 0.8467897408457158
Ni 3.379558265556222 8.197552335542243 3.580463135224831 0.1051169816460125 1.069732409953661 0.6360855227854917
Ni 3.3912450823112024 4.3494195515301675 9.584710650939526 -0.4290662097760224 1.130490148758008 -1.5040755518579065
Ni 7.303935336311374 6.2471906058375 11.357955692313327 -0.381578191497388 -0.6269786753882169 0.04501410281684506
Ni 0.7809141793529359 8.83728362704572 0.38633148079418445 0.02009625652924281 0.8436128857796309 -0.31322155729986056
Ni 4.529797530069937 0.2378827165309849 1.5667053919730196 0.8047624885713366 -0.08590904125899398 -0.18043359210114088
Ni 6.102785263414489 5.516710369392724 0.3556459100007377 0.5174221699136121 1.2774438639341483 1.0854307945255242
Ni 7.748350477008671 8.89098518224287 11.428966199837307 0.26769271963012603 -0.34715703370504086 -0.8185824251735643
Ni 8.99482083311768 4.921802626231569 5.903337181645864 0.9101219252454584 -0.22796120536845904 -0.6788396259235664
Ni 8.06107668794989 8.851571528209845 2.3650016791517934 -0.28454398685950993 -0.30362851429478677 -0.042600094058713726
P 8.473122778222265 1.6070185876975396 3.588949173109668 -0.394554806262714 0.3668827942687424 0.5157008163471312
P 1.7443341687970113 3.1972475367957687 1.6155082381996118 -0.7163972724623662 0.3769800306037443 -0.8432436753656704
P 4.545087932516753 1.1273894605028183 8.159166471112554 1.0151059808580323 -0.7452694754120261 0.2101614581828768
P 8.528043591736202 1.6586428879846076 12.419499784783799 -0.3432756963727636 -0.5894606238381009 -0.7813945032693576
P 6.373749619119985 7.681679625938144 1.4979554796837933 0.08504797881027933 0.1903639638409754 -1.6320815222869505
P 1.8218970608308354 3.3028262754864306 5.942477179923342 0.5034443675772814 0.6559511513611671 1.0752152874451029
P 6.923951223998952 4.0166613780212925 5.8670782456132375 0.8401763492942561 -1.6264073547203086 2.105904467453373
P 2.3420868480306694 8.524729015423159 10.291005318150793 -0.30674623398816203 0.5508717078213093 -0.6298714235549797
