# total energy = -340893.61032819154 ev
CRYSTAL
PRIMVEC
9.05230199119736 0.00000000000000 0.00000000000000
0.00000000000000 9.05230199119736 0.00000000000000
0.00000000000000 0.00000000000000 13.24895898482961
PRIMCOORD
 96 1
Ni 6.3603647669323955 1.9381160013460395 11.303495673179992 1.0029606037447503 0.24704984656879386 0.529744953145023
Ni 4.9098510225129814 0.270213030533949 6.040121472709927 -0.8400971593168887 1.0114809825109354 0.03278593618176934
Ni 2.802656121048581 1.7702410574176208 4.738198552884842 -0.0494364002542568 -0.4039475603315237 0.4684038310333804
Ni 3.384456634460465 4.448256029749546 4.596924704142621 -0.3525383526216122 -0.2667041304646116 1.0483539442778849
Ni 4.906121474014815 4.712474625779887 2.748947001754103 0.79901093079954 -1.0441679312209953 -0.8485969692577837
Ni 7.069902316406503 6.138049277693353 2.724727567271467 0.8383858330527367 0.24404679807641197 -0.5784452465642038
Ni 4.99359386998032 4.677695680804261 11.3863016073717 1.3617752762933772 0.12891819783066832 -0.03053493536406354
Ni 5.656059448118339 7.532791788381681 12.5069250191354 -0.5998262833431411 0.9866119871833976 -0.5008624657827181
Ni 1.812967923707302 6.487531507957277 0.3761964792273722 -0.6191517231446304 -0.008858478831894423 -0.4753614932981362
Ni 2.579489715404617 1.6976415939338831 0.2511615553658848 0.48525252715960293 -0.4834512122848061 0.5550530928925086
Ni 0.8849793127948021 8.995770552902979 4.842892048517613 -1.2363586638580644 0.0063750502884083755 0.22004297896264682
Ni 8.426905779306338 2.3675662690682353 1.1468841403879315 0.20141816477260793 -0.38746267530262307 1.9067668711848258
Ni 6.885959536108553 0.8552787093421658 4.660361427359746 -0.7287879328172352 -1.0635669045728973 1.3481859676447168
Ni 0.7572748650204276 7.507155668607872 2.4707588929995588 -0.7654469788011655 -0.639019408602835 0.9522857030977019
Ni 7.435904998148957 3.854606052784018 3.964287366917979 0.4639401388350719 -0.27009027332802515 -0.5408737160683329
Ni 7.401126053173331 3.971869575223961 12.742173532499034 0.4345853398220386 -0.4034356536921117 -0.8670258653869326
Ni 7.904606048123707 9.072941428987626 7.0024726226977725 0.5392446651053423 -0.7618698029728685 -0.4556120785853508
Ni 6.769673662304052 0.7258986804342701 0.3669685623850627 -0.40426200624814895 -0.5298218291295456 -0.5649819219704464
Ni 2.014662268580265 6.418435285417205 9.122226688206728 -0.6719752947035653 -0.39173379187415114 0.6778464087723616
Ni 9.046680700363396 4.659636337955127 1.493236989788223 -0.5731204919171807 1.1524170307380863 0.19815260664745873
Ni 6.413393153102936 2.1519132742336855 7.026864050921829 0.5847102536373091 -0.43578167412298496 0.35776103447313223
Ni 3.0867264157597005 4.3189891546189 0.45376927752881147 1.456820989746317 -0.9823915213441469 -0.6451268070521534
Ni 5.9730891750669 5.662549948781411 4.873073329216008 -1.0596840245787233 0.8682908481422852 -0.3471866013913956
Ni 5.347031956296912 3.001861082822039 9.325399274025688 0.1690384628903218 0.127052091156207 -0.6027665969183876
P 0.19480192199309784 5.487614209152579 12.39274561604819 0.16138968809581236 0.11954858369031024 0.7995783732672358
P 3.9547788287080885 6.056614767281919 12.704956802546327 -0.24682307526996844 0.15611764106359563 -0.11303289405897952
P 2.2657459741474013 8.486832019738053 1.390094153518889 0.32087933095543447 0.4072761104841244 -0.0895882898827941
P 6.4626829384731295 7.846779941797758 5.840803357159219 -0.2144040355093146 -0.36419701990646314 -0.7704156356603505
P 4.837640808022985 0.8911004795289298 12.443184138565028 -0.8644419067098403 -0.1837559716061545 0.09900469810068756
P 4.111220714983145 5.897638236396457 8.453365658578528 0.06155452367402948 1.0146424109580525 -0.49064670159198076
P 4.646238930728701 1.0526922205141986 3.752410087322714 0.47491746378218214 -0.033055644903388234 -0.34211484329544306
P 0.3245223174629621 5.63574608202638 3.559120805023897 -0.272013458492667 -0.2988418915394208 -0.25832079149692283
Ni 1.4516090729831959 1.0312292120453779 2.785884920799663 -0.16493395380364498 1.0115437174280708 -1.4502389656534251
Ni 1.8531420407822183 6.653840403608553 4.997083532470717 -0.014246225506369014 -0.6581574149838666 -0.7709231714243884
Ni 6.35752234404787 5.623226748111416 9.020659857746937 -0.7779921624560279 -0.17650751757385733 1.479199357441517
Ni 8.616035528753438 2.1396926662906623 10.175491919448923 0.6117613442178303 1.1287392275051722 0.4117310609316845
Ni 2.4658380615345017 5.317132202196315 6.942706608014645 -0.07068399677912343 -0.14377917410290075 0.056217170621516085
Ni 0.84905253590275 -0.0088495306111848 9.152208818257163 -1.130082628906944 0.02788669910793907 0.16879523653126413
Ni 1.4110457069145388 0.8756835036861426 11.509119622429301 0.489157261530648 0.7414403314739231 -0.8566146973559376
Ni 3.973571408033804 6.755108508096405 1.5367206285401536 0.326720877337876 1.0227323870550387 0.26145728024337556
Ni 5.866462107688477 7.818536758996104 8.024192391303043 -0.9540001146856474 0.47905668276153623 0.041060517485735734
Ni 5.175789555957526 2.8488862282819287 4.961828436400422 0.0250541147551504 0.08875936622359552 -0.4298591379909629
Ni 1.0464280274056268 7.710325538736178 7.115737743264802 -0.9583889877819624 -0.7845150511762102 -0.018309082721832983
Ni 4.992064030911897 4.4701988102339065 7.117526478175574 -0.5084791017877114 -0.0012760384989461894 -0.033866827950773934
Ni 8.297376387412474 7.329567604440296 9.129115490165722 -0.48198979724793123 -0.3959275182405246 0.02548837407909159
Ni 4.751553414291021 0.413995272210252 10.135440913683654 -0.9785826891210179 -1.1748211094648993 1.3789168210696703
Ni 8.201630187254432 7.02095651851915 4.714708733957915 0.42994398439528536 1.170525824523655 0.05858901328780232
Ni 7.326227304935869 6.124543242840767 6.809236748981817 0.8249209657970825 -0.23380198041995218 1.1261539832764993
Ni 2.2563406321823636 5.107562354426737 2.4890816578421315 -0.055735345889091105 0.773401457761552 0.9259293245913601
Ni 2.3302436271800238 5.088950821144621 11.419649383372665 -0.5965517263569275 0.44832994310164076 0.31687509489204785
Ni 0.897049652521637 3.469865105528928 3.7884599755244146 0.38623008844710255 -1.1623587153318304 -0.6333385561679739
Ni 3.7900450336361358 2.65470529421838 2.4961569372260333 -0.764244216742316 -0.4668128323971767 -0.32199930349249056
Ni 1.2190192207698345 3.6442396024225987 8.31177407402979 -0.10491463582721931 -1.35860587742646 -1.2332897951247532
Ni 3.719600018071242 2.3363358265471756 7.072546493873285 -0.9913590149500797 1.9053111125749058 -1.0834939825141274
Ni 4.120146284932643 7.032769772864072 6.149954865520511 0.40827061318690977 -0.7860052625684915 -0.10703039661864149
Ni 0.7543908015458742 7.309462441298478 11.308609318681484 0.3126769976503002 0.3122334823549784 -0.2211858343178384
P 0.24459773105515437 5.75706503584297 7.949693754821936 0.24645695017980132 -0.3282707383234991 -0.5298429121754681
P 8.683266977044426 1.7652713435207914 7.978867514287697 -0.20351927027601077 0.12421410748677962 0.5267357340050541
P 1.7672447453960354 3.0994358480204443 10.623200680668212 -0.8016285709280452 -0.7359363709365584 -0.542429490591227
P 4.060102364572589 6.330827104918999 3.745931354652476 -0.9412479572263015 0.30235119024425994 1.2387916987795893
P 7.005033518984499 3.8908062092019065 10.454064751046117 0.10835194364354243 0.8782525873406876 -0.29859480852562126
P 6.217401758603383 7.6869977560182745 10.25656252731272 1.0989676526696945 -0.2938778626659262 -0.08582676595783283
P 2.6904709401316276 8.696284187579291 6.022274858962024 0.2942339604537642 -0.8303449650261313 -0.9795144569066678
P 6.736334033375049 3.9472292086899543 1.708135022620959 0.7116942105597421 -0.5631135013031399 0.3324755204334661
Ni 5.207635555026827 2.67058303224213 0.2625774136451045 -0.30165776372166114 1.451548685603784 0.8691495965981548
Ni 1.657621365996027 1.1215078216866892 7.0445513441513645 -1.3188105998063933 1.4853514930858418 0.24792530719521172
Ni 7.061447466170367 0.5111427687457605 9.361476319133928 -0.2555170034995406 0.4971960726747244 -1.4475326224658556
Ni 2.59669814184883 1.5304546249711455 9.24417025087374 1.0378486738711867 0.5936672057202808 0.7456191454419611
Ni 6.400756139259632 1.9704779816396012 2.614377288006404 -0.697903841643869 0.4197688436344964 -0.750489586160385
Ni 3.969434505937536 6.823670644807854 10.5558171537006 1.6198392145844875 -0.032282771293105694 -0.028633861686608746
Ni 8.115053969204746 7.173089508956519 0.27043390670714146 -0.41431527671909296 -0.4559967156182792 1.0479073436587696
Ni 7.922909803131702 3.964111752255686 7.980722331004381 -0.5920209283661094 -0.7574811869868696 0.08519196058731135
Ni 3.1722254098499625 8.409471045307626 12.636022616215278 0.3288939737297949 -0.4383694894548192 -1.2672409552592174
Ni 0.07932079785240059 4.827475072674825 10.03403340374223 -0.5987605610827882 0.25641868937820356 1.3839623539133779
Ni 8.652851241719567 2.198550735065134 5.76201211898435 0.48968048102396955 1.0315556417736234 0.36016013083292814
Ni 3.7836903175057635 2.724045928917312 11.38329352735728 -0.3565904112037988 -1.345047164905419 0.42149379674540305
Ni 0.8939474285645451 3.383913496329664 12.702730841440262 0.25257951813777146 0.23662865123546992 -0.8024122431716051
Ni 3.219795257805953 8.314557656950146 8.238136311486004 1.274977918892159 0.2700126260125543 -0.27067828462101123
Ni 5.510217807696081 8.02180620444839 3.6879142447505275 0.28857547661640626 0.11440766291931909 -0.2036030882390687
Ni 2.9831680788203037 8.26939572137404 3.6809186256258104 0.8758828015569302 0.7771624674658809 -0.6154989568833916
Ni 3.2013919274739777 4.0660316225005 9.359607923963972 1.5847994493715352 0.7585348250623647 -0.7740128660933057
Ni 7.424127953012755 6.22581134732862 11.473426394933492 -0.5423950378088659 -1.0577119884540171 -1.2682012622899579
Ni 0.3733160366736908 9.061082913131802 0.31405695091264424 0.984445061439066 -0.28165278135464394 0.9244967059098917
Ni 4.32433906520729 0.23652669843145105 1.356375233128543 0.9109801594806957 0.40905377120983744 1.1055681887053477
Ni 6.005116220179801 5.560349457169017 0.6151111749739119 -0.9478415512834194 0.8672919745641257 -1.100424439720879
Ni 7.889380075856918 8.857179806526915 11.461515375725027 0.1884700892523722 -0.5908392493531824 0.22800285723967184
Ni 0.2027516537675889 4.782285980192179 5.638333229989429 -0.7268786316096643 0.6036225171607797 1.3801087844952427
Ni 7.938914273385973 9.050265412026683 2.3815801380731196 -0.12520089688008115 -0.9099892563223361 0.17330032349046928
P 8.550614540898453 1.5925624702282435 3.670836171457707 0.7365925164633185 0.5751004984616871 -0.5020701129375741
P 1.6419880401311373 3.1132406088449702 1.6234742717125663 0.22275086481211318 -0.37300510511639634 0.6295749753604835
P 4.875823418618297 1.1600796812757423 8.198071727267466 0.9555227219777609 -1.7253349197261574 0.5079170586366543
P 8.62806603835068 1.6228424210204009 12.450006858718107 -1.5417545544659188 -0.005547155070474318 -1.057255874753205
P 6.168709425177071 7.872922990493647 1.410536967532022 0.9591757453493158 -0.7584003563670293 0.8465619411056259
P 1.9024408784545916 3.405267877172325 5.957341790194542 0.07391561634254366 -0.5209756915928253 0.20505936106962103
P 6.785596661838703 4.060446352055429 6.059344941619412 1.1778961488457973 -0.23061818337533183 -0.4933039367091698
P 2.536246867890675 8.340057992191253 10.371020741307076 -1.1765558327678187 1.2975905140853523 -0.005172031119242706
