# total energy = -340856.8151230923 ev
CRYSTAL
PRIMVEC
9.34731120927378 0.00000000000000 0.00000000000000
0.00000000000000 9.34731120927378 0.00000000000000
0.00000000000000 0.00000000000000 13.68073479546732
PRIMCOORD
 96 1
Ni 2.593701221680921 4.9404651796415635 6.629738342545399 0.04017091579193082 -0.21210726905533794 -2.0981533627530444
Ni 6.757937648535632 5.320620320662978 11.667066902562242 1.2095114617582332 -1.894784759122285 -0.8917920165880189
Ni 5.512903856585071 -0.04162544563551911 10.060538941400818 0.8647285847123236 0.012869399763500416 -0.4214020083625452
Ni 6.87703173881726 3.7380177369040237 8.489238191450788 0.37850957987439326 0.9524875346958629 -1.8152787931761576
Ni 6.279056208043645 7.331451266251636 2.0562009240368937 -0.3093607887928737 -3.033076149092267 -0.545620229614383
Ni 8.3163400439468 3.9551183837042045 12.921494742133323 0.0808254560884995 -0.8162272946778265 -1.6952167601845383
Ni 8.10796978568151 8.372676287736722 9.576979171720703 -0.013312657948506106 1.3916694927496485 -0.7286745471678225
Ni 4.5305949367439 8.967342870393258 12.066640147590489 -1.5945418734702796 0.8988478949935358 1.321791022590956
Ni 2.9047143027530997 1.7535742504524061 3.4439606781041054 0.7750539057633103 1.6434671384160726 -1.2613636705428342
Ni 7.124950470199384 3.091445535902468 10.6591117653515 1.5196314973146343 -0.2804484766338976 0.03464690064990807
Ni 0.5874289596987577 6.240909831586591 10.25811585957913 0.43757501857798187 2.7243082566883854 -0.1251222211233458
Ni 4.56688119829898 4.580761955230792 11.875903591649685 -0.941499154005159 -1.6722223561718943 1.503738480233462
Ni 4.989529215422763 3.1136173577491064 1.4957698028877342 0.08009757678353947 -2.1592394314310877 0.6959629158674143
Ni 4.009809500746651 6.904475444104668 5.697711413117222 0.5788265411630225 0.31020616751230445 -0.8688104680911811
Ni 0.19667209846720107 2.525531282082466 3.341040240158581 0.8315631537039485 0.4982018882314195 1.946037129539358
Ni 3.760170864128532 6.811039722696995 2.8688224977249708 -0.2995065217066132 0.6431820246209569 0.14443274852649962
Ni 8.769965049940636 5.9867564437239835 5.663933969852039 0.834285437731118 -0.5845135642454709 1.0865145145080062
Ni 1.6232727342036108 1.521873103768393 5.150769396566242 -1.717867921925151 -0.11331802939956613 2.253309154124003
Ni 0.4644613437117128 2.6424474488859047 10.31353606688466 -0.05846097235037029 -1.1641808561422338 0.22215925397470127
Ni 6.311005317264476 1.5953616633629433 5.220075969190226 1.5328577661969214 -1.65268274347707 1.080244108118262
Ni 5.172371967169012 4.970853287914507 3.9115131775850775 0.43813114819176807 1.8386102688132464 -0.6815950771815165
Ni 2.400679248184678 7.379860990258273 9.210007478225636 -0.8078668385282732 -1.1566881473096144 -1.4620423860462561
Ni 2.355251316407838 2.3090849470568484 9.042240069765333 1.0367559550276404 -0.5917964710601292 -0.6727795357724154
Ni 2.4805426739256906 1.1776396791705168 11.25795846551639 0.3623949337007178 -0.1957907912835015 0.38197774092865183
P 6.048822589196868 3.944836341532492 13.349305279158411 0.5517782787959787 -0.7281554414395589 -0.6766608731046928
P 7.326983251562474 1.6277033596485124 -0.0025490117274782316 0.5800254465671302 0.6904620406538431 1.1954902077784766
P 5.738772281164403 7.2375762212238985 4.323905325008131 -0.579787362414395 -1.1190806213694855 0.12090124106346276
P 5.577101188980818 2.9031906910494736 3.953144231607236 -0.9379404901196233 0.9570862098101387 -2.21316626335653
P 7.9463267354311204 7.286621562382968 13.492118171267968 -2.609186341310861 2.617574051153924 -3.76793831312804
P 9.065536373133115 4.507049060170678 10.650232754570672 -2.1276256611805486 -0.5920219568073739 1.4233549967783874
P 1.4928310082888372 3.713284751825522 4.617590360827655 0.519131439295235 -0.7414776124697617 -0.5543013023281487
P 8.770722182136916 0.23125621467731 4.136644099321367 0.20410471046583556 0.6548149808741949 -0.3323235682366341
Ni 5.4992661297409535 6.732363405461263 12.826426980213665 0.27044945643965684 0.9911160457013382 0.6381071812012108
Ni 4.27057143753235 1.7068750843707001 7.4615275123037605 0.4606799800265614 -0.4344688688488324 -0.5404502553776692
Ni 9.19058470056327 -0.07298847845256241 12.697527560624648 -3.3363423949516284 -0.41876919872538854 -0.059327177005407496
Ni 8.453409013406796 5.658815382312739 0.7608935542532966 0.021817352985407587 -3.119673731777853 0.6317624699301055
Ni 2.479224703065498 9.21156941390463 2.2665967446100117 -1.6644527395288042 -1.5078787276540804 1.5861819315413586
Ni 3.7834924052361893 7.756520236941305 0.2000866711993162 -1.0424578905084239 -0.09818940128824381 1.8476345837990438
Ni 7.594839797446655 8.313993868869437 5.618964991048501 -0.0615331835177908 0.8026832374448046 1.1067817493974745
Ni 2.8770556093111925 8.802269356981943 4.702903268919675 2.787550452477483 1.962625887135975 -1.4097392057671656
Ni 4.941212964526779 2.892525409124088 9.522544171001442 -1.050959500221532 -0.8426687766988068 0.6523410654124056
Ni 5.328976816755261 8.678725946633282 7.769426069329017 0.16871424678168362 -0.02653944105142526 -0.9964955648456969
Ni 0.4013595161728054 -0.03128638486630873 6.90387347727207 -0.6811723878218011 -1.1659813996860824 -1.1993792584202374
Ni 2.1637996911705475 5.689511951850834 4.568462763331211 0.5550896025573988 -0.6848490653424399 -2.31530616465209
Ni 6.711612374896534 1.7166149825006318 2.394073503454906 0.7334933087127045 0.6858525669062897 0.11978049719545823
Ni 3.984020269517783 7.144766769657594 10.752646568256463 1.970132222815349 0.3030980957126135 1.1243506115191733
Ni 3.3309890765701784 2.883159403436764 13.461172028524434 -0.8591500621832816 -0.3292228178241234 -0.47358331835179085
Ni 0.6214914959514288 2.1229986783709784 12.734246602682049 0.33932725324797686 0.2103164957035023 0.6907484615460103
Ni 6.487566675974914 9.008667332612479 3.4830604802898093 2.776421175333541 0.9598144073745791 1.670526199416394
Ni 3.711648972389113 3.5098966103579796 5.011020553023856 -0.32163266418169123 -0.586851468350028 0.3890773280879106
Ni 1.178854829608992 7.5832210897926196 5.052637586079417 -2.78702928986669 0.7434146815914745 1.1077199449410278
Ni 8.380892574163026 1.989986441913277 6.278253274023145 0.85247239305279 0.1654260629487151 0.3518058453309619
Ni 0.787982061720227 6.69452549026936 12.693053937548848 -1.1690168440782962 0.048229781540665324 -1.1238510461749356
Ni 1.620730265593878 9.040298633257093 0.30358664243088285 -0.058489768705776685 0.8140572836097013 2.207337058269263
Ni 2.7732911091764816 9.153943241187713 7.0294078648776175 0.36696044158421315 -0.4321497337973525 1.0263028780151164
Ni 0.6117730966369472 5.112287451641948 8.117915324654875 -1.0796962060345923 -1.4845706490557593 0.23942524014400055
P 5.974791885560536 6.977599458567676 9.107579643573247 0.44112879736751126 0.6821362943969672 1.0940121084366319
P 4.817772374599836 0.2557293445081993 5.783461775367093 -2.2228019866740816 -1.2179891602119413 0.2428610052984269
P 7.025738110553422 5.005634632388092 2.3620066181146537 1.138920796023864 0.2371732108850302 0.9931945254969219
P 7.7092789268178175 0.03905586982369745 7.622659264638884 0.7183806214409821 -1.6504741658615254 -1.953820887249835
P 8.774713483961753 0.7423064262001596 10.670056531877735 -0.6559015290701543 0.5963902610783987 0.416676834972734
P 3.5807211862989496 0.7121061988796263 0.5211200697333824 1.0908578790783663 0.4291317729066351 0.16040289870251084
P 1.0710429437830518 3.424359366800395 0.7486439031023607 1.2955477726237108 0.34413804437305895 0.3065251191162915
P 3.432098940362375 5.510314651420012 13.611605783345443 -1.0416644480728512 0.6136061107360529 -0.06963318691710588
Ni 2.44740645619958 5.549947250336433 11.35035850485804 0.05529491591756284 -1.01423746221015 0.6211715817881367
Ni 7.921285289087468 6.844073120001388 3.8586242221160005 -1.2119869198819193 0.5906451310645053 -1.701288163189599
Ni -0.06861861052958453 5.244692112880412 2.9775027487488677 1.769829659704423 -0.40418950113900065 0.18154867954219056
Ni 1.4059197100046692 6.240040531657527 1.1013553388363673 2.5864091955153454 -2.0136337456424096 -0.9250605488331616
Ni 1.0199785834339004 -0.00012525396827359114 9.27987488951353 0.4534474668338643 0.9092562348110533 0.1938138700627888
Ni 2.9498244259537234 4.5882398040829475 8.646470245609514 -0.4669020496768734 -0.8996094557499087 3.609239027380197
Ni 6.183255616936479 9.198333621436316 0.9934621314041597 -0.32667279770875995 1.190626709038588 -1.3861254230029676
Ni 7.846179644678639 5.801249708324156 9.312695168125638 -0.9833559421399451 -0.27569373555773163 1.211307120206075
Ni 7.317748108230063 7.416128557191223 11.290696487791124 -0.37385202649772387 0.010381857454956313 1.6367683862396585
Ni 5.225689029484875 5.2967098989582135 1.207731477682694 -0.5775484457815472 1.4998877390288041 0.28662375220667413
Ni 6.812909184910034 1.4508989708503799 8.672066922230439 -1.0075754768089422 0.5762317838526527 1.4119267003367877
Ni 7.746462530235156 3.897277222832788 4.215129731411369 -0.7254737808423376 -0.4457477841967614 0.34368964398173063
Ni 2.967425412689482 4.151813850449069 2.1532652716000746 -1.1838127714405484 0.3680068805708565 -0.30472997488908166
Ni 8.769908966074244 7.257392520682108 7.778619149761634 0.8592580485160558 0.20009096132075216 -1.5765189545302978
Ni 6.680308230139201 5.917988276217355 7.265276977565599 0.36202032397011846 1.0856868764003882 -0.7854529896094473
Ni 9.263690020404148 0.9176096368412221 1.8746163203600212 -0.47703322457360425 -1.346511151045455 -0.9249134817323361
Ni 4.543101638949128 0.26724710120273054 2.855675504711776 0.07553926798889571 0.628912144965504 -1.0937616829887227
Ni 8.95463987465566 7.735909416042554 1.5117480964225758 0.6016939326794992 2.4358057994017597 2.1479445752435584
Ni 4.365586854510041 6.307780494946984 7.890732668139777 -0.8783945122351903 0.4844881381897527 -1.1347941754500004
Ni 6.195248217033122 4.027317014371758 6.08695587941843 0.06280022315567248 -1.1086933645978907 -0.9339838194647205
Ni 5.507351553812346 1.9287522071251952 11.758864975071292 -1.187665055307103 0.8793429921913889 0.8673655081145384
Ni 4.778878213257566 5.201236463738328 9.813614763916032 2.174731099308784 0.4487426051590272 -0.3111230228996191
Ni 6.73320466345713 0.09835427649017767 12.326601954549007 1.2375655396819718 -0.49153373218262436 -0.47444515213145383
Ni 8.456129080926768 3.2667356603080395 1.452839472627514 -1.3223348109095678 -0.34546936158997277 0.5150518699092227
P 2.8698955690352546 3.40284185672832 10.86581446332276 0.3339716453630184 0.05690288383463103 0.3798668652332361
P 3.3993272677678075 9.095849702917537 9.854110119643769 0.08224727613669061 1.3332303747761491 -0.27545616562562886
P 8.415515014348502 4.1982793337541455 6.687730929856071 -1.235498372740298 -0.893143645519907 0.5635338766700102
P 1.6813943144069832 8.51425066113014 12.126411528196869 2.0342431943626447 -1.165087170006587 -3.935828521346531
P 4.636191509847389 3.816544497162713 7.449242341370777 -0.6730099066156666 0.792842597205299 0.47638247836348274
P 1.649538678296804 6.74189766274776 7.30196891242091 0.0037597241527483633 1.9236469347696161 -1.4929267343299384
P 1.1915484780355248 1.8105741533279556 7.385257192936209 0.2351574660065821 0.16273617482137778 -0.7163335091039663
P 1.3025197550015002 7.13124121054626 2.8832285735386463 0.8885015187622052 1.1111749933691637 2.4662201500275587
