# total energy = -381171.29697627807 ev
CRYSTAL
PRIMVEC
9.20895997636118 0.00000000000000 0.00000000000000
0.00000000000000 9.20895997636118 0.00000000000000
0.00000000000000 0.00000000000000 13.47824378134393
PRIMCOORD
 96 1
Ni 4.375535950781939 4.16290106898197 11.717189447380438 1.243422512683381 -1.2850080494346514 -0.5222936390733005
Ni 2.312480313493008 6.0058257311931 5.292407615426816 0.029396193773930015 1.683400741386217 -0.5877120165781105
Ni 8.711353657943121 4.140781147540501 13.074543156320157 0.8084638486823237 -1.2592173136237925 -0.40520560110834086
Ni 1.9847610610627149 4.13319296466466 3.8350722299300486 -1.0259048712457493 -0.6669770701580255 -0.18021864787685735
Ni 5.399231549115842 6.809445608208007 3.804719498426684 0.5787720337760032 0.23916812982787197 -0.08251492797578047
Ni 4.556795906540655 8.229200149653778 10.822814350632882 0.23248094761568347 -0.5734213109870512 -0.8522751894403193
Ni 6.770095722979282 2.247750535053338 3.874200179227575 -0.8297433268863905 1.869286871961497 -2.4350352397843222
Ni 2.2282091223560867 2.121329934908255 5.548938845909153 -0.19547917358035366 -0.976623765622434 0.27521165371499057
Ni 5.085758557497353 5.810531320697997 10.192139659572568 1.317194404359209 1.975570620222101 0.3056308894367962
Ni 0.3072891751122664 3.0285137738427133 9.929933868060992 0.010964983651935954 0.8319228510362124 -0.5729865374424776
Ni 4.43673869761791 5.146224587549263 5.791061737887193 4.21172897359843 2.7288531957465905 -1.838257513459518
Ni 2.8403470982334134 7.10485982965717 7.420271307313723 -0.23318825809535326 0.0714401582188576 -0.36451737936035933
Ni 2.7349229264341046 5.84760659285593 12.170180021772676 -0.716458978938237 -0.06959744858316401 -0.29149187893225287
Ni 5.67955228545153 6.05210075419201 7.835576976409217 -0.3292991795880135 -0.5266187488112156 -1.1002771155097373
Ni 6.805347621096661 7.513083808665866 9.05821557511129 0.6110193238454832 0.9884865784982911 1.7702739463306931
Ni 8.037534069320182 0.6201709515115452 4.609492337208649 0.6706817727031223 -1.6069618444011873 0.9181026294580898
Ni 2.023484737024987 1.0643531558543393 9.98682590081422 -2.569894999910406 -1.0422396038500308 0.6372844281895992
Ni 4.594405298367033 0.5673621715339828 3.204816546540671 1.631668088898616 0.9211547860208523 -0.33902026353051934
Ni 1.2050476436906281 1.8342590310385973 0.29169380168964854 -0.44878142881676253 0.18463066090162397 0.8495307939259628
Ni 2.7998092571903874 3.888787171552008 9.971178036320737 -0.3652717410278806 -2.8450524033486935 1.8486928498602289
Ni 8.78933512953611 1.0125803838543643 2.369853053947836 0.32994915446718664 -0.5400615045796828 -0.19489219072863212
Ni 6.884471003704947 9.079573915577235 6.853565734613535 0.1594896428596221 -1.2071051663095858 0.12895445038524245
Ni 4.9529469392505305 6.374211750103629 12.451902361790042 0.9743817636657928 1.7283922184952425 0.828097306642535
Ni 4.558140414671569 1.1576675455156242 5.48854280395173 -0.701473047052366 -3.0050212998375794 1.3435402413425894
P 2.453607622439933 8.365704560780713 5.384127013250606 1.021223663719996 -1.1121661536378393 2.8086175575604275
Ni 3.4755995632106926 1.280349307981591 1.2323586557717958 0.8818657586132426 0.39955868723520865 -0.8221187204615972
P 5.429409310382992 1.7927358312968886 8.893295076727094 1.5977711790408549 -1.2921282054192005 0.05533091136182084
Ni 7.581091976794612 2.5150405932709243 8.373520204963635 -1.2276498232301567 -1.6238552777224164 0.47447754803128606
P 1.1344885936970657 4.535136433089225 11.389466511366225 -1.2761197458060862 0.40486801526326405 -0.14881725074744048
P 2.520400207874977 3.3146637817322935 1.4261602938831923 0.41376274664973256 -1.194007452585363 1.1367255881447584
P 4.043175382612054 4.803503939603502 8.187534211035159 0.2531767854021381 -0.8050746204951167 -0.5632163454295913
Ni 9.048944915279849 3.728753868134085 6.866774145655792 2.0173469328279383 -1.3664508273921758 -0.3265113324302312
Ni 0.09187134566050326 6.164551362319313 9.89417639805055 -0.6599600154102441 -2.5580195886290586 2.1252322212477077
Ni 3.8843944977270364 5.2504700124940715 3.2527722047032235 -0.6494650294161911 -0.3693716221288671 -0.36543166364451257
Ni 0.06570040280267177 5.8933106603471925 6.179990183425317 0.8935177410298741 -1.112219375473278 -1.2580752295995494
Ni 7.22273451510713 3.5856190059505892 1.4321986088245626 0.34241334837246834 -3.1178485056436562 0.7725121131780631
Ni 7.237441223908973 6.51847010538282 0.07478319985417928 -1.1217977631903324 -0.38829931227130543 -2.1462895561386395
Ni 4.672561740196238 7.620856265214372 5.930157550302066 -0.3462342647804553 0.6825034479283988 -0.2637350205339587
Ni 7.707705965095512 4.766032682174136 8.69323779222303 0.38335353823025586 1.585496989659192 0.20094148224650554
Ni 5.931840948153648 5.497334597873532 1.810491626688769 -0.4524249391066208 1.1127659920053674 0.9494392347878422
Ni 7.997198825392775 4.906137796583176 4.108923672005689 -0.23207908419157453 -0.46991872501601006 -0.1725287354317674
Ni 1.8125627217479638 8.823638504794008 1.402451826876089 0.9264561436291077 -0.5263701231355193 2.340027835768486
Ni 0.20804237354731986 2.510740009043961 4.408140272956594 -0.920242301508912 0.2678546991292871 0.5983877511244017
Ni 4.995694930645743 3.3188906942808507 1.8996104142648196 -0.8911461554739041 -1.2496641227177188 0.8200767503309038
Ni 6.979562722607782 6.74676021884411 5.975202256271593 -0.4751375502127881 -0.36851338789362986 -0.5277268942737299
Ni 4.085693150012246 1.386712793680579 10.98928379605557 0.9847355960962912 0.7126406336334113 0.9223590907415986
Ni 6.0746811236235185 4.396246901373888 13.219878959896038 0.8152358772988347 -0.18602599858725383 -1.0008376438644762
Ni 6.5668447712163065 1.9492789389503167 6.055815648575644 1.633352161469258 0.5706463193450754 1.1713202954004922
Ni 5.688613901895495 3.787654375019862 9.63027247435171 0.06310798420407841 -1.1370760295056417 -0.5338936852060742
Ni 1.8698332427490034 5.371973028105539 1.3150855043501264 0.5953587344900908 -3.1163179279317426 0.12543846681218396
Ni 2.799422480878755 4.1469327326874215 6.44758690000427 -4.218443666614445 -1.8664504309539662 1.6955463756098155
Ni 2.9391592368957626 5.924842138705057 9.502579195962161 -0.6273391440514292 4.960051376904167 1.4780210208626996
Ni 5.303624128464163 2.122702069918571 13.163027446565932 -0.9516285291296771 -0.14533597706705936 -0.09816986090421803
Ni 1.9443429364970994 0.2853064671718288 7.3069200629179045 1.0706734337106913 0.11306246174533431 -0.005869314296583441
Ni 1.3445541757126165 4.902325287225653 8.411286149106624 -1.4131433463527083 -0.7811106534803515 -2.061331565939005
Ni 0.3719323893298088 8.977971462095251 13.285841818053031 -1.264468534720403 -1.7247129698714425 -1.0020416914749066
P 0.7179332687566062 6.896138755772533 1.242300648772716 -2.4649844778482453 4.327965205086056 -0.7754205450741097
Ni 0.09712597812282726 8.228362134311908 6.221476547327822 0.39298180534863936 0.16551656577999238 -0.37499693873544454
P 2.179364799572759 0.587163276897616 12.17578735739537 0.7321843600932938 -0.042618091780842735 0.11640155342089631
Ni 3.90786813625922 4.911497411187228 0.4759356186318572 0.7803583486953592 -0.778278326237879 0.8301171652860414
P 2.962771009824958 8.486434023768915 9.144543126971726 0.33676926271281354 -0.7288074732012609 0.4281884351567593
P 5.801175017540407 4.350266565088603 4.018120565682076 1.1997286713398563 0.9038546041795079 -0.4466949786013791
P 8.626898287610185 0.49409016198311123 9.296806831005732 0.37322493443668625 1.2209991506828584 -0.48754697962073457
Ni 2.150052680526882 1.7701094170663765 3.117760565959995 0.2328185334607603 0.3850761773483175 -0.3873937697379005
Ni 7.585687247735201 5.210843858471324 11.290387312869653 -0.26684656957974684 -2.0993885207117264 -0.7534882637773926
Ni 3.5364155337350316 6.941179778158139 1.6274571043764423 0.6030941554611354 0.14767413828193277 -2.0016511193592366
Ni 0.7592962325977815 7.90034819516799 8.972480159366047 0.7535903365728956 2.6574161228515263 -2.6939484134496055
Ni 7.057986224271209 4.264383805986546 6.3444649681551555 -2.380832014269042 0.7388257766692115 -1.023078714650864
Ni 6.5779968215350495 1.105673758480431 1.3483906283656208 -0.4570642376508451 0.02149442242835008 0.8553052345158948
Ni 9.096702580806683 1.2909764475916892 11.530165603682414 0.12398399375384454 1.6923759483016338 0.1059425628711014
Ni 7.990163180104979 8.040775623170056 1.4015217219362104 1.4306039650313167 1.1987135998117806 1.6476752629601494
Ni 4.511672003516843 8.889602283846983 13.144980648044347 -0.5381136368246926 0.36007785553176697 -0.0789899455416575
Ni 1.1192477652267778 6.5130460280601605 3.358899941031311 -0.6817454867164517 0.21676302265979447 0.18802323152294073
Ni 3.2458636430606798 8.044772311723595 3.4328681479431222 -0.4668447140763766 0.00878931615685583 1.1866872647748659
Ni 4.686780374128639 9.008876731186662 7.93349676686687 0.004968142638552733 0.6634600581437026 0.6291103770192391
Ni 8.889749627203795 8.333510037317193 11.04941001549083 -1.4438371758921391 -1.630878246007469 -0.26799431003094487
Ni 3.3702030182907867 2.1512590542607843 8.613379534622641 0.9475196491676263 -0.6302845998329983 -1.5983129104769376
Ni 5.678981329943881 8.02084743416117 1.5881679982824024 -0.1233227060207618 0.11904439036038207 0.020616390698770946
Ni 2.0001768597692178 7.7075402038190965 11.081461800077438 0.4710528386204533 1.609998831455298 -0.012200398720933826
Ni 0.20119735372740144 3.1879669127931876 2.1479871108435677 1.0016159167913976 1.2439393044187996 -0.1768564162728438
Ni 8.408820910567956 5.3876650956060645 1.6531473395326732 1.5264379787135067 1.5278430865911494 1.6563198260090248
Ni 9.005846983412207 1.2456315295326574 6.848025624397387 0.004884838896127071 0.9600884869715723 0.12870119672385577
Ni 2.485535086069231 3.363710701631238 12.68700342191999 -0.047713504025879115 -0.10089831557897463 -0.8059318262890894
Ni 6.8456184023054645 2.6627523084754063 11.547740903462199 0.6561884641829537 0.180907703524082 -0.19517861162079933
Ni 7.079608861883436 9.136218227311822 12.779773562057049 -0.4184606663460342 -0.4679166069843167 -0.04614873064192052
Ni 4.272570571249438 2.9656534142426016 4.389594348813807 -1.0582323797338613 1.0835204648766887 -0.9587070332430134
Ni 7.734844769628404 7.414934715109172 3.870385828078093 1.593564597158675 0.004016063137928567 -1.045479193833251
Ni 1.1309431441737663 9.130637597672552 4.097103051205411 -1.8736104390375152 0.5091779276269489 -1.2087265039630926
P 6.172084291436349 8.722174185709035 4.61283426872035 -0.8419108154868599 0.5899365350332549 0.3382831282541787
Ni 0.38140564627686924 6.444291934187551 12.521826914453332 -0.05251632473116117 -0.27699162843354874 0.22225361346072048
P 8.19703325306966 1.8722091543776043 13.513152098191519 -0.7094079856287266 0.19618005630212018 0.25119292220288997
Ni 4.782433839579322 3.1221965218960297 6.887058721408965 1.180230967626561 -0.7641462577118711 1.1895604725576028
P 8.278247069552723 6.91539469071596 7.651437378920797 0.047036018342880286 0.0038309437103159825 1.4823841829274018
P 6.910992807931188 7.087629865869914 11.420237329644545 -1.201825405967885 2.821772606885147 -0.20789168831209356
P 1.457870426061192 2.6254744392018563 7.829390397215054 -0.8507536105894704 -0.17550735844411708 -0.41783794516037076
Ni 6.804970053744829 0.4748314643517439 10.44400747281179 -1.0750041998755617 0.21954392783904125 -0.828768878788263
