# total energy = -340862.4010766525 ev
CRYSTAL
PRIMVEC
9.38207647193767 0.00000000000000 0.00000000000000

0.00000000000000 9.38207647193767 0.00000000000000

0.00000000000000 0.00000000000000 13.73161727150719

PRIMCOORD
 96 1
Ni 4.86117278393011 6.015018070398206 9.03819142038856 -0.6386247442675775 0.7200942616979792 -0.2532130379567123
Ni 5.114592050117498 0.28746775972411953 12.044688129541917 0.35591883905807087 0.4655473354211918 0.5598394585375585
Ni 0.8672669475886166 8.046003063471948 10.13455178642214 -0.8715157828374861 0.07473708380257452 0.22567266644459844
Ni 4.96488225667956 7.860247332427408 5.185374187462436 -0.2196675979010991 1.09235991754519 -1.8417012490337445
Ni 1.2221655669603608 8.550242760678316 7.482688183877832 0.06879680705873958 -0.3179575293229492 0.3950273750237584
Ni 7.11745896015975 1.8127672776151345 4.207339631033416 1.3278223163867002 0.040269389043008065 -0.7991829376010301
Ni 4.97201263475895 0.3339418752718308 9.338790334270461 0.8198458652670203 -0.8083720602994657 0.22181729725425026
Ni 1.8285104018483151 2.7581522081016834 7.414139918928555 -0.4220249866585248 1.8619111483227162 0.3265403858959538
Ni 3.0003317467376114 4.376363366990081 12.319938549351587 -0.5580353154492842 -1.2532760084386931 0.19317315115499636
Ni 7.297247690601011 7.221402984819705 9.399621841364084 0.7307818233188124 0.9369274754740767 -0.4775387034551131
Ni 3.2052644419851446 7.4548759565376415 -0.17057928422714375 2.237859395227836 0.7718726798218514 -0.4835041770099286
Ni 2.6673993828885996 0.9151221047853886 13.079104274218434 -0.7074395490484462 0.612040823131462 0.7867308278806064
Ni 7.178348636127176 5.567765105368441 11.641981263355502 1.0233319683122506 0.3095569639640798 0.014531360846955619
Ni 4.113862250827891 5.646218028394577 3.1635864439034656 1.6717176486213337 -0.3202360409444807 -0.32866103178338235
Ni 8.09475233255157 8.897736107131557 4.186783501596647 -0.6327806267819748 -2.2693299550322914 -0.3687293605591778
Ni 2.268313998200401 6.177853388748075 1.9847407383983275 -0.8633281048203714 0.7065725730624606 -0.3403065864421107
Ni 9.064239817361743 1.284321823244521 7.02013868145249 0.013907096999395404 -0.8966933105443783 -0.24173614766536433
Ni 4.805593363216546 2.614034132210214 8.97355735772181 -2.291211071376099 0.9083674044481969 -4.738443624557562
Ni 7.294836496961007 0.9433396378269342 10.7982004676697 -2.1908280048706463 0.11276601355083804 2.80264822735087
Ni 6.742992143998288 2.959773030372868 2.08007952256563 3.3824880402697555 -0.04520590711267698 0.7278032003064627
Ni 4.604394734384272 5.069295385160529 0.3076579881804988 -0.4939037750766977 1.360546546092599 -0.9040960307663526
Ni 4.268328757010896 3.3722841664184453 6.173117316571132 1.0182517255758656 -0.6624550139179559 2.0509288825484417
Ni 2.8342314657934953 3.990178337379728 9.92497965438479 -1.0873357248577211 -0.08624662710407081 -0.6836519597105452
Ni 5.498440942699209 7.710481246530947 10.6674208898249 -0.5768588759136903 0.29723906582867515 0.4630893607990025
P 8.657029554493608 0.25112347208735286 9.480240147628011 1.5256537922493145 -0.795969572870055 -0.8165437974769808
P 8.471977479180586 5.930682585456574 2.9538079061848728 0.36528742475716447 0.181445578305423 -0.3890580448142009
P 7.093769217198617 4.9200922238492835 6.246128635273522 0.9604083322048363 -1.5365128464510056 -0.354019565152829
P 8.536057061130897 0.8384742932625096 2.026196381268847 0.5418000845373443 -0.05983831231387113 0.8470915883568508
P 5.1289278628876405 1.47374594616938 4.871730434525817 -0.44066882701195725 -0.6915264773626154 -0.43995714565691324
P 0.5518631171155589 2.332975268888768 5.2779114836106515 -1.2892010044700766 0.8816297313430363 0.09684291456267838
P 2.925622272203156 9.051846094410593 11.451413465315014 0.22183683763827602 -1.024778728061106 -0.8803935449430902
P 5.869032961299107 7.333809642410728 2.8522900864871934 -0.8059552233278572 -1.851423618527831 -0.9614881955325764
Ni 6.4976977559908375 5.467039132920631 1.810952784035458 0.4217146545069576 0.5561514681630099 0.13981941812420437
Ni 3.0349609908047563 8.571099116560532 9.088174432517445 0.3758050364590366 0.38292930620864374 1.2402258601229543
Ni 9.027189997578173 6.625359669841187 5.277884275589034 -0.05980797329656796 0.23807335410179642 -1.0368181757241433
Ni 6.3599688741415585 6.961678963277909 13.321275368985583 -1.0265335059686838 0.9602466098159914 -0.3564006637904959
Ni 0.7216674418303899 4.759968325584866 8.856028086405333 1.11153520492206 0.5036801377371712 0.35637983785488947
Ni 1.9149099436024024 5.9204373580056595 6.5713479940974455 -1.0247676723175125 -1.03083727555036 1.4020035276858047
Ni 3.1310522175009625 2.510568593447691 2.732386211628749 1.3121853811803916 0.7237771098662051 0.2876107987102917
Ni 1.0244289243271598 4.977454239082696 3.7007534765143437 0.22587321249117878 0.5917715313594646 0.20286980961746998
Ni 4.91509157711729 4.557268564525353 10.879257855110096 0.2157590068753123 -0.3670807692121614 0.3901713324830377
Ni 3.4827862624961567 1.8603344050658048 10.932962736954895 -1.4245359044603658 -0.35763325064601637 0.5885738503577734
Ni 1.0681212542162668 8.203894027548346 13.831720371536305 -1.016352451670624 1.1916145268731544 0.47128758033907864
Ni 1.2736637844311163 1.1521565127124511 9.642080965877334 1.2577870089351693 0.6208879891094468 -1.6163180888051067
Ni 1.6874133545641665 5.860701677437924 13.444420751247224 -1.4276525957124768 -0.7596943925881046 0.015877076241572655
Ni 8.470945450774357 3.0903433879134954 8.238695901821623 -0.7709144296736401 1.0838714204582043 -0.20117159597944062
Ni 5.555136830506783 2.8691046438475665 12.885173001781286 0.5618215219645937 0.268350407818783 0.3452850134933086
Ni 9.494098412708365 4.423827291600129 6.577059802222095 -0.9759113129364418 -0.7308394160296252 -1.5868187937944092
Ni 1.8767248925719826 0.5761570657981557 5.686605990968471 0.3499852471824553 0.6764654692644351 0.676089573982255
Ni 6.54348228892166 6.069687429699006 4.422006230566959 2.0614027854965724 0.361531557259158 -1.9129506313980342
Ni 8.756413890013322 1.7965362854081008 0.0027480101834913926 0.437223291665518 0.1673839580060343 -0.4528049481538589
Ni 6.658384578840469 6.978904455585489 6.681104215099747 2.1850270819181534 -0.5297117859142426 -1.2126592633585953
Ni 4.361258223953478 0.880091307847457 6.750215404634239 1.2290217638770187 -0.891842153099664 0.4301702414734785
Ni 0.4569643523323664 0.6498682874014963 3.8332086932077996 1.4855728650680284 0.9146552943394376 -0.4192931895496585
Ni 6.164005443951785 4.209118472722695 8.041742662569513 0.6091385618830025 0.647433343698143 -0.29476515036688594
Ni 1.5426666795525408 1.1148064664834336 1.562300550877199 -0.41842981310809874 -1.345912598229508 -0.23235522067109662
P 9.600022055492992 7.115000856137644 12.096318634290197 0.297050861077269 -0.6091835561883251 0.2678588128943451
P 8.68331813262315 8.52456401751609 6.488834508396626 -0.49199524520007526 -0.5732881278432964 -1.1377396312315695
P 3.7233520839878014 4.485655175209581 7.9738680307072105 -0.20359177538515907 -0.4974089600164788 -0.4782372721840345
P 5.640823334452933 7.883683759325193 8.072406102933819 -2.6347482489403657 2.527535046886957 2.7610189818458575
P 4.529657113620556 6.32332248364406 11.955515245998004 0.6069317840396709 -0.02199578754480083 1.9701011124670973
P 7.369667938488925 9.16749895044302 12.783490057538613 -0.5986217215120787 0.29788672671500305 0.39978880096814373
P 1.3942516126605968 2.7550561228830004 11.579707731116088 0.7720210324742576 -0.224316152416704 -0.2747452556015333
P 1.9332612850804125 3.230605430396241 1.1903237377976725 -0.16708005361237033 0.20221700652481947 -0.8997809483307664
Ni 7.051709368606634 3.71131487994062 10.317236763854332 -1.1131678554294766 0.1853703672811259 -0.5408819435984492
Ni 1.5416158869934726 8.023157707388638 4.183542932401092 1.3106702300874462 -1.531499452396814 0.9309416902042872
Ni 3.3415391019892837 0.41874458761919164 3.931211048870811 0.5836584153340272 -0.20856506023003435 -0.31378411467154993
Ni 8.160004674054413 4.342953792857569 4.406902025737997 -0.1411985578599181 -1.7819930345398343 0.11322726945797273
Ni 8.893279620831937 2.7193385579511067 10.412218090910022 3.155159840499605 -0.8708565519869325 1.079658153707805
Ni 3.7215131970094326 7.256257398720937 6.9402343512041424 0.41600551993732227 0.851252918823392 1.6159493926117783
Ni 5.853008374773319 9.246345920678806 3.2259003190714854 -0.1819430867671318 2.73499376142669 0.26196327334551656
Ni 2.5944912670268323 6.477019659560605 11.01899074848274 -0.3674967737036574 0.36463642143672687 -0.8061249161365021
Ni 0.4952723085638915 4.95515304343176 11.439357497114992 -0.3193294699698113 -0.3515998999677428 0.13282781729771964
Ni 9.430581755343265 4.105925014176359 0.993955940114186 -0.8137893746602952 0.8504527915195998 0.012876855962668144
Ni -0.03397625154829542 7.9460933316727 2.448498652266597 3.2736056780440395 -0.3698984411666146 0.7271501401034961
Ni 9.631639653029236 0.674645413019736 11.630528562669303 -0.2692173838047686 -0.6807998349737308 1.75603594835444
Ni 0.39467674697832283 2.791852626603223 2.9949342381730415 -0.40302427718630585 0.3234419494762881 -0.04901833888023171
Ni 6.9193095061640575 1.2081393627120864 8.538113612282215 0.4581924377180173 0.06352913090189705 -0.8169405186947671
Ni 4.140197739339534 0.3810436517320567 1.597646585582851 -0.8214414918889142 -0.2399731422276706 -0.7409914168619626
Ni 2.419768857852506 3.178910189320661 5.036372740794227 -0.46010225314622044 0.6849902189059944 -1.5976379958971
Ni 6.7429452336161875 1.0177019755338403 0.9806089981987376 -1.7000779449315815 -1.6803370148592287 -1.26583019095462
Ni 5.1867308357128055 3.4031605799174898 4.010002664855717 0.4922616114875844 1.0930582291637951 -0.734569829606335
Ni 6.695894120368631 2.3323279056157706 6.543719655455092 -0.261612317764001 0.9187916851053144 -0.6163777599439192
Ni 9.126433601951584 6.656001531429725 7.630233532285619 -0.5998275688947218 -0.3082369596010756 1.128264601861599
Ni 8.699661709747225 6.342396245006429 0.410896480693652 1.2081585472747642 -1.9640111975192758 -1.6658421636771634
Ni 6.719414985954199 9.304768110547707 5.8087484292607865 -1.0367520983728984 0.8945569809276658 2.125362576177985
Ni 4.836188314422983 5.5657385768616665 5.5582019548732795 -2.474457964556319 -1.1711742567409313 1.7705030316223638
Ni 7.6115003402973045 7.855246685695414 1.3579579882364996 -4.68436406910434 2.7436722630372943 -0.3040301206085796
P 4.959046605146163 3.639269915109516 1.7430781521731553 -2.7626202648947062 0.08284865716611538 0.38947893440170345
P 2.094088839076348 6.735580303626291 8.708193770043803 -1.1464664695816063 -1.1958697026050824 -0.3387171304678038
P 7.976312999822327 3.812969677954035 13.02715759349479 -0.2806958167580133 0.38699422030663677 -0.24565116644905435
P 8.103815418373532 5.313651565525954 9.362545751766536 0.40421906882535547 -0.5810531165006961 -0.0756426263359794
P 2.271053564515114 8.342683084033112 2.1120733413663264 0.9486072258048502 0.6901306254563534 -0.610115323973975
P 2.6954611734615694 6.036578082011942 4.710191719137228 0.7108688864449693 0.24439132590002424 -1.4321322287503853
P 5.491301182543398 2.3852709628552446 10.7175962345204 1.685068616006943 -2.334911340477527 4.55451616037055
P 2.561944843924983 0.9191639033072325 7.764378460942361 -0.2601339334462617 -1.533113076740837 1.3137468121302407
