# total energy = -340888.21761736233 ev
CRYSTAL
PRIMVEC
9.10226492981386 0.00000000000000 0.00000000000000
0.00000000000000 9.10226492981386 0.00000000000000
0.00000000000000 0.00000000000000 13.32208479582583
PRIMCOORD
 96 1
Ni 7.254869275929924 2.359662069937265 11.200303373752197 -2.032215365299339 -0.7591644882265635 0.14382416840822326
Ni 5.051829879423009 0.5721101218528418 5.950322647175432 -0.5307111737130343 0.7207252104137588 0.35812690245298323
Ni 2.2540848984885153 1.4509192415961327 4.572672087498146 2.136086133243076 1.0891527234618017 -0.5966355443199853
Ni 3.7067153659000085 4.804639669488214 5.014592513408971 0.2887264003719737 -0.10582866300105646 0.009597413880447988
Ni 3.7008444049909266 3.220263018823924 3.0380083672230693 -0.8401316120992498 -1.1106648865019646 0.24479421776539778
Ni 5.123837897642774 4.826894707352874 2.228904392660787 0.8487111262381448 0.825907498080068 1.373867174460905
Ni 4.969317847421723 2.97439263731055 0.9408019158107104 -0.5373677597976037 -0.13690764379404807 -1.5873271008893952
Ni 5.749518489781371 8.394572975754853 12.348027079246881 0.46894633380041173 -0.7627573477841445 1.0663588654957377
Ni 2.157427946715581 6.976148820120616 0.2652636672697925 -0.4575666312085604 -0.6818015367653677 -0.35744735988745535
Ni 0.8946925721252263 8.965703693896351 13.347396608814798 0.754930652650874 2.00828816505978 0.013813251734008467
Ni 8.367211567239037 -0.36436548741509844 6.831112419777353 -1.8369616774662298 1.9658366807637886 -0.07843741547229717
Ni 9.013208414802552 2.760425694535677 1.335898470235488 -1.2886639010196839 -0.5914570854428395 0.7686361751624247
Ni 7.095961933990768 0.9207760226385064 4.7547983971628485 0.21323906866693595 0.057677300106810346 -0.18698527717672958
Ni 0.8012833084954862 7.884117955938847 2.7419644807127312 0.38003167294587453 -1.2174942228533934 -0.5270316679789182
Ni 7.480669163172714 3.9933912012977464 3.515031678011219 1.6020759770637958 -0.654683340392337 0.5665814052470822
Ni 8.134939969598795 4.0718436231200394 12.742494667161864 -1.9487900096941473 0.8811242524615277 -0.5279320683060005
Ni 8.473635249330492 7.490581529730839 9.03574380242845 -0.9011886273115705 0.2709107123467915 0.9642181928692297
Ni 7.106984776875882 1.5412683237411702 0.3039646774918627 -0.1474108573182171 -0.16415568087672372 -0.3686643116491974
Ni 2.3444066738386264 6.773186515700908 9.175053057649244 -0.396040389669305 0.2597950620496042 -0.19168191132145052
Ni 0.6483525137391264 5.134096150269961 0.9018687978317694 0.18145329161490686 0.6947570684847711 0.5142453148475273
Ni 6.707113174245052 2.15527070991643 6.969795439167843 -0.6446784066608252 0.6474891366367429 -1.7537548656297473
Ni 3.2916793898202927 4.796201869856091 0.413493142166399 -0.21280018135730447 -1.1207639226091795 -0.08115841394788605
Ni 6.290529813119531 5.850617346862263 4.440144019683968 -1.175426604259382 0.49958848416630086 0.44739380444061655
Ni 5.484551556349774 3.0272403877572645 9.122883425943192 -0.2484701239550882 0.0030135900153431972 0.3066207641538913
P 0.20602521658390527 6.134635320887207 12.255505286452234 -0.26557361640459426 -0.4897964377765435 1.0638535825753808
P 4.2637011642698575 6.306604413065948 12.336690208220118 1.3128009032772037 -0.0014038223260620984 1.5748083995970943
P 2.7715122532756182 8.826211483149555 1.1842210573662297 0.24939597820346726 -0.3950160621698487 0.1707374478592995
P 6.647811917930834 7.962579480026114 5.550220757240726 0.09986421788750544 0.17832425906762192 0.5586217840803734
P 5.342720063504321 1.7317514228797146 12.442254636497902 -1.206811803438883 0.2030564717069793 -0.19756485246478878
P 4.4925503102793805 6.340501247834044 8.142058851035992 -0.9886182189801489 0.14639141491476723 -0.4467284029424758
P 4.691744276999307 1.2351409480911713 3.887211459907631 -0.622669763600218 0.4265742965921041 -0.6295070982370256
P 0.4520958479267357 5.612010572799195 3.326524680598817 -0.3948108881375781 0.6565396768747854 1.469428136987366
Ni 0.4564203340165108 0.115119986048876 4.744473698001341 -0.7809404464510744 -0.6551525667192718 -0.02376342096818488
Ni 2.090853980686082 6.722268445428961 4.743475179533549 -0.11611410408746456 0.3289659646183109 0.33666487592446537
Ni 6.508802127227731 5.776433887313396 9.08313110411647 -0.39679937932251663 1.4655285448226438 -1.445977876384226
Ni 9.072773636801053 2.6592904283948844 9.758467282374935 0.7588898944089382 -0.5835373163751305 0.1490324520820401
Ni 2.6215706423371543 5.553419293153054 7.050513414742493 0.39582724521723445 -0.35593118035324506 0.07317950950746752
Ni 0.8885767602883081 0.2718973979838065 8.917816677861188 0.8599213931316675 -0.38288174080015996 0.007890972712302538
Ni 1.794529744414504 1.319136649283434 11.293144656047478 -1.6270125924044754 -0.30740957860377377 -1.0663843194170344
Ni 4.3408610644656545 6.814419776039111 1.3713754582032993 0.4717125836916392 2.1192379513374857 -0.3981134701482499
Ni 5.912521850959421 7.933051732446172 7.872273178526461 0.5748811833620292 0.9752091446630946 0.1779555628742935
Ni 5.4423716604541355 3.060782234191323 4.88953831536603 0.2692289537689944 0.07158002623083155 0.1987465314777158
Ni 0.951068360476375 7.369776268978378 6.906994361970615 1.5515813107483534 0.15031440411825725 -0.23731410733826871
Ni 5.557478903332046 4.690051255713897 7.093131129583444 -1.2032179154400375 0.2614657648838078 0.1088481665536706
Ni 1.1352344877220466 7.72134215138518 11.113296643306096 -0.9040788043751719 -0.10048873884538179 0.20514189348109832
Ni 4.951031397086304 0.6533887969499715 10.566478074913682 -0.3753064995560633 0.5064250474721601 -1.2523617241545402
Ni 8.419121784393294 6.996710836699867 4.765363396119704 0.772716001658753 1.1341200322011113 -1.5761641422940404
Ni 7.663579177851791 6.428237979931163 6.897216708934125 -0.8995063545131411 -1.4170925608084433 0.5774664275907022
Ni 2.3691193232466237 5.667370548379098 2.6021227429908826 1.9007314636240236 -0.4125188469403024 -0.8388733142121165
Ni 2.534571193703035 5.64789170133191 11.393593611409129 -1.6614121529302677 -0.5153141224316737 -0.10907905161755407
Ni 1.2069057221377248 3.4840648623386796 3.4937433006869387 -0.9664846203059033 0.2967963218643017 0.6367416683122518
Ni 1.5658717459694629 1.076078867647435 2.3170971482331706 -0.4077995870877622 0.7006045284044837 -0.09258773883075021
Ni 1.5239740202880598 3.5335811838044267 8.047538200852767 -0.3175754633931821 0.5037058487687841 -0.15617189134029877
Ni 3.978117600669158 2.922163840882158 7.0658206937514905 -0.773717446340074 -0.13720486331949272 -0.6966126336362712
Ni 4.515751983701474 7.434875668081874 5.775603760747646 -0.8049681768242395 -1.8014184902542976 -0.6093504207834924
Ni 8.114687430028706 7.902577349308798 13.147139497545753 -0.997777516881914 -0.8023641635424891 -0.06581921248765439
P 0.4313354019710233 5.801374093345776 8.224615484135658 0.5482432690595267 -1.5170657934699874 -0.6752035718328759
P 8.677516882512709 1.5566511515494628 7.807287557735156 2.288539438081207 2.3164554477651844 -1.662488673823898
P 1.8542041935927092 3.7682739839281054 10.365008541949926 -0.02745835332126884 -0.6603827047699595 -0.5713004079893064
P 4.2188178956765485 6.535590093050101 3.6658780540882305 -0.2014014526020596 -0.7961122690955064 -0.23039064074555807
P 6.841926820794533 4.23319037207258 10.302688064343394 0.737193383272111 -0.780311554617824 1.6045064408821594
P 6.676984677176739 8.285427716435779 10.328465678753505 0.8522978151481387 -0.3562865068101348 -0.3211724367158211
P 2.433681688716576 8.629420514383114 5.807443483631319 0.22970415620149473 0.09037041946445726 -0.7248603156280548
P 7.018583579435564 4.042443307249752 1.4331898498772024 -0.2851793064506637 -0.11474447743344754 -1.2532621244816222
Ni 2.9595286386058506 1.682353430858647 -0.0893660375277025 0.4024756037716875 -0.01424648261668514 2.183729703262968
Ni 1.8520651613235086 1.3429299699289234 6.852294300601423 -0.7475418163859706 0.27597861378800215 0.8338586346063446
Ni 7.0741529071099 0.9499851909443119 8.863462502561056 -0.43082664411055477 -1.7501895168759922 3.438366853715246
Ni 3.1003588823040187 1.6837551796648464 8.987717521739166 0.02362895227284963 -0.19355367442286664 0.787909935790372
Ni 6.222672427728512 2.0529885583887464 2.5956219053455083 1.1677096952310988 -0.4747932794994919 1.0647943492220953
Ni 4.8631945400744545 7.015743672763264 10.36491478862068 -1.180815122264805 0.394640681108301 -0.3560278538321094
Ni 7.156491996076654 6.284658852210449 11.360367613569716 -0.03026805485592206 0.30384371562938645 -0.05292770123696691
Ni 7.816069422983346 3.9520851228397396 8.027342095325524 1.217429431053729 0.6624017920825173 0.005096697796617029
Ni 3.276942822825248 8.533600970987909 12.06378700995654 0.8826795127637894 -0.4853749116700802 1.0580215492746359
Ni -0.13762078506786973 5.113388497451106 10.231134249145898 0.9157600973678423 -0.18031943512077978 0.2543972880728006
Ni 8.91660607661947 2.693851728506179 5.70106622309124 -0.00586211520773184 -0.16937656295603087 0.09700463695152327
Ni 3.589232431863539 2.767143166087464 11.269991224629752 1.334324379171276 1.2948191219878022 -0.3021586146174796
Ni 1.181273743967221 3.448420392695322 12.630428491012209 2.5331346524619214 -0.2494368587437317 -1.0295895191861881
Ni 3.4855030202047805 8.502525838362162 7.7370271743906525 -0.2849875021548318 0.3392627185586286 0.7430889228209395
Ni 5.757501176164728 8.291153041105254 3.4486879992855966 -0.0671297037689618 -0.0016267369701455853 -0.019783096164198186
Ni 3.251037776705484 8.598399995347219 3.4770506569486974 0.1441859226230162 -0.19559230211945022 -0.3489732609781732
Ni 3.6793175483242924 4.7257503389471065 9.36968861006953 0.32059419561484787 -0.8137947739769339 -0.1143410713474418
Ni 5.522580819416666 4.333970649879336 12.257171000942717 -0.07373923866567945 -0.25458112194883253 -0.9345990844512162
Ni 8.215549628220238 9.385345416053578 2.000244573762751 -0.47801898552564126 -0.32877955963911765 0.4257980805477119
Ni 4.852217208514218 0.5137900897029646 1.0696462969893756 0.23710044866556587 -0.9530323514557393 0.515428536522351
Ni 6.668901865878653 5.928387098811406 0.29194149568596106 -1.2142451197884765 0.7208900181263972 0.5187097783767841
Ni 8.556365735691186 0.32698248516145473 10.82825739515092 -0.38340701717601067 -0.2936685748685975 0.6079895358802239
Ni 0.3240788626343273 5.2409203320203295 5.7997693640306265 0.7812428081828416 -2.2325428681109294 0.004673751326585499
Ni 7.880904856402558 6.1867730946658455 2.2518457413045865 -0.8229993232943374 0.9517498851988897 0.45080025901900433
P 8.671673228398554 1.8306293273066274 3.542315717274744 -0.07041171695434326 -0.002736167984240449 -0.21751044234878023
P 2.014759045492398 3.0760194257600104 1.5211159090858093 2.0553164700931763 1.0077665097738258 -1.5150292226559328
P 5.094947308611106 1.0811488292386888 8.172806302122629 -1.513282158057839 0.19315052544717703 -0.904508692823739
P 8.939370841322747 1.780521358617485 12.44920876693905 0.4248760829540747 -0.5680482196005959 0.1884163531963013
P 6.488777144282024 8.036781144104932 1.3742399409910329 0.5111229671684617 -0.47646578210590845 -1.025794313809814
P 2.027001591884205 3.382219619529812 5.61340686024641 0.700801217796322 0.5296390236947781 1.3628553967314336
P 7.130577847691915 4.281250331142276 5.815409785937721 1.6209931256832728 -0.2750923545283068 -0.47133848818167207
P 2.7163980388500493 8.779234693611922 10.063210203522189 0.7060866345649776 0.6712911241523472 -1.4019513342916308
