# total energy = -340859.25381915126 ev
CRYSTAL
PRIMVEC
9.30391771078595 0.00000000000000 0.00000000000000

0.00000000000000 9.30391771078595 0.00000000000000

0.00000000000000 0.00000000000000 13.61722402414609

PRIMCOORD
 96 1
Ni 2.667172630609339 7.800162509817749 3.165255991890332 -0.6275569164891901 -0.9509117055683108 -0.5446853765049394
Ni 2.262591779176178 0.4172099890147493 1.5868556960461486 1.9357663437409696 3.038795825184863 1.7501437512397215
Ni 2.1280757403117274 4.679684411954726 13.230929850188152 -1.2789063074122877 -1.2831625115854806 -1.1911751253428904
Ni 6.4506944073819685 3.970511910200332 10.339340217321393 -0.02107841793685402 0.5342752369152088 -0.8595969199127131
Ni 9.092448735447547 5.241817801922305 2.4770545201262877 -0.8099283490429923 1.3467870304146612 -0.2846373179042646
Ni 3.9385901693410204 8.444114550067109 0.1658209299951201 -0.7292939259193763 -0.08962968464369081 4.45613521189679
Ni 7.391608885622442 5.243269213048523 12.070824380136392 -1.2057126568374332 -1.0587954513261832 0.9107806418753798
Ni 3.2459042093536623 0.7161923074898504 3.919839984452133 -0.821932829703036 0.5587539387828635 0.3259243495785097
Ni 7.575817147724894 7.226585301354993 7.670432406102827 0.26611817605415455 1.3189116441606317 -0.8952010422695679
Ni 0.20281051470347508 6.817240844174248 9.44459270798736 0.7497272540730636 -1.0981274161565864 0.7947976640491408
Ni 5.601088575248545 6.002822427934125 6.052148076823582 3.440348145811333 -0.035670199708099856 -0.32448890268356373
Ni 8.967124967049141 4.398380467075306 9.70159109885312 0.993412812155315 -1.2516855240231217 1.0941985134158252
Ni 4.356857083381016 3.112411601411545 11.573319722522388 -0.09893682097722961 2.8501218474518013 -1.6169089283115703
Ni 5.279656834296197 0.13931499949844464 4.865801837923204 -0.3140898188374268 -1.097085348045317 1.0520090245319689
Ni 1.307767944309452 5.687856909627425 7.131081518858127 -0.4417939417553359 0.22557650718636635 0.349037024336573
Ni 2.6323666753325434 7.122558200058589 8.786200057423882 0.3322808879241568 0.2570722638018024 -0.4969795857885442
Ni 8.86942452963625 0.4227514022633084 7.974477916468233 -1.3679022151267215 0.2096690919274905 0.030312792050928444
Ni 4.470336964832787 5.280512794703966 13.114175920176661 -1.1829378250347626 -0.6073138499694378 -1.218186878045044
Ni 7.647931812079463 2.7738978679737127 8.183679292085804 -0.08582522329593606 -1.3786355423838255 0.3652288036050871
Ni 2.9023477526439714 3.0308813725715127 2.9712097674490168 -3.713090769160541 -1.5274610206613821 0.15211134811767996
Ni 4.301982578109019 4.228351375205902 9.115056324521882 -2.7114691959421884 -0.698571557134855 1.16868388621891
Ni 8.810316741912784 8.858836671548842 5.729419369775114 0.26367202850650723 -1.170939515022306 -0.1297679474254733
Ni 7.158154988320823 3.7494880466463214 1.4402259566282662 0.010252016745311378 2.118406456575126 0.11904593302227887
Ni 5.734460232263477 0.0702855141788357 10.689683881829646 -0.43505662303150233 0.17649517627868314 0.5690028702043813
P 2.4413944652252177 1.183216401061534 5.960694289603911 -0.3199884437100489 0.5839612912864266 -1.5370396654887528
P 4.901703794678642 3.16016860981459 7.4386401884623785 0.03076273510415347 -0.056432629066431844 -2.0727938009423337
P 8.838479700111892 4.302847842434264 5.57470080450381 0.9568342417003328 -0.44704799106542364 -0.14151094689401436
P 2.250738588312067 6.84466879289277 13.539932487784638 0.6730798406216537 0.31551832375383726 -0.2081678247916157
P 5.917012397055245 3.593098497796373 13.192366042642899 -1.062518151593409 1.7579714748142563 -0.3463944445074034
P 5.705385490151746 9.264273483389772 12.868534821373554 1.1585293142834112 0.5160499721564338 -0.18560228078627392
P 7.87514278075485 0.6981882967825188 4.048277774029674 1.09793921140518 1.2822037472166368 0.7679784869737678
P 0.5361019592621664 7.885172403793714 7.70631389423982 0.8500671260454069 -0.6964946200011682 -1.6636212447664447
Ni 1.1641619780711898 6.121354336575229 4.385767146153426 0.4313755746354893 0.13423292517536237 1.4889206984943388
Ni 2.067823570738745 0.23757460235162978 7.847442227254289 -0.4171586597051589 -0.22999597641030067 -0.109234860469128
Ni 4.561692130527215 6.861071599402523 4.306174923323593 0.4431540553276561 -0.22673324649862886 -1.0224338819780134
Ni 0.35871160788594636 7.840169354963492 3.4063484054395445 -1.8062354520269668 1.9611055938367064 -0.8105101896883913
Ni 4.615589724464257 1.2331226144014782 1.8547880507294159 -2.3507675907834935 -0.5902895474972996 -0.5954847185449939
Ni 3.724311645956931 3.585469285466255 1.034697036004326 1.5986417545712661 0.13235036344066883 -1.1371631899028092
Ni 4.601457073818588 7.393376629942836 12.005420631457081 1.3511432505008278 -2.0958799933378356 -2.1629816720823394
Ni 6.578511625663876 4.896056316770861 4.231892446197174 -1.5009190085067956 0.19246609778564275 -1.572458154197363
Ni 6.2619737453037745 2.1985994347779423 4.751825127278227 1.0157914369608312 0.6092516904220991 -0.1482402951980479
Ni 9.251648067375173 3.0162463103821517 11.896878339009694 -0.7508081458420682 0.2912381110502339 0.19033953836094314
Ni 2.0419679840736245 4.835236608231857 10.83948718749851 0.7036032060214914 -2.107904271492221 -0.7764620989647466
Ni 2.759783825162994 2.427754922205762 9.988914678339354 0.42782333850785675 -0.3882520039731378 -0.2967078759155535
Ni 6.911833773150237 3.80808411890862 6.426853118850349 -2.143518164041089 -0.3546582271780925 -2.6843628266436994
Ni 6.422550057017812 2.127852446292309 11.589264776292337 1.1765859146748059 -1.4076535268827306 0.18505849246766193
Ni 7.153549549170325 7.6723452915358425 11.882974564733926 0.03320939687243313 -0.32550088888784584 0.48583745312879556
Ni 0.17208804880678796 5.883053098268744 11.914607884151492 0.7130203855703333 0.6402864482407167 0.36923818187479635
Ni 6.271342790201859 6.156830173910279 0.34256000714803747 -0.9992936964161242 0.5184521538400233 -0.17395878301007459
Ni 3.9032911064380102 1.712962854296013 13.107095638977613 -0.09085404396909515 -1.1361069807241533 2.2186648245772562
Ni 1.2058621361975193 3.8395034482242405 4.203514567504376 -0.9387503876154285 -1.2442534932251086 1.0958987839363834
Ni 8.297912790853111 0.44697508180318135 12.634972068237468 0.7108087226309953 -0.5465417129873877 -0.16980208052922371
Ni 6.879363101159856 1.8607648873158404 0.2584395676827556 -0.9340527250294429 -1.913317270708834 -1.722634232965543
Ni 6.659809256567014 1.4923762748633622 2.383586434773116 2.55158283186478 0.21827380287736603 2.9971470392958253
Ni 8.10397263107102 6.331325146168045 5.377427981481905 0.8580478302580383 0.33013607366701203 0.10521622622803815
Ni 3.3421067160529585 9.230146714088706 11.846521816063923 -0.9469817743862852 0.7204974106736689 -2.9455632536812626
P 7.548286855914138 6.037042236409947 9.975351427443199 -0.10534503849641857 -0.39974354955250513 0.4709926748064792
P 4.680763666381914 8.482297827387603 2.882071725289061 0.16210291211275307 1.1024360708342693 -1.2280455160066786
P 4.831394090314371 3.1299960054407197 3.092526338590616 5.036387429762746 -0.6342998916399785 -0.3392272373350029
P 2.014949407724035 4.081814674962777 8.876741130339182 -1.666441487824059 0.5704527152770305 -2.515987965479306
P 4.604443631328304 5.6799485797730345 10.593764214221613 -0.23454554345419604 0.5430666099545938 1.724979079048636
P 6.700690669955477 7.98779461355128 5.396587538739724 -0.5970024407411009 -0.9969305955005862 6.240010808171318
P 8.037793866065982 2.1200743712825787 10.07814855084931 1.0503606902952685 -0.5430547828800518 1.2548778057081742
P 2.9306037500178364 5.12711910728121 3.7226490359040136 1.0713995132434386 1.0985611612598951 -0.15842803436432715
Ni 8.35922560701833 6.791375953591651 0.31250556252610945 2.079689499620902 -0.5476313465071407 0.26011310751065525
Ni 4.657317794343014 1.3291204349163077 9.001665760677879 0.3869253147419143 0.7230471736787161 -0.09582758592428657
Ni 6.053659033021644 7.460755600302245 9.507736535111807 -3.1122483858480594 -1.9149730611447018 -0.7719266729882382
Ni 0.9662676533619032 8.26075294445495 1.0156547081067004 -2.5191666203176033 -2.2675037004568304 -0.516314281561414
Ni 2.2078661365837933 3.381025002854037 6.699919375196737 -0.04128985988772244 -0.6012625015690354 0.19236556765203644
Ni 4.07933052899675 3.1177892657125303 5.100344293569486 -0.43221761092081046 -0.5784832988909908 1.714788511668879
Ni 1.0125732506387306 1.0409781106922074 10.460669813947458 -1.1977095840272984 -1.0164570955692882 0.7298724241306656
Ni 8.152548384211931 3.4896947589708436 3.523592651902005 0.6980851044167397 -2.665978410599241 1.4332177485050803
Ni 7.905547983065615 8.54181498748 9.746949557330916 1.525617025474108 2.0463888285862435 0.681032262699511
Ni 2.0424796995347907 5.4223696244567865 1.7149799436047564 -1.2452253702200748 0.09254325874605998 0.9440679431735999
Ni 8.777045933019489 1.9478402509714214 5.991769373972929 -0.12066932755831476 1.1456411454668334 -0.4018194582449273
Ni 3.004216345086002 7.91364239126952 5.723115035293543 -0.8920218732106379 0.5444138680111076 0.16839980086505837
Ni 0.6304697334352437 2.6548542438714406 1.9519060629083262 -0.611270777734657 -0.05016247978700393 -0.9637265979447919
Ni 6.972727913029047 8.538139940077079 1.1868895876809618 -0.5173681767472251 0.28079557556067125 -0.9266060389434106
Ni 4.209417903142742 6.049248976138136 1.9245357984781533 1.3443064300846526 0.5908065963430341 0.045881078802830655
Ni 0.832079112392599 2.1797496979720647 8.401187205225726 0.1454776448512462 2.244844825406734 -0.053497200587191734
Ni 8.206418066396546 5.026878700397437 7.674789430656722 3.7230121420393107 0.9608621319128035 -0.9868523853289779
Ni 2.093176745860174 6.981892271742665 11.162446631700375 0.7861003933854591 2.7278491799621083 1.024202800952978
Ni 4.35684777946354 8.637049886761819 7.564217953807872 0.8440643714947528 0.02308310707170863 0.6206118526299247
Ni 3.438216183577497 5.2785496681165816 5.8453433903477645 -1.154886061103869 0.5096114156199417 -0.0238580375645202
Ni 6.15492287082775 5.105199077708333 8.267615513985065 -0.8807856381751863 1.042213892818418 0.47139736644406555
Ni 7.018745088864126 7.946922504080293 3.533193364345236 0.6972505243305863 -0.5343204883308474 -4.2761597903789905
Ni 1.5289685822955028 0.726619207804928 13.005755509048205 -1.021615756952092 0.6785303222132638 -0.41123638068345303
Ni 0.8513847411547885 1.2692869416297339 3.928296315045846 -0.23572182315048434 -0.3756155461560499 0.5812384930386248
P 2.0706426577338983 2.7230705668036688 12.04970448746643 0.923345623024584 -0.6416319065250176 0.5512825701064828
P 4.499486138284324 6.429779200896474 7.624024465733767 -2.020305758345946 1.2251059737623804 2.0581469975634357
P 5.739400612443102 1.1384366462507303 7.041575041566131 0.7038518316971879 -0.27026973632868295 -0.6123416422013325
P 0.2398689484011507 8.385741771824229 11.27399874145117 -0.17843507361387334 -0.49377316303610447 0.5404901074766691
P 9.2245085400984 4.406958678987951 0.48297659047561137 0.26424101363609975 0.5119020114263313 -0.5960678447419734
P 3.18843391110593 9.194428974899287 9.719743041848316 0.28292342053695146 -0.27426831596511475 -0.30052442144816627
P 6.79974947931983 6.089386076128539 2.316766629853998 0.7610215960399603 -0.4811973832536228 0.6777294235785232
P 8.572927287518922 0.867341890017454 1.2433466893155842 1.631888432439538 -0.19840611741916153 -0.20420806881291928
