# total energy = -381167.7010759834 ev
CRYSTAL
PRIMVEC
9.27997843364037 0.00000000000000 0.00000000000000
0.00000000000000 9.27997843364037 0.00000000000000
0.00000000000000 0.00000000000000 13.58218647223232
PRIMCOORD
 96 1
Ni 0.2279060653884796 8.981617966609846 2.2782894876666924 1.5039881343504227 0.8869467726805756 0.3087812621403198
Ni 5.359967134983227 2.4764457977964924 3.83612598404926 -0.26832161146337663 -0.9605363731422684 0.3570151574460432
Ni 7.586187590963313 8.460305891180441 1.4862989976808052 -1.2240690478574339 -0.10533012609808312 -1.0051727809047204
Ni 0.6276856856370502 2.8577044368405984 3.7801259534458214 0.456556187666175 -0.7456800805868835 1.4810451524010042
Ni 2.886704369831856 7.820210090218844 11.874837809386714 0.21990182539909223 -0.8006451239688533 1.7435722686697905
Ni 0.9517360408695702 6.809527625553923 7.627579079322003 -1.189960793319815 0.47955470544387724 -2.094771590765005
Ni 4.530903130661317 2.966094586388723 9.718638503612146 -1.4391225440252893 -1.7127010330122308 -0.051406379496434056
Ni 8.34662615385471 6.8073839505072105 2.9110838014994824 -0.03805875454493446 1.8495744811342338 0.4443383054437445
Ni 9.030922492684264 1.6574598501877031 8.30341578969881 -0.18733289032413544 0.5803722883835877 0.17803603840324175
Ni 2.560132644425344 4.189808238812783 10.252201078734913 1.4432010849700372 -0.7074302930770655 1.2339963342734748
Ni 5.286525384681528 2.1456609621250102 12.73651908234148 1.4533191472406455 1.0971984765844136 -0.7790488858553163
Ni 8.572695711486721 4.716743981247854 0.6169060625450039 1.3526915688245542 1.228539939144594 2.0703841630595763
Ni 7.415816464631633 6.063324549769274 5.735539931165335 -1.3179585362187431 1.4966982855572288 -1.9675240957685407
Ni 0.6847250738388951 2.6912494614600577 10.616788236301007 0.4623537681845586 -0.5149600815263647 -0.3081683111466692
Ni 2.581272435578651 4.766790905606847 5.828401892593694 -0.1625572260413523 -0.14351589313918509 -0.38532506013432993
Ni 5.726869647199342 9.094295466251399 8.12885753704212 0.32501263639751765 0.02597431257657462 -0.03564063202174507
Ni 5.580162466188527 5.3957507322998 9.450513011156751 -0.9794465797832099 -0.44473476955121466 -0.25613355403761695
Ni 6.121890494443779 3.603619833289975 10.929993080593722 1.4296742541281957 -0.10328275665075116 0.7599005950616396
Ni 8.400032430451413 2.6335001548985866 1.9673387501655193 0.16837357561281324 0.1694992045768242 -0.6053078752830027
Ni 0.06999795025912246 4.931603324782762 3.04858988377083 0.4297987170666727 -1.5996444848041675 0.3389529006276937
Ni 3.4215466539976624 2.1733988180324886 6.067516316083562 0.4644142502580131 1.6761641144284618 -0.25335959083690557
Ni 9.018839960602786 0.7466392347768386 0.09602272212494105 -0.504109511965106 0.655489124123084 -0.4491871488956135
Ni 8.224993474905459 6.470910487980163 9.481153644356922 0.6899056539297408 1.0557715768981946 0.24668192170641384
Ni 2.9734443294060275 1.7721047052833823 12.165714097272948 -0.5568379527070734 1.7213646222245 -0.7868167027261932
P 6.989438569842409 5.607037284090186 11.053632090907042 0.09440782275862451 0.6306970047800686 0.8538566749948262
Ni 2.0839862246338425 0.43016691003413016 0.16578032093943196 -0.3936196960429543 -0.20638142231515422 0.4794287213889743
P 3.637723754487694 3.9149259939698893 12.337705507860715 -0.3990187555713386 -0.5698256232159928 0.47923460310029725
Ni 4.758875083897553 4.53603495880345 2.9690521155549034 -0.1004933668310721 -1.2478154995447541 1.2107687312041018
P 5.317854592290644 8.088280830800752 5.818907546531819 0.8249829293832696 -0.16646170330208104 1.3208849658369188
P 1.4098607423029843 0.911005286984153 9.346541059399708 -1.0970935755754332 -2.9230051658750886 2.7413518424342334
P 4.674974797761886 7.237093357598471 13.12203537554763 0.39967078733304073 0.04351206435002184 0.8759756183810526
Ni 7.875992041326189 9.119342128377289 9.564168620538231 -0.023187236749740714 0.8285562485568246 0.2863368170938746
Ni 5.353610349671545 7.710585703522612 1.6724832074739582 -0.8762769516715554 1.4243209602360825 -1.3749742914821548
Ni 1.2737512968044957 0.0931876886757157 11.488044591131093 -1.1341660549476982 1.4448337354774536 0.08742522079320428
Ni 0.31971567724845074 7.468897941978831 13.609623080902308 -0.17969491416290345 0.2388608830000983 0.28031632193140754
Ni 0.9612665788478172 6.629069162530565 11.350810412231473 -1.7314112078272246 0.10381137546071152 0.16007122639470497
Ni 4.233229258481933 5.910687462460408 11.44189247377256 0.43164142670236627 -1.0748265366471166 0.2902667482759001
Ni 1.1318882646005417 0.08185312286594862 6.912463931703981 0.2335898644091461 -0.14212415499798103 1.5579748729795233
Ni 2.632572157042867 1.21459143350233 3.9733462429810458 0.4282339436827141 0.7277270956528885 -1.8183450908063072
Ni 3.1824944063641274 9.246366474868276 5.778785559239755 0.6927366956206328 -1.420067584276367 0.7928901626137829
Ni 3.9345438686398153 7.026660563835347 7.411595930383816 0.7591678306606732 0.3088643087724294 -0.201322262624692
Ni 3.7524428494118314 6.352627881290061 2.675310170290207 -1.0781985384431432 1.2836690189082536 0.5131577382103033
Ni 5.824485741642554 0.9618604974754782 1.5652651192176081 -1.8038078164220805 -0.0352128004557071 -0.1986395735862063
Ni 1.7622493680556335 7.470447698397884 3.378025410560095 -1.0363756888700861 -0.2648498508646922 0.6698772745239561
Ni 0.9179884708484478 7.990135777579779 9.634945160998303 -0.19077225502298759 1.635989856202421 -1.7981156511333098
Ni 1.5678338172822417 2.0914658873509477 1.691511803505502 -0.7727869641060046 -0.5432797544066644 0.43954782603363657
Ni 3.2917197539824006 9.44757496994554 8.459719396535627 -0.3340858023433795 -0.4170331898708882 -1.847669293691721
Ni 2.1931466124022156 2.3926475914249536 8.331299341269636 2.228294891467853 2.268004551352649 -0.1728660641665281
Ni 4.829579240524877 5.109630433424134 5.532092177262219 0.938255450256881 0.11352526031436577 -0.46159837807577275
Ni 0.6275455579608366 0.13124209674523585 4.645419922052906 0.32791181232218364 -0.39535159113239654 -0.9218885788630833
Ni 7.001715981473587 6.762784373561296 13.287086290172466 0.04119781439454841 2.098630816610095 -2.5819182496235276
Ni 2.228289891198341 4.35601265477228 2.1965792764705245 0.7972520391269045 -0.1506483904189083 -0.10845067400493581
Ni 0.7960439846196731 4.421056024479711 7.606866167182327 0.11706052716113388 1.322770612895406 2.1364172913302495
Ni 0.3696336099054985 5.642588881942829 5.378708979677354 0.10335397620831878 -0.3603853594698568 -0.10351878392095722
Ni 5.974459475105503 7.824747999733316 10.385510754702695 0.8305478250655567 -0.11147840508766607 0.43691527350679593
Ni 8.092475381108608 4.088739992346291 9.507652623127013 0.9184957511314504 -0.33889787902004215 1.1000256616205635
P 4.601161848317896 2.019824452889345 7.85475481039803 0.28769307401145294 -1.0929096194010726 -0.7193144461091612
Ni 4.908672497767915 9.098647776194728 3.942338122630009 1.016872842950468 0.43481391089307697 -0.22059113815663298
P 3.6724308742916314 0.0379746002539282 2.207023892336656 -0.37756032858724653 0.5955844773476517 -0.7754010046900839
Ni 5.816885439204205 3.543995971059949 6.878861129348351 -0.44381302906789366 -0.3389547003999066 -0.8355272805580191
P 8.397007157441763 3.356661043925703 5.504249457597044 -0.13107663893456778 0.6294855009704707 -0.17635685092860595
P 3.966624754512064 7.487782698342738 9.850507926907849 -0.546885983700684 -0.510185800066173 -1.5592712231934436
P 1.0124642205479033 6.086997775068697 1.5707115386328303 0.4603657912202523 0.7424461470306182 -0.5282071763442581
Ni 3.639069351378488 2.8150072554989096 0.7937026460296909 -0.5225628335742871 -0.4370942222868214 -0.1151946775969887
Ni 8.286529012718269 8.440966415867232 11.83785338284484 0.7793425058363352 -0.6975616278131019 -0.8995914580277796
Ni 7.745673302447394 8.795777116023311 5.212857202903032 -2.671187465604006 -3.4646322151696785 -2.0738962899778928
Ni 8.267180257426501 8.19152059224963 7.452002813017589 -0.19140783172445747 0.10795316554322697 0.11805374431233862
Ni 3.779651746541549 0.18058931072101567 10.63824725871668 1.8070893153868295 1.7520993323041953 0.836104750328044
Ni 6.607363292685268 5.692301727073763 1.4907533873882626 -0.13202871843519198 -1.5769491000891809 1.2366224590424124
Ni 1.204912415867168 3.557906658917196 13.177939822371929 1.50137100844255 -1.9086792577161902 0.5982018603658408
Ni 7.134855833833771 4.310679959520345 3.4490330224862404 0.2628490183845795 -0.7374916312388201 1.075259253309161
Ni 6.8471857785390515 2.414409141141594 8.639439173265833 -1.2239420353612662 -1.6042645000746825 0.49654892600902867
Ni 4.312071956303925 5.125397116992821 0.7143541893763313 -0.16416210863462696 0.8978101977576408 -1.9171494999707304
Ni 2.4861804953029973 6.164012317114921 9.016657309646131 0.6999679232617494 -0.4598376866309241 1.4185148950772666
Ni 8.762601192681311 4.335160542954245 12.00623209778029 -0.5259034679117459 0.6764518424176802 -2.615926231137856
Ni 6.511807353481755 6.624559092951765 7.901178831128291 -0.5654377785609424 1.3301676766904253 -1.630706753426611
Ni 2.031962664842166 5.696496277381617 12.994159127025092 1.3761742253275266 -0.39092055194423647 1.7704917187684541
Ni 7.3504111757604695 0.9790006178706312 3.1236315023757917 1.0358010473135388 -0.39321269041252277 2.0126073612604243
Ni 4.410059249889426 0.16232167293116262 13.31420981149946 -1.6763780302114806 -1.7003677082578588 0.7344955247249737
Ni 5.93403588851033 1.1436088775182884 6.033017067799307 -0.3650753087463584 -0.32637943483805726 -0.2531276773317576
Ni 3.7863797309955203 4.386135465168958 7.996607634625572 -0.3401088686090078 0.26815860352295107 -0.9103057591214904
Ni 6.606852893864622 4.472838304828901 12.99220383554309 -1.931896062152286 0.5093869583139614 -0.09422913108891513
Ni 1.0996960189856062 2.668225834659638 6.412408575157704 -0.9033064449855218 -1.2517487731608892 -3.0190119576897168
Ni 3.601568958028833 7.056848334081926 4.9040519964442835 -0.1266566554900012 -0.5682359101313698 0.10685684715525469
Ni 7.851817697184677 1.950196773774655 11.4778171267632 -0.08174128303454954 -0.8862728865420026 0.18458772347883048
Ni 2.588102499796752 7.6849358427905035 1.187201576790747 0.31774824152562053 -0.1110210058352733 -1.3403860119843238
Ni 6.114633551212046 6.472293204785187 3.4532303567876634 -0.7434085109438874 1.0606101359374185 3.114198824706211
Ni 7.706632432657244 4.65571884225569 7.340967869580661 0.9630347140840898 -1.1028014245934876 0.1025024268413009
P 1.5244963174201063 7.4815187128166265 5.61211900034811 0.239646097905555 0.7799464579689213 -0.021116727373957183
Ni 8.428753964085953 1.1949828388109611 6.115664556829752 0.07736603678498934 3.4168019830602767 1.1784440509294674
P 6.064187587775094 1.0420859121024935 10.500062810012802 -0.1924882092728298 -0.20104484059358926 -0.084701394104138
Ni 6.63947201849319 0.0756559531854488 13.03822046521469 0.5182287249753075 0.33096499732621065 -0.27460410203797864
P 3.201852441634452 3.4194493788437352 4.074886840356099 -0.10731424640764743 0.009047454914248933 0.5584081254076706
P 7.733999089422434 2.756664030309778 13.499580167173145 0.2085879430481698 -1.216285804367589 0.276898040278478
P 0.7066146872596244 5.06798188965941 9.97593982907842 -1.1176863121251204 -0.4834746093235737 -0.912626436834867
Ni 5.840261705189799 3.37017269270499 1.3990059513846247 1.9826617227409273 -1.2722198965310478 -0.14981149633990976
