# total energy = -340884.4595068791 ev
CRYSTAL
PRIMVEC
9.09302982524458 0.00000000000000 0.00000000000000

0.00000000000000 9.09302982524458 0.00000000000000

0.00000000000000 0.00000000000000 13.30856828679157

PRIMCOORD
 96 1
Ni 6.762831778561629 2.2992362297364903 11.671693900090364 -0.1744858591581382 1.9236255946133771 -2.7358789922451203
Ni 4.957019716518423 0.5914206588779984 5.86293008457758 -0.9177385612504516 -1.207639698656817 0.42681495184800045
Ni 2.920490210002239 1.8109496238659002 4.776298477655573 -0.020856788844351173 -0.0632499090985814 -0.09215425083775741
Ni 3.35902884997555 4.283562652316231 4.337528874725985 0.8462968603696974 0.31404739563526557 0.9354277510000987
Ni 3.5703235828498103 2.642388987373398 2.460261966107382 -0.09598930831313146 0.303207110486652 0.6204547582267702
Ni 5.295898750161231 4.2956018237379086 2.569485621154894 -0.46655572208104806 1.2522871621628628 0.41336988208668807
Ni 5.633041015117075 3.06566043035502 0.3385926032049056 -1.2605756274239 0.25115872653084487 -0.3557126365845357
Ni 5.764062481140453 8.093551220937306 12.587536584572407 -0.2613007000608532 -0.7503180935795272 -0.8099718006864179
Ni 2.1176029599872392 6.947238422392157 0.42443807870171313 0.6033720917128704 -0.8293862006572877 -1.3145657084871103
Ni 0.5427502170090188 -0.021453185147404664 13.119719791680268 1.3259664941248843 1.8556116884672496 -0.7141802102063894
Ni 8.484987966677771 0.19247943566449052 6.821919195340483 0.5036467133960745 -0.0214370868278534 -0.40101084630070294
Ni 8.519277781958092 2.4535813171319236 1.4031890710739292 0.7557338652784598 0.013015438423061456 -0.25377945198314356
Ni 7.0655114606714315 0.9154316795362256 4.903449040903868 0.5737738092304635 -0.05144288916132431 -1.1212557746439336
Ni 1.188704503354711 7.8576416564629845 2.292427369041209 0.06351396139324546 0.37243046355984893 2.0412175687979492
Ni 7.736540685923785 3.997395912277248 3.9786097127627578 0.44814945165971853 -1.1155417549782918 -2.6897032650200066
Ni 8.118902587949115 4.301057641602717 12.474759373488947 -0.03572984930144169 -0.7530095243687612 -0.2358722326854196
Ni 8.104908415125882 7.821960607627136 8.799891408713677 1.1205304664421347 -1.1589802857779008 -0.5890993838439403
Ni 7.059882875240905 0.8461246065936078 -0.06082145755688565 0.8841967207392644 -0.9674734665817338 2.665528981766648
Ni 2.1636409697364485 6.669691874579573 8.859899949408707 -0.28969879158757206 -0.7724126114857214 0.7372502046519754
Ni 0.28219490463340224 5.061616838016578 1.2507607943549983 -1.2617961300945624 -0.07931878963598597 0.04576049406456635
Ni 6.603676478415388 2.0719832296076652 7.0535814056070505 -0.398097786418966 0.441184333195795 -1.6413637189198247
Ni 3.735025631158605 4.609811467602007 0.5763271387550055 0.1513641855390103 -0.8998457401304308 0.2656137256139103
Ni 6.6701556190980815 6.003545606316224 4.544729925595684 -1.5947653023349952 -0.33286247145923964 2.9171186251873245
Ni 5.708958720705887 2.8760252944040494 9.210633565968767 -0.5523359510716617 1.8140683178078243 0.7313407811460759
P 0.3715857524393578 6.077080938104068 12.46587002758122 1.2860683723783657 -1.129626772316448 -1.0420174605368957
P 4.306222482514736 6.185988155715421 12.726678126184574 -1.296485968167264 2.928905076299291 -1.4479285723526933
P 2.399186813019783 9.268888970523236 1.1632458385915594 0.5199521354243173 -0.9678169659640816 -0.5302031237283643
P 6.852516331229306 8.151155564559911 6.17347250953355 -1.4030823625722804 -1.0345566333834764 -1.414802736333002
P 4.931341000434725 1.3602808821731651 12.588122175689895 1.7944250896556002 -1.4427249166645668 -1.8918537015184194
P 4.3107417183127525 6.558956957983508 8.043685045652957 -0.15839615268512722 -2.0168671649780427 -0.7964961347974863
P 4.8370644677308325 1.1662447198112493 3.6092435688913995 -0.9397567173927558 -1.9918109933403634 0.677257369038111
P 0.3710019799278233 5.996134787049859 3.4202085729055582 -0.7206627326069396 -0.40603683876038454 0.06597810666302185
Ni 0.8744466664328063 9.556683362891889 4.7441582546139855 0.17016923406065534 -1.661480287164042 0.8357705069170768
Ni 2.436086327845438 6.783154700108041 4.425192046874751 -1.0045102076200572 0.2814818029944185 1.7054065562333467
Ni 5.896738878582822 5.42090063047377 9.047164532497417 0.2439796922839024 0.1536802352666966 0.11085928344642841
Ni 8.97356554950115 2.6338233533256488 10.15258779475178 0.4327621705703708 -0.5354859693938584 -0.384129497164332
Ni 2.886345883198312 5.602552086282571 6.536622658250937 -0.7503026669605595 0.22923030188886973 0.22817177871736835
Ni 0.8154365404070372 0.2263791599674784 9.249068893523365 -0.03968883394918971 -0.19948675207785 -0.314823868789974
Ni 1.9379883428479672 1.4240775790723263 11.218563675237622 -0.2759374761374216 0.25171665591684395 0.7072770553286528
Ni 4.6864384295132435 6.923696568305509 1.5166973617512711 -0.475011309047569 0.4293850265680218 0.6500682102178289
Ni 5.832287483539884 8.162049014229977 8.125826020819558 -0.8939687125243636 0.1624160724777977 -0.13235319165414625
Ni 5.383946557469466 2.862585796397071 4.608025596554261 0.582110611230933 1.4056802052064434 1.3853643764672272
Ni 1.0174554736081454 7.453783832050307 6.519029464242884 0.5497280811351695 0.8174969054188695 1.4399648374209266
Ni 5.17738020007804 4.797891695461508 6.432151020563673 -0.13535778280842495 -0.0964024845911501 0.24947156863640907
Ni 0.5102044448394809 7.564636958033442 10.852285524277747 0.8360476718378632 -0.4928208264251641 0.26480922743474394
Ni 4.282071395433183 0.8218698589726239 10.524016237776037 0.539488148574716 -0.8978400225543118 -0.40722211731773733
Ni 8.548284546939325 7.4281505811154815 4.8106746767187545 -0.7799850245163406 1.469886050460391 -0.880651169479851
Ni 7.361507765896845 6.074662192184003 7.033032976922226 0.14981818120812906 0.5227795775707835 0.06335481010756185
Ni 2.301473115061062 5.474485854935964 2.5978458717191466 1.4494527223067037 1.1188443369889636 -1.4991351771334955
Ni 2.9020859177382854 5.638205856029094 11.063679371176551 -1.5147402306606041 -0.9855457507024123 1.2825629303282684
Ni 1.0699404414676037 3.614188358482871 3.452561572843873 -0.4708777464951697 -0.2252615470491088 0.56812432425417
Ni 1.4864739493861867 1.3368936095926856 2.6679422196462066 0.10488249703770325 0.027921923221248687 -0.798710883060618
Ni 1.3114240331938045 4.1871037924664165 7.958936189546975 -0.4065466885172676 -0.7718649665123675 0.22562510103611466
Ni 4.1161690671941304 2.589222042280839 6.816182402855636 -0.8418557938792082 0.6263081316837537 -0.5491107592661446
Ni 4.637599766593433 7.127407714347685 5.704424936060231 0.3911390957129457 1.0277002725832753 0.6617160788694024
Ni 8.677332825501596 7.294464857368123 0.6387789765504914 -2.4446480802837383 -0.17950670941149732 1.2751147015803395
P 0.25114675446775425 6.099431605290233 8.12799470842082 -1.2372431233455465 -0.39455377782144957 -0.6345590588386363
P 9.099485825820931 1.777132646133862 8.010280891472688 -0.695320654297725 2.3232956106154696 0.4727363969704633
P 2.280804658383212 3.7981585368842152 10.108655730698386 -0.6467972527760409 -0.6204123350246089 -0.08363644317473339
P 4.540995418267222 6.231944328196659 3.682374260854271 -0.25123020319872863 -0.3471148676131957 -0.49190114282437214
P 7.265530836625088 4.010799038165128 10.220221750215858 -0.8237405723357363 0.9450303070868693 0.9926404527656647
P 6.640739667776988 8.08031176958537 10.230163159668516 -1.6175573605288465 0.054273673741900084 1.1295426972430742
P 2.763508143972148 8.542801449985191 5.876784224742285 0.7789578688034069 0.23298874049003745 -1.4402206621854743
P 7.098428228455777 4.0649389374435785 1.3373382587486677 2.0216288480327442 0.09100522483497875 1.1868988665650397
Ni 3.320328915254508 2.065372596961472 13.575138732127296 -2.9224474935994054 0.9263630696946691 -0.698100016815075
Ni 1.7886898869774812 1.0963465999332769 6.950572836410533 -0.25112710196196103 0.32496018589302744 -1.1067758358602036
Ni 7.069221416819502 1.000596996405887 9.016062733456097 0.5192461104962283 -0.5634636855537071 0.6408479771711415
Ni 2.58291147961721 1.909408950266145 8.88708901773798 0.4415977665841298 1.0834860120943277 1.1833474017683554
Ni 6.253185645750314 2.0007029692039415 2.4047781170282336 2.1966875489752167 0.19622453638681045 -0.08682486820504402
Ni 4.263839870734949 7.11729626523824 10.216362668379483 2.0802661980599786 2.058195334302868 0.07445194846198791
Ni 7.509960569998286 6.650869302945982 11.657973427463348 -0.35920419467756204 -0.454122895634334 -0.6078308988151725
Ni 7.918828653816813 3.7961035121551374 8.095881764468556 0.5149425980248681 0.20756284421776514 0.008910672226068523
Ni 3.472691722159061 8.7184878782618 12.581068712493675 -1.2353248232769112 -0.29479343250166 -0.5981823199818149
Ni 0.10763510274587537 5.044949314439587 10.116827636556893 0.9066558210737288 0.909942976465433 0.4418422784947681
Ni 8.875806386393554 2.866832241301847 5.7530144499642155 1.0260869053495683 -1.353434617638166 0.8542009457081223
Ni 4.132636544116077 3.165501897281016 11.161363971439993 -1.407648127566092 -0.8432544739989478 0.02330499327452761
Ni 1.5759038972201733 3.8668109116830562 12.377354838542567 -0.3585346794143632 0.001829854119887171 0.14417692376195168
Ni 3.318419379001825 8.485579013613124 8.060560799611787 0.520525234318968 1.9061112398786981 -0.06925549186271299
Ni 6.020076734446594 8.079657071441593 3.527781843048966 -0.9905812562437908 0.34487929341445767 -0.09840794505695309
Ni 3.547872892336123 8.516195244864475 3.418758234656497 -0.2430381543062395 0.6547139365199562 -0.25883269813633486
Ni 3.6656276279182407 4.2107820419996855 8.398984272462883 0.6408382069791286 1.049438435591315 1.3503752619865517
Ni 5.524279285982117 4.770812652792507 11.70758772582294 0.7121436393923348 -0.8524479675727578 -3.8199177915191247
Ni 8.049486398649202 -0.1945571929680051 2.7050326880971296 1.1762655552209096 0.8391329956314064 -0.35818269539158315
Ni 4.691348665591572 0.4561381991022057 1.3686664742313757 0.41271167967739886 -0.9376481556901852 0.2643130045246158
Ni 6.2259247424858195 5.638269507237517 0.16677344049146758 1.8857136500589524 1.546857422910123 2.6839465650418872
Ni 8.068781807831076 0.3951285158289842 11.040708559359752 1.048192478999356 -0.6219256863453417 0.7906900696386705
Ni 0.351946626732002 5.410889204691846 5.647809914077111 0.14069179342682867 -1.66668779950691 -0.10500693843070949
Ni 7.17858328591959 5.86969620803292 2.4542332873667685 1.4061376044588363 1.6755259666238302 -1.7000977424259238
P 8.683670667254548 1.7195828606899064 3.670144135807325 -0.9347188978585322 1.7912168671309474 -0.8580519440230964
P 1.9361879229525805 3.8134802920545523 1.3487836553260586 0.373160399747338 -2.4670264479789386 -0.19571802906403715
P 4.637645231742305 1.3166070601653728 8.399050651580238 0.5653308206694327 -1.8570497064653564 -1.1184062210102803
P 9.142677717250665 2.0977255968997865 12.270180752406267 -0.4631963186905119 -0.7888005659254415 1.447655521196965
P 6.656725214120877 8.105572206299435 1.2963259665559244 -0.34575886780593357 -0.6435954580092916 0.07870326753917413
P 1.884785025636309 3.726941927688914 5.850287135978864 0.7902097875681423 -0.8334536858584419 -0.5589614268079793
P 7.120833453820591 4.140220130948161 5.906222908637814 -0.6504749587379444 0.0903033136719477 1.643171718662841
P 2.4546179225262375 8.441314144669978 10.376757348484011 0.831126323276846 0.3304350929646696 0.32430532591784794
