# total energy = -340871.2921531968 ev
CRYSTAL
PRIMVEC
9.22375221421713 0.00000000000000 0.00000000000000
0.00000000000000 9.22375221421713 0.00000000000000
0.00000000000000 0.00000000000000 13.49989371667196
PRIMCOORD
 96 1
Ni 6.905943345980228 9.044931532285014 4.656316249392019 1.4714407965420206 1.4390117294790379 -0.9317945251228856
Ni 6.6629897072253 4.772618543661605 9.181304711821523 0.6467784837229635 -0.0849191665418989 1.689446690469981
Ni 9.250040114858795 4.512112104050541 1.8320032582470198 0.18210943714166702 1.451167133894649 -1.559472283460656
Ni 6.476337853244861 7.593076006294853 2.676300358429112 0.9894720823400119 2.657860923698429 -1.715464711800297
Ni 7.286496923343587 9.186516131939083 7.385927129685667 0.051740108686768954 -0.6597846661746443 0.005716590768803058
Ni 2.9681481863896604 7.918997298071823 9.205942276911815 -1.2555676326863474 -0.26461716602859586 -0.37559472022044343
Ni 5.243629461012421 6.428604934468978 4.129361428860628 0.48828205801454616 -0.24346135788658713 -0.2491110999731968
Ni 6.833084925611011 0.2184184573165042 10.371023961147923 1.3310043136591077 -2.6081373312210565 1.5932411523809853
Ni 4.501311089966181 4.290004145765852 13.469816454445745 -0.04211235578901779 -0.010822030316168458 1.0173166153561062
Ni 3.8329948845892963 1.1643327155395675 13.164543454837217 -0.08710846088373386 -0.2625785383320123 1.1860887119589185
Ni 6.082253031080687 4.873858450228579 7.011844937020504 0.42010437259704425 -2.1486871098365383 -0.9965045637067611
Ni 5.322769256779972 7.492020574776288 13.188842508213678 0.031199565531255944 0.13333252484828004 0.6632844517977867
Ni 4.765193422963136 1.4289345012253174 10.762952269996193 -0.29885397572427885 1.7370352388822212 0.1900250924443179
Ni 7.4218554901138445 1.9525761498872793 12.19601993468112 0.6024277255217303 -0.5544668813717355 0.08231798147362597
Ni 9.09554226181608 1.3823637752544125 3.8909126707878516 -0.6253449964395359 0.27202554267752505 -1.1686234652946197
Ni 7.792991616255914 6.360588984120502 5.279200862221926 -2.918859004917199 2.51719175597942 -1.063190237959769
Ni 4.236303459173931 5.0084422217955185 5.520605832945459 -1.347167039461899 -2.052050654857711 0.5803753737073811
Ni 4.6751142568249175 8.831623033809445 4.014949081461994 0.6189995138374823 0.7958510450143197 -0.6924014237684011
Ni 7.2472775280517885 5.608373526727109 3.0532031745844526 1.1784785037118284 -2.43286702848841 -0.4502747255328375
Ni 7.599043774110891 2.1005989287308293 6.621576903607917 -0.7430665542234365 0.7454702785689226 -0.4269967288415033
Ni 1.7777583702622919 9.128627861748273 10.961562718989759 -0.39715187756592896 0.07004430631259549 -1.748043417067267
Ni 4.938489283438747 3.1939179743852715 8.809032219381255 -1.6223360128644122 0.40237764474124255 -1.4343454343516202
Ni 2.732951723420338 4.597929896570505 1.8512809008057824 -0.11430738989602895 -0.635590328316628 0.10193986946961153
Ni 1.2053784138106165 0.9827170303807006 12.969428808011005 -0.013176903701590212 0.6384892471309778 1.2633295360199532
P 8.910919633368145 0.17968792090299063 11.692042403804338 -0.3977257477915279 -0.0036090575074970103 -1.5360235655194125
P 2.5675421712642206 9.22753415895287 1.3513931817522324 1.2071105656262242 -0.2884636336288903 -0.44347801432597816
P 5.506183573660827 1.373739566741282 7.39740147769672 0.105777755158463 0.7771223582565648 0.8471286122423733
P 3.3912601574210233 1.4852455097522286 4.1863983467030295 -1.5572169117675763 -0.12867008637560418 -0.10729830556804747
P 5.760768364217957 0.34892164081263133 12.497945634536263 -0.28877576555267037 -0.06792571730769592 -0.28176025346678574
P 7.241503459036581 0.91912571406832 2.5445953199925992 1.5374207029772555 -2.0091731387678946 0.48376128732605717
P 3.512312684187147 4.457691964769824 7.591611274410483 0.6090364890874995 0.7117492321673936 -0.057190590278378924
P 9.132963025385889 6.202005008755525 6.853113381616799 1.9482523920231223 0.2885592786664901 1.0706608353052012
Ni 4.390533823396451 6.004109400574546 9.638289991241786 0.40032924685264604 -0.09783947414799278 -0.5564646285280546
Ni 4.048553978655458 9.081190103049844 6.848469222273097 -0.05059931021410641 1.6598401804574574 1.178365632283048
Ni 9.254375278496411 2.4742531392836833 10.643762018843761 0.9736826807162392 0.4797992173545156 -0.17234695843826447
Ni 8.48035487038105 4.528281342043607 12.052179205185006 -0.3325084305539306 0.33903826125264835 -0.8790822823308343
Ni 7.668830684924094 9.045623313716549 13.483694512337568 0.29769723641201634 -1.79170614806254 0.12013196699760603
Ni 3.3050457435469793 1.451440457131241 8.77706453824242 0.398149722702824 -1.407340366517686 -0.054135091281506766
Ni 4.5978561065511405 6.586026717028978 7.241532052669084 -0.6126810278186223 1.2178202387342447 1.3736766557166535
Ni 3.037990439717387 2.6720380624356173 6.3916868654060846 0.43331110109530535 -1.006495613481202 1.2496394401273703
Ni 0.6902346082536249 6.491474030966837 12.875226624540842 -0.2979754297740675 0.3498708330917781 0.2773047887985934
Ni 4.236349577936033 4.065350431813116 11.137331467489297 0.566804834111798 -1.9655530880850989 -1.126611639639208
Ni 8.566486270483308 1.8087040596329367 0.85242414843976 -0.06745726231170962 2.0240387430258178 0.9129866483877631
Ni 9.202519342388582 7.58700677720219 8.937442533453178 -0.44939463692072934 1.1041497110912661 -2.8576091569677815
Ni 1.9953835848706365 7.03376610702297 6.980255429730911 -0.9766587326254277 0.0762020983838752 1.4063672039711392
Ni 6.798090008927784 2.2453288279602748 9.546895518008409 2.31750111542088 0.37924671515073394 -1.4728379339998634
Ni 1.8742664918375698 4.88385699785236 8.944125142081802 0.7062848666187126 -0.08913217618198199 -0.32820774629604765
Ni 5.284997990618185 1.6590579003633859 3.024164957214359 -0.7455792933429611 0.39887040291893244 -0.19494258435059328
Ni 3.467411457404345 7.627342246536863 5.419748712103934 -0.9113627396310949 -3.1716390691015506 -1.511770606509319
Ni 5.0803044769033265 8.896124734485726 8.96707476047915 1.0889760886746211 -0.5734979298612574 -1.0391401389891006
Ni 4.442362088247018 8.374567653870788 11.175036322633655 -0.3493933792347273 -0.7016879912766496 -0.31101735055969015
Ni 9.050558021261494 8.06517532643128 3.72378381118056 -0.5386936776978788 0.3488076819345864 -0.5667894074928302
Ni 4.898006234065345 8.853621683332243 1.5477493456542368 -1.1635450223304478 1.5510910013754966 -0.2981932022118284
Ni 1.7187263547713447 4.886734808607543 11.370568805444512 -0.2045525966365316 0.5257733700917849 -0.5584919433707284
Ni 5.035633843931037 2.2551613480404855 5.310426031290911 2.050198432140321 0.5093656181577227 0.8610804464367751
Ni 1.943453858743444 0.32215615603893916 5.416022316126069 -1.0395774836368354 0.2994568994156004 1.2242351411216528
P 6.391340974690318 6.968305136094962 9.798762991102471 0.017779692580924218 0.7418393666845546 0.40900543447040527
P 5.7835325851916535 5.84954698126489 1.150062648169873 0.24546347591828047 -0.5315426684753942 0.24691897741788443
P 2.446000785619813 2.8558766719278155 10.228600000023592 -0.2164616893692917 0.4775446169923841 -0.5027751094243986
P 6.479870550421898 3.4858681859976866 11.20889487301868 -1.1323454567991917 2.306926682339143 0.11585699377133594
P -0.051314501840747796 3.6172882104844075 3.626597743802378 1.6121089358197656 -1.0031472658342593 2.72561232021179
P 1.6091666235211153 -0.007418664071776365 7.908778302765196 0.04014160521589216 0.2101234058560897 0.08952452652439422
P 3.0032722356067736 5.944496288681109 3.889670231336816 -0.9951171964409312 -0.3941115480777084 -0.46631043883946144
P 8.732873540395996 7.023380161797532 1.5345464664395898 -0.009787418404067015 0.48338770603672243 1.5282246383002842
Ni 6.234435722265865 1.5918259689706495 0.7996144763316555 -2.257184320808693 0.7444035278673051 -0.49872459350410886
Ni 2.5178445932227795 8.348538224540247 3.475520980532414 -1.3981283610011148 0.5069716640042494 -1.3291981136883044
Ni 7.239455785999239 3.0461073418473923 2.928032242362594 -0.44436915868167987 0.856619325341628 0.11079731986024144
Ni 1.2990087246307112 2.3690746904331723 8.15955183882219 -1.1822775657429445 0.8953833334837031 0.5170416466457418
Ni 1.5446556990924145 4.51550644494127 6.292327681957643 1.1008602417067168 1.97933162992643 1.9169453543797246
Ni 1.5908666987189215 6.783617941380081 1.9159587751532932 -1.6768999641532216 0.5864393205132739 0.11299098507745056
Ni 0.721766005902969 2.5054478699696805 5.839014378375966 -0.6423620998228228 -1.527694476828427 -0.9158287458222484
Ni 9.01942785684244 0.579666720863839 9.21982033480364 0.04738388860060226 0.8766471905267805 -0.1029539125564227
Ni 7.066556546877707 3.939197169958478 0.3720907845175861 -0.4133387717384366 0.5859634093181199 0.5524945881367129
Ni 8.515128417006185 4.362161560951114 5.856604996617025 -0.8935154270370289 -2.00226921255921 -0.15617112000935038
Ni 8.907848123812132 5.494275709286014 9.692937034832045 -1.1158268903188784 -2.5210316985508 -0.14054858298074505
Ni 0.5741315470363206 0.23606626282257123 1.8193538041776005 -0.12254803263826636 -1.809180907808536 0.6037996661685923
Ni 7.202855936394852 6.772733913523939 7.675391540020768 -0.25539179077558594 0.570367868872708 0.7458317756733994
Ni 2.5815807224481615 8.212266506280365 12.841976841815566 0.8869516577765822 -1.0399076132827443 1.4541750674830376
Ni 4.813046250520484 4.163325130023248 3.0908812808467916 0.6794083539428428 -0.04708101264820279 -0.0649668917896881
Ni 3.8952736609322454 6.777336565981749 2.023782596197992 1.4341101784123627 -0.34769773669985926 -0.4605683941493616
Ni 2.459808742993242 2.926355364172554 12.354576238788836 -0.45568638346671203 -0.13680917054297084 0.9518555575388186
Ni 1.7508988032139108 2.365781810819068 2.375873518342294 0.25321766594240264 -0.23342711357903667 -0.46798834076251655
Ni 7.551034142762394 6.552378468199138 13.404247565614417 -0.35796106629908025 -0.8334151193110229 1.2373732211655077
Ni 6.035267236250861 5.6804479281405875 11.820682389311532 1.477939516892487 -1.2376125908698234 -1.3557792066109426
Ni 3.843500738596201 6.112875889116616 11.940656659419703 -1.783650110527283 1.5470379143520454 0.007504021686529012
Ni 0.9028457910462072 6.373326986213159 4.776006427925641 1.4884321888936944 -0.6311425769579194 -0.27168615706023536
Ni 2.5497126578354705 3.6327933383032014 4.343874549402309 -0.4804381364900952 0.01936709167270213 -1.6677422089133536
Ni 8.173222362284555 7.195310906914915 11.355516563869562 -0.33748145828848974 1.052019051834298 -1.6508983978831375
P 2.6062358126680523 6.005170132102899 0.125231808987834 0.7374363525208526 -0.6828009245641596 0.49408400940830394
P 6.365606705437233 4.2704866856441575 4.912435872351914 -0.0885379942414088 0.24770599209555405 -0.8894006335377069
P 8.811026394654558 0.16981942818833998 5.618872001732077 0.8024667505586244 0.2799103447422405 1.5752871390057257
P 0.4020827378879554 3.450439752950698 13.508804333551788 1.2005347121809196 -0.6536638979888871 -1.1218532990186165
P 1.1817194888521356 6.822145555240345 10.354364941901329 2.338142445820315 -0.0765060027775392 2.321292464142512
P 4.168610340160171 2.649310736471603 1.4248326985239386 -0.7623364581966419 0.4648713924000897 -0.6091413900964799
P 5.731815005370133 7.774341188861742 5.741437223895156 -0.4489066415407172 -0.7048789874101216 1.8914616082863231
P 8.488167388681179 3.296144822461235 8.20230577604151 -0.09564606604109979 0.34111674104823186 0.8512475195067533
