# total energy = -381171.9462872449 ev
CRYSTAL
PRIMVEC
9.21914289747057 0.00000000000000 0.00000000000000

0.00000000000000 9.21914289747057 0.00000000000000

0.00000000000000 0.00000000000000 13.49314751568902

PRIMCOORD
 96 1
Ni 0.7574576757805869 7.090857556446939 3.104759285886355 0.09237485148899574 0.7111347385118463 1.0220201914793625
Ni 0.41123184759718795 0.03806123087557117 1.665998663075976 -0.010869595724652247 1.717549619353784 1.2833484023440416
Ni 7.074097154913261 9.017916528824047 1.5292594157780324 -0.2727675630498722 0.49934345803503033 0.1324668344138751
Ni 5.23009343964116 8.685372830407497 6.913308851817325 0.29368734392167484 -0.9413302325274626 0.012713333801610363
Ni 3.6265987206345063 4.06269183050665 2.6221095050873298 -0.10296265430717105 -0.43997154383461645 0.8735544105340697
Ni 6.084643439289778 4.232950958957673 2.6778770215435284 -0.28727449841679553 0.10194758277909538 -0.5502932096100199
Ni 2.52756627419183 1.364534538724516 2.174461121682562 0.5126977678547493 1.5985723347859113 0.841997461663395
Ni 5.531116888968798 3.2174439459006505 5.08985829340946 0.4313200388072056 0.049185974806347545 -0.2026633500336187
Ni 4.500951438926875 5.351564864617913 0.7384164583286299 -0.5825901219705129 -1.6590513660075747 -0.5313938016023558
Ni 4.756607486743386 0.7864601769823453 10.545825340188063 0.09549822760932586 -0.9779306573593158 -1.6988260748023518
Ni 2.9229937453593235 5.338547435043902 8.094161190235463 -1.9740282154356454 0.5871905968570016 1.4701958683913259
Ni 1.1591596955090386 1.353729703412376 6.064899723159677 -0.30061003918343715 0.5629054990573918 -1.0878874835961327
Ni 1.7405372761013285 1.1663506268601211 8.84822622148118 0.8575914594469102 1.8036586924387261 -1.2467865440596075
Ni 8.713352928677415 0.5236786537283321 9.491390496836235 0.14467186112049923 0.05907058090991117 -0.5209864902261028
Ni 8.522028059024823 5.5095625332010645 2.320982801360805 -0.33453445984502383 -0.35724784228213957 0.8363055534849403
Ni 2.6815812731036117 9.070991133680693 6.607485916769978 2.7319781145288173 -0.2783167750028755 2.050182491300721
Ni 6.741617990496016 1.9238414915546365 10.410799931528794 1.6340990669376114 -0.5936720908162872 -0.5919047145032194
Ni 7.593558972744177 4.477792952319286 4.345805251198712 -0.07060917767713001 -0.6196433180690682 -0.4075108522027498
Ni 1.127067859569142 3.6737638549834037 2.13283484830255 0.729907391133659 -0.2095482500789101 -0.6868336998726365
Ni 0.13787596759997992 7.283473106085624 9.081373732254526 -0.2876462799339175 0.5947534968059242 -0.19422704634080742
Ni 3.7185320122152734 4.846226773491945 11.806840890628086 -0.0969177336646718 -0.3442324038590781 1.534640312018641
Ni 7.512992884183776 4.208538668935022 6.672185860644207 0.3662297340657757 -0.05993575712368387 0.6720303163112168
Ni 6.53565312214404 9.086184280945545 8.807098703724366 -1.246443301787576 -0.020348738859681085 0.1531734708336072
Ni 6.604658405686161 4.116983362207325 9.35639090177669 0.7917318806396235 0.3609049794187526 -0.27381220226430264
P 5.981416697830708 5.001163686679507 11.41312449235644 1.198821843254871 0.9865736777462946 0.5454127415892671
Ni 5.011867111421312 6.823723675896969 10.67853121252947 -0.08945484962872337 1.457201255903871 2.7594981743259575
P 2.2518124951633185 3.647129751556124 9.437957267326311 -0.7286195255601708 -0.2575317199367242 0.9153500064136171
Ni 0.4373515228585827 3.8921376894873774 5.495111526928215 0.20010690216035212 -0.5571559981681242 -0.5411958752944421
P 3.5858869862160683 8.69771726256019 11.801632996884207 0.03971145965700903 -0.4104419098066157 -0.032971055609381926
P 5.455261782357631 7.508567695660032 4.932095712966633 -1.5175854134188833 1.405994651123069 -1.1802924169921156
P 6.543959569768815 1.8244222560545371 13.364746948697427 -1.025244354843615 -2.205163704767028 0.4738046903339776
Ni 2.452218220432343 6.471653833119402 11.097398354158665 -0.5562481416418743 2.031200036660947 0.17635170872228337
Ni 7.525706082046779 6.286588761399354 10.193694651068293 -0.660739573888746 0.15185758023566104 -0.8540744474325871
Ni 8.387806559614035 4.812134383573606 11.784523189840009 -0.5624727823953475 0.011617015413638057 -0.057327372966559334
Ni 9.078348009601417 2.4722514176450385 7.663824513101289 0.4555771115823573 -0.3398946957156727 0.1097904758622819
Ni 2.019029140528906 5.573875273079467 5.871003634591934 -0.5948036333175691 0.7489888332451423 -0.834765205581014
Ni 2.492708695424594 2.996276711141064 4.748697462257194 0.8992798403246319 0.632895040872652 -0.37942489259981105
Ni 1.0787503323755199 1.9476360990125143 0.34348682087005705 -0.05100245918979603 0.5096792927433996 -1.1051213309759162
Ni 8.051409259524725 7.7748718533618 6.666559417819124 -0.5825530980849903 1.1750121424297828 0.09618908302876338
Ni 3.2907084733968754 1.6746757202396159 12.065221195129526 -1.3792173830292247 0.7583026544469005 1.3130253605831839
Ni 8.693319731464719 3.340445748575198 9.736709119878428 0.5770792194546126 -1.0740613763463178 0.9454686801758685
Ni 5.1254008544836 1.9452575601810023 3.076046265767192 0.29570925944771004 0.7288342126741384 -1.0961309545518476
Ni 3.4092113344056174 7.756516540131023 9.023421278964728 -0.011107165656755064 0.823830046725749 -0.37216615415486876
Ni 2.3305531934576758 3.293898296791074 7.268380447476831 -0.7864706322406841 -0.914523910967896 -0.9087111609408608
Ni 3.37385592192946 7.241037391971477 13.43411454454993 2.6037008927162577 0.24481915746606223 -1.8588409940378248
Ni 5.6063727513007064 8.472115620134101 12.561067256872064 -0.9605091194487587 0.4981018723184454 1.534680935448589
Ni 6.564988434399353 6.92242381826196 3.116094221907068 1.9315769882499703 0.02231563277806479 1.3444720091282394
Ni 2.2678722418474035 6.149454012877102 1.4004541627374505 -1.8699661574167086 -2.428081948394941 1.5421278786449377
Ni 0.026363982544476416 7.683639216630626 11.478998033103737 0.6625138921803493 -0.25598160184078494 0.46011202333823337
Ni 3.648042446689146 0.9045232848815403 4.549619293545294 -2.5267719434686873 -1.4752429438969303 -1.9499302939461771
Ni 6.612467019602016 2.4216291047619674 7.72763296587084 -1.0095243730051968 -1.6662023752300594 0.0020561111980803297
Ni 1.9805853152288861 8.88762238422808 10.440795334405568 -0.8222688728862162 -1.033911800710626 0.7997292970228033
Ni 3.976391435150898 5.114854155168678 4.85461895914437 1.1753839239469048 -0.9755148488289717 -0.3534760339445332
Ni 8.841840121292853 6.227355769180499 5.182110567329646 -0.1254340959368098 -0.8502018518510583 -0.6300886817721084
Ni 1.790975206129244 8.76027836531461 13.068652975002383 -1.7328667093268286 1.510352900226186 -0.31057717769847804
Ni 8.184874789229372 2.117867570035264 5.435552177055734 -2.6501676688192295 -0.5192468818271767 0.8614159753993229
P 3.624349249801604 2.965982608038938 0.8432215170278349 -0.5906669854413763 -1.0617182813999326 -1.2192019495731197
Ni 4.10314542892787 6.584219566192122 6.760094074496919 -0.4285820710507522 1.3020500925186027 -2.315001746037794
P 4.104897066051851 0.6312383922835675 8.268843663381679 -0.4245636939199785 -0.0034002839308005955 1.4987083740087221
Ni 0.7994103068142249 5.1864592369685 10.197067935403371 0.26477863130712465 0.5849190272140055 -1.4380236545341558
P 1.4135158441966995 5.715177074128244 12.9580499974228 -0.5092362916687101 -0.13986518376047527 -1.081537887229021
P 1.823380492922906 5.1568289121449356 3.3697377308595513 0.4724954846042507 0.9034967066194569 2.328898044403912
P 7.759282282958362 6.076281676808454 7.928370580279146 -1.0778776647686146 -0.7737225885463965 0.8869688841677629
Ni 6.5074148878769025 3.8842645415722172 0.1426265918630735 -0.32689648368379187 0.8368033190569654 -0.30955490708155076
Ni 1.4805758886169258 3.5499507677461697 11.747323026898014 0.14257821181626412 0.2453228365753581 0.31757597761381434
Ni 5.872335800720435 0.6266472591901838 5.087901991316254 1.9961656707646334 0.16644267713868754 -1.058055744946681
Ni 4.187841693443764 2.778354614632223 8.865699262750036 0.1902919729524594 -2.1983050299739815 0.0622104120904735
Ni 0.6877259237891505 1.375339374036656 11.290795687103211 -0.13452577382543285 -0.11055177950833862 0.7592817305307181
Ni 6.32931948808175 6.0032752853094475 6.0208045633491265 0.32035765412400957 -0.051148240739040944 0.057849821128932624
Ni 7.090221435596651 8.551584630706325 10.936857124088638 0.8588284171778048 0.7311561759390955 -0.777752792751712
Ni 5.1904787832109 3.1023613868550517 11.594661398143076 0.1985814666547612 -1.7870794479238064 0.3786705309322898
Ni 8.455585697169369 9.144006744322457 4.247615849342503 0.32512602204693036 -0.6540750173843767 -0.1432793516483468
Ni 3.146687025234547 7.408125135313817 4.569022823307632 -0.049691196577540224 1.284243403354485 0.04939269150051493
Ni 8.210089144671953 2.5581461707194477 12.37698033619862 1.0012176529117143 0.4029093488749964 -0.7074364637246525
Ni 8.064463565669767 2.4929483931362966 1.6351670839510704 -0.052072038104890965 -0.410410542348048 -0.6643702286627977
Ni 7.285694919490252 6.848117527634104 12.566680792897289 0.19048172036576227 -0.3205656563697576 -0.7509618978111131
Ni -0.21618981958465097 4.3658449018113386 0.4289528838062282 0.6540868444589187 0.4038670848025754 -1.0278866775624684
Ni 4.470758746395085 0.8418773660137479 0.6157447009648113 0.4498857176245349 0.4407066222284281 0.3482453816732132
Ni 4.985260665422305 4.300951355939194 7.197663169124587 0.029742007149122975 -0.025851928066097412 -0.1712275001218406
Ni 4.376280971413166 6.353823969531979 2.889678529175467 -0.5457125322178731 -0.21016582905825096 -0.7129242263121012
Ni 5.337183001915748 6.696176835842827 8.558946116198426 3.365611319119075 -0.38225747695259976 -1.5811428264555545
Ni 2.6437274729400912 8.334648982472567 2.010141886910388 0.5081289175371443 -0.2724448896031308 0.1485593691003635
Ni 0.39800145582547125 2.2658624687262034 3.6926557223226846 0.012627458956023414 -1.633272457271258 -0.5266105212810994
Ni 8.211029497233248 0.216993728833131 12.942465036590741 0.12593931770800246 0.11298404309891509 -0.26332930045510783
Ni 8.997957084753413 7.46179898444972 0.6635487219068239 0.025984854099535895 -2.430460990150079 -0.7617957552018235
Ni 1.0450543655957663 7.999081405231459 5.738028563282 -1.2795218295090995 -0.7554829256099183 -1.1594675098269644
Ni 4.546475565864885 4.82033020148529 9.587595939170967 -1.4061010947939463 0.4680513327899681 1.4258363684393442
Ni 0.40069805508212736 5.030904641216165 7.444492809664781 0.1565146193916982 0.7056703729631653 2.008688485821992
P 1.5439667142195486 -0.05830831220024827 3.777729971691649 -0.07313400098151275 0.4563458714275818 0.31760194575574335
Ni 6.624129235190631 6.017869188295043 0.9773803262678705 0.9980806499446294 0.9785590349719341 0.9530961148141391
P 7.314928821175232 1.6465665539710883 3.407262407626619 -0.5515201400385856 -0.42475858353960394 0.8067206407389719
Ni 4.903523745731664 8.772622797467303 2.8815961067197056 -0.2523488901842041 1.3635277402081099 2.4169585847882695
P 1.7406294675289065 7.3008235327558 7.755672066654409 0.6447452553430187 -0.5553240871657081 -1.555722843720553
P 5.149499693652485 7.711941984897067 1.2293791401523624 0.5645337786894342 -1.4458665476173422 -2.185352840688688
P 7.814329784365178 0.5851611167800904 7.290819840949313 0.7698993581455644 1.421614874158829 -0.4366381085860093
Ni 4.149259581002378 1.7422796940825522 6.440549367368865 0.5248002075452382 1.9586501903176783 1.7781165823035636
