# total energy = -340884.5741718411 ev
CRYSTAL
PRIMVEC
9.09368845347536 0.00000000000000 0.00000000000000
0.00000000000000 9.09368845347536 0.00000000000000
0.00000000000000 0.00000000000000 13.30953225577952
PRIMCOORD
 96 1
Ni 6.629007991587359 2.195061835407496 11.373927379356424 0.7036055200143366 0.5494827978935827 0.505131268361401
Ni 4.6169293581952076 0.8057017193559103 6.16376397036942 1.073545613052164 -1.6738483218110913 -0.022411277815664626
Ni 2.77450257933035 1.8559763748793119 4.869119167934314 -0.46332384540731175 -0.6229250741441337 -0.3636617162282833
Ni 3.395192294744189 4.5700332060834326 4.475449750951657 0.5573480595742724 0.412305959598548 1.2808220363777618
Ni 3.7954964669296283 2.8557274059082767 2.9101294885907434 -0.2490311386648808 -0.5913609261846073 -1.002830248814473
Ni 5.343433234162198 4.493909938810277 3.168933138048853 1.869599775216225 1.2884412434859165 -0.24150654815306147
Ni 5.315288267944253 3.3518063064321324 1.0446383873289322 0.7020554019183973 -0.14111885366191826 -0.05635960973665133
Ni 5.6065591138120325 7.772857612176763 12.568909901576482 0.23713901521298517 1.6382547409771977 0.6451234646180437
Ni 2.2658380137836724 5.676380454885177 11.396659782119468 -0.35173256889086524 -0.2732195629856262 -0.008278180848392195
Ni 0.6342347645839935 0.22208060678349603 13.332025877217164 0.2932407433025595 1.1436559967160047 -0.29887891542494327
Ni 8.02829932495934 -0.04900315976046521 7.463865895333568 -0.3579294417301965 -0.7368223730859375 -1.7318668073074044
Ni 8.738452748822981 2.8237449031010033 1.6268645280700595 0.28364590052527283 0.8885346859929859 -0.7324934066932804
Ni 0.45945043221068543 0.4491827484120807 5.077799315196399 1.773433060784965 -0.9606086211411006 -0.7929554686340795
Ni 1.6033900803172316 6.95248868247742 0.22827977430232418 3.330057333273865 1.5304203604000224 0.3587671071401434
Ni 7.927695847974161 4.415431406189642 4.075086469790315 -1.3145142864238846 -1.8989530315673617 -2.4491770785023435
Ni 7.701162971251955 4.186997948549973 12.526319611016955 0.8417712045852019 -0.09003746160507074 0.814874637304674
Ni 8.336129777768274 7.231237519142579 9.14203792385541 -0.2627186634543024 0.2245462661496391 0.504689295727976
Ni 6.809945113667634 1.4365754566332312 0.413064436029388 0.33488284432337806 -0.7552726093713251 0.42520466993808703
Ni 1.767312911026335 6.902918985917156 9.289814001085812 1.0373560505054842 -0.24442937822681127 -0.8143935839031974
Ni 0.5527080275445364 5.465470535178296 1.6507945696217632 -2.6096884777582603 -1.484395814040792 0.5353746406269747
Ni 6.808408280294183 2.242776419493298 7.324568773354092 0.6053996636658605 -0.6759239949386681 -1.9986938365031255
Ni 3.2966167103168793 4.1245334015544755 -0.009180078642008208 0.2092705709374912 0.30128032577758435 -0.6696337910545822
Ni 6.449807764029742 6.157391113398326 5.0508347097587745 -1.6456983417394369 -0.302329335867389 -1.4326366791906293
Ni 5.469399008653628 3.7670332216106726 8.377338737029417 -1.5536801022589113 0.5921726234526253 0.4852070186336483
P 0.25070390102181705 5.733570662492496 12.668731321342035 -1.8958589660230702 -0.2203970198679559 -1.6694193395054604
P 3.942050352412149 6.100128156282203 12.603182195173314 0.5609285778366792 1.8103376471207981 0.7493349037306514
P 2.312170357202228 8.777873888905305 1.31562030456057 1.136476705358746 0.4113664785034141 -0.5071629540794491
P 6.352805387730286 8.286087209400794 6.046840050453274 -0.2735481499696386 -0.06966378304472519 0.2715971968908548
P 4.886675443146063 1.9704295396027545 12.675666168268627 -1.379763999561314 -0.731528985897482 0.211171644614946
P 4.25603723240349 6.507507218198681 7.935009901715387 -0.2708610900557787 0.86816434986675 0.5562946786090937
P 4.981458959427045 1.3145017808627326 3.8249600179946177 -0.5207075255331033 -1.260329829961681 0.5218897187666625
P 0.2314762058453315 6.0084910562569265 3.861521193012145 1.119839353912381 1.5541570418953299 -1.2513595081422708
Ni 1.1748045365848423 8.011685155886582 2.9903721967998376 -1.7908566555780514 -1.0393882504441647 -0.4047289185822385
Ni 2.2648104269718377 6.695419199435389 4.646331072177714 -1.2620527261900587 0.3860927915382899 0.5686850818536463
Ni 5.897529867956002 6.109840215707329 9.277623002148243 0.6704388034543808 -0.34391410128771094 0.08987959587096779
Ni 8.949198982135057 2.7837235795710598 10.454331757125988 -1.0818225083489754 -0.6555698567623485 -2.3966018755087886
Ni 2.427432860211098 5.539284005546974 7.107516976366565 0.07768459646667267 1.1463494843877675 -0.49942701888777213
Ni 0.7038705944096915 0.15015225806166116 9.242538642159406 -0.26641102470422506 -0.6047561165445907 0.685247072111807
Ni 1.6856424937069932 1.4196793832138639 11.306567699787381 0.09538098530517121 0.017372172729860403 0.14440858015678357
Ni 4.486080272925414 7.090403563789651 1.3626564994767891 -0.9039700467114495 0.37851215097755453 0.26996300372154153
Ni 5.6911486051720725 8.486712167300729 8.39438849378613 -1.04668864076032 -0.4262284832169111 -1.3509298489384411
Ni 7.370725608582662 0.8633529769752659 4.974477734688592 -2.5566612748289517 0.7603276552967293 0.5691525084083682
Ni 0.875570347609776 7.742712034466751 6.990964988314173 0.11238857560676128 -1.1659209787617921 -0.45512536875691945
Ni 4.845835687642092 5.04893412884131 6.436170868604726 -0.00864893392424962 -1.1108034689623578 0.2188381600212683
Ni 0.5995396144672487 7.672008605599378 11.176773482395223 0.4148451810806339 -0.2659592818787871 1.2357364568930331
Ni 4.770821850378174 0.8438315556569905 10.507756268283922 -0.1744722323113834 -0.5382666174627891 -0.14854805624645384
Ni 8.145871624872687 7.6486287322079916 4.864221307254189 1.6351930713327387 0.17682736280712127 -0.270687797702708
Ni 7.244796208845633 6.628798836749552 7.187679660115976 -0.001282466256849404 -0.35413346502287396 0.1309588824097809
Ni 2.581680006249476 5.6739888147832955 2.4572856211481797 1.8993381828209221 0.009671461651493022 -0.10732247393776356
Ni 3.6833258180448625 4.998809717276428 9.467509223180079 -0.9802945296058019 0.3951947538395581 -0.3936472068467801
Ni 1.3868966358097632 3.5223857171966593 3.6846907807037685 -1.6028773899191686 0.8646673924570851 0.44168158454718776
Ni 1.6029990517074184 1.4815164656959399 2.457644821847892 -0.3049572604085393 -0.779617870984909 0.8850865795433853
Ni 1.490701091182248 3.675441590028398 8.13050056303159 -1.2748923011568882 -1.9334538935577088 0.5960292781945542
Ni 5.372551225060376 2.9410716734221425 5.266848007508147 0.27985018092826647 0.23548965253502024 -0.4384211686283611
Ni 4.201884316788672 7.193153151284499 5.763559828758583 0.7604433549389871 1.920309385755951 0.15944927653998991
Ni 8.435942103845225 7.565539699467003 0.585193411331407 -1.3097978547848215 -1.4456369481050393 -0.5906592721318924
P 0.378839429613279 5.515658602563381 8.017662437403562 0.28718579535773125 3.0162508500048117 0.7536939520302957
P 8.729104436941867 1.7728418736953206 8.277438202173043 0.8914549449635745 2.035536716363088 0.05034965609714555
P 2.079490146986216 3.6103307796502118 10.255327294534629 0.34300393076861574 -0.6599726138157344 0.85234486633599
P 4.4824337037966915 6.519847353629295 3.553858064073456 -0.5636830006533647 -0.2715406326213065 0.47662853293601787
P 6.640229603320137 4.151641687271986 10.266547087529686 0.5110558613759522 0.3162287195573006 0.6530059526899141
P 6.39041688378115 8.004073738528126 10.397739914228568 1.2470318273011942 1.7388373250879667 0.12564184107224166
P 2.5123133496063477 8.86680106972769 5.66725221026819 0.5758600023355308 -1.356324023370819 -0.1650393690332577
P 7.275260065656657 4.5519549531460255 1.7869643720915946 -0.42355273615696093 -1.4308063108501101 -0.3593880285535939
Ni 2.471373563527773 1.790838283435325 0.2968689205701269 0.6355018823678797 0.9265934405379204 -0.29967672873589035
Ni 1.4334290403775254 1.0189659950414103 7.067614780157285 -0.47859799795756286 1.7504898217252305 0.7758576326115284
Ni 7.057384380481942 0.9770986527256047 9.407523615697023 0.18829422579614025 0.08889332069829851 0.9173891483308328
Ni 2.7275154903325727 1.56253213743606 9.034736945216109 0.516444122271059 1.0067349831855177 1.5673262322874362
Ni 6.714024886311614 2.0121968513439565 2.8641718051425205 -0.12183480862132565 1.0689423099521977 -0.3728582951258869
Ni 4.306516297823785 7.54878912506524 10.654427462349387 -0.8698875032054437 -2.341757159754767 -0.6618027250459376
Ni 7.108700065253465 6.362290104940405 11.500235076539225 1.959712827254238 -0.6860659684686765 -0.48039005686097913
Ni 7.708901700250816 4.370781395162143 8.306612573940543 1.032966406078221 -0.3526591944701926 -0.06705771288044582
Ni 3.45688387820866 8.990911731744657 12.520809745094029 -0.7224601908269945 -0.21659590095431083 -0.3682133401547078
Ni 0.037111343177845965 5.319444083634593 10.349426056064008 -0.14083294699038326 -0.6840232270070349 -0.1401138094361716
Ni 8.954737038492643 2.8194617757702596 5.732215702891051 0.1649169845227805 -0.21543736186983542 0.7166155591207595
Ni 4.549508750912543 3.2352979680850202 10.784714557663682 -1.7195741059829803 -0.9758552628875259 -1.1117928294588206
Ni 0.9409967089823926 3.665556750519866 12.260728432387577 2.148503275960506 0.8158915086049625 1.2504531942779176
Ni 3.155009791432925 8.599301125861109 7.951966902848376 0.5862901965299193 -1.3038436940839158 -0.4362611848625648
Ni 5.9821375466932425 8.229951869671108 3.555268495175363 -1.3833841128124045 1.543724533708096 0.30187013684278335
Ni 3.286995587777756 8.87724062424084 3.353802371079899 1.4016152911084505 -0.2587596788065543 1.237445983384972
Ni 3.4084781737892347 2.5532440419963214 7.001000783053469 0.5243860028259549 1.8157832436164016 0.683825509173932
Ni 5.4757464032966405 4.687105353123763 12.16641687854495 -1.0270204729074313 -0.9020964838378206 -1.5087801564224272
Ni 8.355708489324732 9.364680520594407 2.217634189251174 -0.3955958459327187 -0.20467266715416366 0.27043377271037294
Ni 4.497938442860212 0.5316788726563304 1.3065511689194855 1.0285132554028737 0.7565964703890711 0.46937030871170776
Ni 6.272717272227397 5.89805730189482 0.3939740555507671 1.5004284420236225 0.31210801252070763 2.718633832011428
Ni 8.03365550754492 9.232458288345967 11.557159748439416 -0.6810895983000077 0.08111136276003451 0.2055044190268396
Ni -0.09881383906863753 5.270219947241141 5.83465974244893 1.1438161764429526 0.9588998659801099 2.5699214822729677
Ni 7.203792766946857 6.51851058140505 2.6659130250163843 1.2146968626139143 -0.6957227748321502 -0.15435257874337288
P 8.850141432211931 1.888649998020209 3.6884710270549155 -0.38690166059283043 0.6414976949399984 -0.6277839448983317
P 2.122985259561476 3.584841170503556 1.6649825425759595 -0.8184518131329711 -0.07563748412965683 -0.9510248341074072
P 4.931589171142972 1.702556754503561 8.393603708459924 -0.17584160185508427 -1.255721384655392 0.527808912464575
P 8.666048800187351 2.0964498762257855 12.61106187634548 -0.5861793819836679 -1.464661311726342 -0.18068016089430816
P 6.5270677423779375 8.243428716176762 1.3384200006192557 -0.47829820732895684 0.7168469584052751 -0.197105396329867
P 1.941311548704577 3.7979153880973096 5.874375518041904 -0.19343848900124105 -0.49383641217387214 -0.23628180941901245
P 6.944895452496165 4.307116481271406 6.10926185711235 -0.06390348352218027 -0.7858515105994466 0.7789609541272005
P 2.652774463726663 8.76046856892432 10.388688965964686 -1.5715672669519773 0.9337549912833661 -0.3452595595720118
