# total energy = -340858.17917874415 ev
CRYSTAL
PRIMVEC
9.38399393829393 0.00000000000000 0.00000000000000
0.00000000000000 9.38399393829393 0.00000000000000
0.00000000000000 0.00000000000000 13.73442367733365
PRIMCOORD
 96 1
Ni 0.7848575207660594 5.582941321782609 11.872035671363175 0.6918234397777441 -1.2026324752502124 -0.9473738676183814
Ni 7.88728418138136 0.7513510331133649 13.381077563685844 0.31781303332528493 2.0676536515022903 -0.3513029375526143
Ni 5.348200721146259 0.8232577610964216 13.439970569303819 -0.1748931218988859 -0.53133440911933 -0.023323248106972738
Ni 4.906571212965252 2.9205897212333336 7.347271007192292 0.04258055367468796 -0.5277909147424458 2.061456521552643
Ni 4.3786089633949015 6.963176640751104 6.332763702333765 -1.0625086385117122 0.9673688226830693 -0.9159968959689967
Ni 1.5083643679826353 2.503396132462962 1.6016393878589172 -0.903399261809644 -1.3044867269845533 0.31418983475040085
Ni 3.963695685076444 0.7020738057673086 6.164585645308599 -0.035181175886823284 0.01816741493764613 -0.33806921247115973
Ni 8.899732638037623 2.5617364208561737 7.289146550652554 0.015200618999838336 2.394351646022031 1.756693122322465
Ni 7.696911102624228 4.773083903588795 10.787483422857639 0.04834188163849739 -0.41497013669427246 1.2857631824331213
Ni 1.7858772115812276 1.8461036826939234 6.772059411299172 2.932971533059181 -0.0521334874704457 1.7223357278885176
Ni 8.968536079327478 4.292069774145714 0.244389222885972 -1.5123362492048018 -0.03192255974020954 0.17569479186457482
Ni 1.4178557494282642 6.151611335716761 7.4645493443729 -0.9260357682622373 -2.3060820749506608 2.4227078285672206
Ni 6.68853529920307 9.330429793640523 7.3196783123247675 0.7862209781237234 -0.19757719375996297 0.2603470778983323
Ni 3.3836616548572382 5.852487154789945 13.424794774806553 -1.2795159159718286 0.044633836659290875 -0.10602380973099805
Ni 9.048684768915129 3.2713540191020574 9.561438380010511 -2.03656464340697 -1.445564185885575 0.2836181326111309
Ni 3.2444407253732925 5.251010699127844 5.277768218562362 0.4528298878545233 -1.3682143470505017 -0.5150755240583065
Ni 6.522035100238819 0.7908848598741437 2.0610149663922495 -0.19372773810688573 1.0627909456388214 -0.4616210037835921
Ni 4.985903495107155 4.456505494511525 3.5182787970666602 -1.9936881557584183 -2.014491979877647 -0.8759257389797238
Ni 8.841626949485144 6.256561920466589 4.572986192233644 -0.1408519731537768 0.41499687616714975 -1.6052458901513451
Ni 5.294439821644135 7.244846593527466 13.58419598259026 -0.5663271231444311 0.04808939930805912 -0.28144657888110886
Ni 4.490109575697964 8.544473407220476 7.780770223292895 1.8396271401135351 2.348157406854156 0.33424778184254045
Ni 7.061248758170672 3.9240764639736385 7.077993556402753 -0.5110849148416746 0.6454769913027205 -0.6712736406508503
Ni 1.3594028531115012 1.0454238102695412 12.29600356513452 0.6267745297972109 0.3029296884555493 0.523698232730311
Ni 2.954447170247763 2.281971418786555 13.537814655678195 -0.10121481837812892 -1.9461466585340292 -2.927995420000828
P 9.107222121174555 8.026261127030944 2.8823339944048625 -0.31062911398233595 1.1487786626545506 0.7217238268816022
P 0.30319308056446986 9.184893436444076 11.109335636354562 -1.2206733919123236 -1.6047368117254104 -1.8529066308312605
P 2.0089722761236453 6.88723198030937 5.7217193267672535 -0.6529367900148755 1.1986189832154455 -2.654406903711558
P 3.553493171559883 6.35550674929368 11.076963673531647 0.012930849129055148 -0.7476428607402091 -0.2224834700833394
P 7.123427099958258 5.799054695064846 13.592478295367457 -0.2597932622773913 0.8166011330774775 -1.7609048464109673
P 5.51809792580431 3.326456829693169 11.571292751535307 -0.2571139156730152 -0.31999692835048116 -1.8402259500397982
P 8.49591124018897 1.691399163721672 1.3840311443915372 0.7606004493421417 0.2648264538259245 0.048314113724355505
P 5.74972304055574 3.195024614921523 5.36226263559973 1.212178467067435 -0.840527819096404 -1.1530112126786596
Ni 6.876909587317166 1.6648143097699322 10.959712549932563 0.46353698985938235 1.329467565299607 0.9882857753413946
Ni 6.3603301220191275 6.63200612158031 11.355002959172841 -0.5825001333598677 -0.4859927477597372 0.06346716731571005
Ni 3.1628750527476224 7.342252447399355 8.807102298523672 -1.6941600367852498 -2.5588163734987415 2.1275891515156586
Ni 1.821442547436185 6.030173074160295 3.6822265497637483 -0.9370979396136699 0.40291012020594485 -1.486670983228214
Ni 7.052033676426723 5.173705359609864 3.4764027254960137 -0.35294664380362445 1.8291362678845402 -2.2280197834295947
Ni 9.257328483268461 7.620966442182494 6.344520907951885 -0.07616764560151398 -1.0360566149677706 0.08619134838610318
Ni 3.1643014197792723 8.633518122768681 13.565077972369334 0.9387498733947962 1.1906094826474076 0.6730142774910409
Ni 8.57050460554809 7.045380424943565 10.649987271402756 0.7292787564107247 0.5327649709182696 0.23569559789823924
Ni 4.532853666679318 8.173542907042437 11.374904532861812 0.30867918934481675 0.9818909275586445 0.16989695423587511
Ni 2.010792770887725 8.665517541044514 6.8865638399629665 0.4547656714246555 0.42647942288545265 0.40425892092435545
Ni 3.1730379178481285 8.176142273277748 4.623061997437552 0.9772680840746523 0.6346842715625908 -1.0138281425868734
Ni 5.387669798350997 6.495637926159665 2.377154204567669 -0.6267850713201721 0.3596595370474258 -1.229402030034573
Ni 9.19040184070446 0.23347657669448646 7.267446065384852 -0.7764448725735661 1.055058095770938 0.2440066888670959
Ni 6.783679610610305 6.771011219210782 6.788980628611483 2.1040995530341506 1.6922216821119564 -0.3489570630282571
Ni 0.9962798356330205 1.3174564015886356 9.158291691303804 -1.0610379675034565 0.24055138332864381 0.26126984682291776
Ni 6.227743676031081 3.526373429971274 9.345148587648044 0.968379266225455 -0.38268942228369573 0.3776220350631174
Ni 8.211116417534061 0.02329857938276753 4.87937358422952 1.6910873113971974 -0.6536680117539452 -0.2377681641565518
Ni 3.924601967616878 3.3150646614272277 1.3052384418833176 1.995977723123543 1.780505137140398 2.6199314956425073
Ni 0.5428255570797617 9.266768780859513 0.6974343593169944 0.2591864819313278 -0.6339450794037211 0.7938962352807941
Ni 1.219327980207292 0.046599973963623836 4.0572587935571445 0.27260866887450474 0.3078168413445215 -0.047856457361646614
Ni 8.009782834217935 9.327548907596336 9.545932268937495 -0.048748887268928946 -0.3860681089479416 0.27499850926291997
Ni 1.683788744888329 3.6270073776516347 10.716970217928528 -0.8423959826533944 -0.056077559719858255 4.446432639897046
Ni 8.109506534516255 3.7232496163134936 4.535229693866251 0.5134863251943156 -1.6648031808896875 2.0261205652555105
Ni 2.4930925074580164 9.256849899593368 10.162209159351692 -0.39215313879975683 -1.6181417722774067 1.3234696958449592
P 4.890365055967492 8.689887772499743 1.6232985835546503 1.533139044882766 0.6580106049933571 -0.7849056017464096
P 0.1925379660874051 1.7615726680814014 5.6376781566221785 -1.9812293611697749 -2.703542227785628 -5.217679256099124
P 3.442593134849094 5.327105503467646 2.272291829357957 0.4100960964314228 0.6243368668899957 0.38274161567786985
P 1.4990272943215053 7.02534559854506 0.4913158776493004 0.6823314411269088 0.7585790480367388 -0.7720696263240058
P 6.000829326081548 8.06847033037543 5.214369957602971 -0.17828029320356392 0.5651904384368266 0.4341256265768007
P 6.169422155625129 7.608851706407099 8.844322970854835 0.7195872401545736 -0.31674216885860934 0.8473687532776374
P 6.145070692157156 4.38393907177633 1.2709784195421925 -1.353495038562456 1.1150848699465312 3.853322592231815
P 3.0192717982388046 0.6755058430041012 8.356572072385298 1.0784991004026974 0.33399015730577963 -2.038812301790566
Ni 6.568072972984049 3.3100536088291936 13.403080213548407 1.3184894690215485 -1.900176876672134 -1.630439101587521
Ni 3.9669050108976562 1.1637935059092341 11.30760534575073 0.5518232731013012 1.4652015005005283 1.5990767852261558
Ni 2.0416004219726394 7.735291636567969 11.927770024725534 -1.7048116029618252 -0.9798080768876868 -0.7362467030881256
Ni 1.8149675918319843 3.7974582379338115 8.593697145802846 -0.5082960392426278 -0.17987591982545795 -2.972778123533158
Ni 7.031238746544246 8.848223897006525 11.821863211024885 -0.4675150006705238 -0.9746303893414893 -1.152898598360195
Ni 6.216792555465715 0.8821685963022932 5.224863139279227 -1.4275731486247931 1.0945690093813665 -0.7597201036197174
Ni 5.647822253735426 5.362145335679364 5.462702334611965 0.8809877268836633 -0.8798584983752267 -0.18702744326857465
Ni 1.5907276800667947 4.745541882286868 1.2554666780729984 0.9345813438394034 2.2630896305495347 1.0278344841682943
Ni 4.235465524573918 4.5293909730301145 9.918327610521063 -1.2922536752534712 -0.14146415281647895 1.0811663628222155
Ni 5.260910812406729 5.568912251306841 7.972475829145383 -0.8802909579269549 -0.962151283037872 1.0746195628426332
Ni 3.118366770963964 7.691477770312877 2.047184836581422 -1.3100151130019504 -1.6812546415774916 0.588834817328644
Ni 0.9373830764175928 3.7896132192597363 5.3001546737643634 1.3619051170030223 0.7685847530991989 0.08862052665288608
Ni 9.315237107954726 1.9918089517756987 3.3634504093785025 -0.0060973711469894986 0.0022533148105509577 0.4905824240129486
Ni 8.201047392369848 6.360264434063723 1.710183103769395 0.42042550338188883 -0.3118174778634823 0.8264749405477637
Ni 8.945301311101389 2.6400646156797443 12.180180685365814 0.20392807567865526 0.4862966521534012 -0.3016888740699127
Ni 0.38487042271432903 7.8783600034399175 8.716579603978857 0.7814572381864928 -0.016061424338236856 0.8497064002718785
Ni 4.709028763075354 1.9390427555982774 3.6303377569906647 -0.5159977787622597 -0.13044234778467856 -0.3531011671036177
Ni 6.750920088850501 8.285944382733911 3.2173022157974254 0.8568021307763954 -0.9701510134138969 0.007825666692005878
Ni 7.284644110509227 8.097992374333133 0.4127981261544186 -0.4006550056231809 0.947441230521207 1.5667109673009405
Ni 5.4514434190555585 0.5250091067752174 9.581037789104618 -0.04311585735286768 -0.5993462583829291 -0.8781119479977652
Ni 3.6236009879642075 2.9404368677592534 5.54984679145024 -2.4485587281920544 0.48621617662445293 -1.7618805800606752
Ni 3.2136330742883783 0.7169483740690747 1.8121336257559428 0.01595652332925639 1.1757935006804978 0.7117494892777096
Ni 7.985543978673514 5.653030370199675 8.507252734889315 -0.35250184295672193 0.35772683880108713 0.22967998783177862
Ni 9.009994563181621 7.025946174137335 13.148966358064417 0.1000069141129568 0.509079968596504 0.05475961223938312
P 0.006419590041788008 4.852359881768922 2.9251024837696527 -0.18414317974224415 -0.9732008559838142 -0.15097852006481738
P 2.284467561091943 2.281718050958565 3.7145844365962195 0.49092978005003846 -1.0367220164659114 -0.4003696131722782
P 0.4213666507373109 5.2131556688273415 9.525357862905306 0.17927531012698159 1.9566131052829916 1.6420473752504108
P 3.1592528312067216 4.674777186328495 7.350485025010319 2.731717147557947 0.2594618470799015 -0.5204982377357745
P 1.5169601061470526 3.776869755911179 13.05547550633466 -0.40229408388850074 -0.4527129026606848 -1.2393267453474526
P 7.355784166212772 1.772664548551206 8.498586616772679 -1.2117403510887519 0.045178396308851225 0.7530018110592774
P 3.040770527643477 2.432575132542813 9.768580655383158 1.868427609284995 -0.8473422709150762 -0.12398656485700583
P 8.763730418368521 5.132500243583712 6.380092812602384 -0.33958462067442163 0.009915202231182923 0.9424476339613576
