# total energy = -381164.29471345374 ev
CRYSTAL
PRIMVEC
9.25330139842438 0.00000000000000 0.00000000000000
0.00000000000000 9.25330139842438 0.00000000000000
0.00000000000000 0.00000000000000 13.54314193463853
PRIMCOORD
 96 1
Ni 6.610946977777581 8.090827430152958 4.432210030975296 -2.007496779506736 1.7088708606328633 -0.964025103021817
Ni 3.002566675854913 3.9521034263141863 2.1831683527213905 0.3079973327864438 -1.6449941165835607 -1.8467334121410133
Ni 7.8129970632263595 2.297261555858941 2.4892564506894677 -1.4876204916256766 0.9961559221180909 0.30159528591484186
Ni 8.811122898006417 1.2908540165526774 11.51237432862467 -0.4751774023117881 -0.6165132570805189 -0.14929907547986546
Ni 2.4617112238362755 8.809272237777098 3.776464666590386 0.2610975829111116 -0.34088919841845805 0.9798157901971706
Ni 2.584715355977999 1.1157167857510222 1.954966215834341 0.2504025650911107 0.2051195248835951 -0.7580745975964944
Ni 3.634141492314795 4.512677663076224 12.379880564419352 -1.1407722474103064 0.6107377880493224 -0.2678989221036612
Ni 1.2466695035776734 7.8720053646382135 10.010399769101562 0.08702104337625013 -0.35940062695908426 0.6910919609283581
Ni 2.9775457495545132 1.3197428227323555 6.610678632044329 1.2121985216720927 0.15244122065327295 -0.016213119424752724
Ni 6.631609599237933 2.442630916871991 4.890888766171228 0.06801956257308285 -0.8131337433541673 -0.6021927266927887
Ni 8.460061905805645 6.239963628208184 7.984995574279089 -1.6552250502829493 -3.9954053524688997 -0.4107992931460344
Ni 5.160214424013987 7.819150508488847 10.301305975878416 -0.8948796543744072 -1.1351582436576386 1.6453432723928632
Ni 5.332085239510893 9.127484010907448 8.60151989642403 3.2122362737976227 2.0949482255521854 0.6610077399484681
Ni 7.999552867642917 7.530132900476013 0.7875299539846402 1.5775353116099542 -1.6096545607420019 1.1964165762474879
Ni 1.3765580917724658 4.478616261555598 0.21554732223896236 0.9346029411059581 0.25064090635416186 -0.27111177261400404
Ni 5.654368465145746 6.277670830380569 5.760154979843996 1.415885942094852 0.9475790416506519 0.1932628826553252
Ni 3.4399887276568815 4.104116657550494 7.847288871945536 1.2867232323535451 0.5240214203976846 -1.7913942732490762
Ni 7.9498533871845405 0.39126010837193614 8.483938198754213 -0.305644516283551 -1.7166854715812756 -0.1450762956477695
Ni 9.01204907910364 3.3273205328959077 4.662510816562393 0.5024886885322314 -1.2829727641721775 0.237484571477862
Ni 3.195137126016759 0.03794316135162402 9.165483617396065 -0.0871691389183402 -0.10180900031870208 -0.45065704857292066
Ni 5.125912436663549 0.6509808396245268 -0.1321204844313518 -1.0971023173261814 -0.6989484808582995 1.5156226332655576
Ni 4.25724953822554 6.7033041765217725 13.085057988859502 2.0997942407905774 0.2243662889283491 -0.16863428547336762
Ni 7.656875366280962 0.23399377807470495 6.064605243509125 0.6212947376295622 0.04986551737187542 -0.343310406265441
Ni 2.0446649411591156 2.0268430831507684 3.999682050149763 0.5130116995507422 0.4710955189329306 0.9367117599188448
P 1.0687100159263057 6.629194487638671 0.4365494655038441 -0.30258696040414984 -0.8581434752956382 -1.2004850898899069
Ni 8.877792932767655 5.797415247571 12.451442819496796 2.7240658016602763 2.5896027627519786 2.185838264965539
P 9.020136464305766 5.062277484678396 3.3965925959395675 -0.43158769064629543 -0.21510851777550696 0.4717586064382262
Ni 6.5895348389243535 7.709202784264973 12.26152714143391 0.9993109228073048 0.6685367013356616 -0.08025878495175211
P 7.92153828567595 2.5278815803355963 6.76005929910443 -0.48473830652734584 0.044688344046310134 0.02407709555386176
P 2.0220683797591237 8.788341270583494 7.439085043844065 0.6222470742405025 1.4802419397734186 0.16142645487101878
P 3.6812500484521244 9.234220839633453 11.594405768619373 1.0506134297360228 -1.099362574115268 -1.2009028941536157
Ni 5.513514715092236 4.069259472131261 6.398728067961049 -0.8280854795679932 -1.1712079381923441 0.4386826498198639
Ni 6.508115042135439 6.532423464247552 2.676666334801856 -0.05341363973444995 0.13664616260254533 -1.1963204169892558
Ni 1.828609612687205 0.8104670368668268 10.777090363573949 -1.1716565956939886 0.331491559253642 1.1995456087947727
Ni 0.7701032119352527 5.3595027708082625 5.873335807488491 -0.02088352831722855 1.1264069798275695 0.8599550745830802
Ni 2.984883617363765 6.422133367881254 1.4168025491192486 -0.17180754099502668 -0.814190723863772 0.7965089903132928
Ni 0.6522087526866802 1.5381484896955022 6.765069961675312 -0.8729977666996512 -0.8252991750721077 -0.5456425982118861
Ni 4.546498478767039 8.837143180830651 6.645212877253546 -1.2997970348183678 -2.0114868745027357 -2.9702242467630526
Ni 3.1637869417320856 3.833587145228563 10.034086369376622 -0.9380808723522295 1.9257351847572124 1.3750198000081093
Ni 2.488221931621278 7.473428671049662 5.929282191550936 1.1445345426662161 -0.7502286191895144 -0.48588476142696324
Ni 1.2234067044951267 6.6063758470111615 3.9548951472701153 -0.9069761805276252 2.286032098278321 -0.8503417198630324
Ni 5.062157191763491 1.6982861193385226 2.4678850263612855 0.643748181537072 1.8583550555403414 -2.695412142479326
Ni 5.87585548139071 5.713284233546134 11.369575534670144 -1.2132989538251235 -1.035981538755461 -0.9553278323581355
Ni 5.059649547152763 2.8199527777268067 12.570933473193158 0.2862820525965392 1.0707410537238333 2.282507115844198
Ni 5.857839304058284 1.3229629715313715 6.736602180697805 -0.9710437004314952 2.530125947542585 1.6266109860906828
Ni -0.05607500494838229 0.7078377485197965 1.5516786666320574 0.9693076915769953 0.9735566966613363 0.7850855789676996
Ni 7.684117084856546 4.7281037670701656 6.123856906741135 -0.0019185571789515344 0.005286702320236056 0.21182804725202226
Ni 6.7760813900397645 4.440909059383212 3.850721482961718 0.42403070423464395 0.9291989964815675 -0.6220490992970836
Ni 4.261654109571321 8.497287936318408 2.0811747661631315 -0.19981765305470747 -0.2195544693620025 0.27856385801667505
Ni 4.533007165695299 5.261760150796751 3.2337502263713964 -0.07195437885111479 1.3204885017294483 2.0786690287761878
Ni 4.200536055498043 7.004878514190539 8.056192323961241 -1.2644554220942805 -0.686878694177959 0.3579309843920932
Ni 0.18869424231153573 0.7527616002564138 4.057023832025115 -0.7423808410103214 0.883682242996691 0.12903286903166164
Ni 3.5825635917236593 5.475474394078573 5.848727578419228 -1.2095248314946718 -0.9536820692245963 -0.5448630397333841
Ni 7.964140484154887 6.239204857514163 10.463539478231139 -0.022678672544438363 0.32275700759412157 -1.6553836873480008
Ni 1.9746452113828106 5.711757438856946 8.152943915419952 0.3449376574562188 2.7588127182231585 -2.0912049564596695
Ni 1.9233911763318055 2.322819173625844 8.80361106813561 1.6996606548885052 -0.5991292572761167 -0.48263797235489136
P 8.494363893156084 4.196584895908446 11.378730750824587 2.0259943240902913 -1.5932120989152627 -1.8655217484921098
Ni 8.038185399929962 7.072001960707959 5.5413662262133805 0.511949319724499 -2.854063091487736 1.754694346724881
P 4.440141035388044 7.749084512206808 4.672912452381285 -1.0511500189657834 0.08405604721065524 -0.7162987992112889
Ni 0.2849285742361522 7.905419035078578 8.020085942887217 0.45626436745736904 2.6726661070320614 -0.4706921128469248
P 8.38944996475596 8.36814886551649 10.34320862479067 0.19092137900634215 1.3317491622449322 0.41934743982636175
P 5.958728046459639 8.045939666290812 0.7745096339412625 -1.5993058705178262 -1.4341004082203495 -1.2083441809230093
P 6.800593384777101 7.7534983368537365 7.484576122940969 0.1393584193273858 0.22465039582767118 -0.6956052754176795
Ni 6.857343880709185 3.0268565913647323 11.446622221337176 1.0794743198317733 0.41728772908385553 0.363215115609168
Ni 4.574896859985947 0.8010499522899341 4.309617670734595 -0.2800941786182724 -1.6217086636930587 2.3265855942206515
Ni 0.5144039653609734 8.679365142980012 13.100700694447825 -0.8714124244904025 -1.1849430283902496 -1.775188352913175
Ni 7.603150699823816 0.3982417240870441 0.0862222600839977 -1.5240573942964721 1.878320185808359 -1.9141022285039746
Ni 1.8633927716972658 4.498186993480652 3.993140891569233 0.7598640853967494 -0.7219624252549696 0.029155795628349784
Ni 1.5720433317954896 1.4094628306497674 13.19309213040626 1.2108942010383728 1.2279920370609239 0.2510674523686192
Ni 5.383589113692857 4.065465618661156 9.750059992002262 0.4063834234665259 -0.6553543983174327 -0.20222857648904524
Ni 4.122364167411585 3.1095718503141696 4.204752784830547 0.5744245554405849 0.7723383066043601 1.009102969197062
Ni 9.03346121795687 2.254187439021528 9.156802170260328 -0.6212967945120913 -0.17004916354302327 1.7337989913331107
Ni 8.373959938636554 5.082181335444728 1.4042615500752647 0.9129087439619762 -0.7199788191660375 0.20515552032785314
Ni 0.8638650617934982 4.696124358307524 9.567525672264017 -1.8244722867499674 -0.5076892588965644 3.5750932347364235
Ni 8.984603787902833 2.777989057026986 13.657309891668547 -1.0316996235506555 0.34268228576313886 -1.120031158208213
Ni 6.6690021891713345 1.9104458080277154 9.552668571943041 -1.2323086621584067 0.1608708394778649 -2.0230349843516513
Ni 0.40878956206405087 8.391809556548342 5.647164770203119 2.391745318747436 0.9844437758874853 -0.02678575273427645
Ni 1.4672682029125634 3.128994529420878 11.320333167288409 -1.548828944814197 -0.14154899922080139 1.1790261486851825
Ni 6.625826286021309 9.133618949567643 2.3858137971716515 1.0940388479095093 1.432363628034901 0.4866604632507232
Ni 0.7781822691663471 3.164258860090562 2.1841427253321273 -0.1769996267189274 -0.1646102519156391 0.8238763265826521
Ni 2.241353110331197 6.693070025453635 11.754660915186953 -0.7905987954764448 -0.49680680765610563 0.7075297947694072
Ni 2.8630916676722458 8.566798734531652 13.315968566992161 -0.08714779876210152 0.034016466154760776 1.6499249782262748
Ni 0.37687955306000853 3.8357246577934268 7.618897042384981 0.28104265857447086 0.08891800328864687 -2.1815717763797013
Ni 2.2325994874465156 3.4278021300468127 6.021267407589034 -0.5137778882928055 -0.1471439768100756 0.03351715792083905
Ni 4.142305031382503 1.822187821691466 10.799029940592531 -0.49396419600098807 0.8550946611669853 -2.021530631891983
Ni 4.815538209604369 4.859833762193132 1.0516950457779417 0.8575629202018198 -0.4709654211129695 -1.251856245273031
Ni 7.468876046885537 3.9127768964411462 8.54528851068627 -0.31786008451313646 0.5026169865799796 -0.2801566564250917
Ni 6.166325857683559 5.942729088777171 8.594233847101199 0.13482967821909683 0.20487321320074392 -0.13211793571488858
P 3.5800837070163714 2.4127982739753597 0.4973038648420608 -0.9285641911110459 0.3307906765318755 0.6914709415343318
Ni 6.109390295728543 0.7854303799544772 11.35695310657607 0.8526811666294865 -1.9495196887713198 0.4407287337156151
P 4.378079144597813 2.41769327028191 8.592676516518226 0.8555327771456686 -1.8720749762295954 -0.20670795241663756
Ni 6.899501920733084 5.442403095780631 13.309643935658462 -2.234103784840146 -0.7996009989750551 0.8397775711939408
P 3.8568406910099626 5.959829189296084 10.531404114170401 0.18619389162368577 -0.5608223912761179 -0.39832661460032043
P 8.672332634108598 8.358377379505685 3.012752709757088 -0.2553773925978828 -1.0969848179117108 0.2848764304982642
P 6.8821149678786275 2.6649137170155615 0.47006769824716504 -0.7773249611856742 -0.0871763380071918 0.2365810858269861
Ni 1.3618360896482287 8.205124205915732 1.7402933305537323 0.31000459302445965 -0.21782488826540553 1.589882006100765
