# total energy = -340859.9430115305 ev
CRYSTAL
PRIMVEC
9.34658343760914 0.00000000000000 0.00000000000000
0.00000000000000 9.34658343760914 0.00000000000000
0.00000000000000 0.00000000000000 13.67966962807208
PRIMCOORD
 96 1
Ni 3.6754878608479835 3.174006272607762 2.8703507309634553 -1.3746027670753487 -0.8673976469040545 0.7953224262043593
Ni 5.898077364682925 0.5973382787511633 0.3272463182633529 -2.4059771460761015 0.926176921825792 -0.9708776071672762
Ni 9.52052336447184 5.616642390524404 9.277264510400679 -2.496638100197784 1.0829455662098253 -1.4992436776869018
Ni 6.492108822210706 7.1631748205048025 7.189733137368123 -1.132589454489198 1.9303477438285597 2.1329830688377203
Ni 4.0387054401636595 0.9835596692454431 12.183537900182536 -1.0501951112516816 -0.0351948027335781 0.7564406615374972
Ni 8.91272438952732 2.740913635445814 5.501813070275348 0.23369399408717817 -0.4143330173309058 0.5433298909183093
Ni 0.004263911368307845 8.217273155021221 9.823862991595654 0.5751238955004547 1.8070345508894945 3.699211440075287
Ni 6.3132058684606385 5.79309653941148 0.9504447240943806 -0.9433840297326977 0.3194433698398563 -0.8691987046685353
Ni 7.333899513739154 3.4110262822283643 0.7923304412460901 0.04367224407696995 -0.5137814878372313 -0.6599250484072505
Ni 5.247770128223577 7.8584297767585225 1.837535501613134 0.1747738227122022 -0.768343326512354 0.23642964785078635
Ni 8.582079653522808 2.352750024911345 11.637390858968027 0.09049331819556673 1.9951950793212478 1.8543047967303679
Ni 2.0251148887766166 1.4256437196829546 0.8684508861513349 3.74636881448738 1.5763567179208207 1.6855136739641619
Ni 1.859839253691593 5.999702766497067 7.548537259980345 1.7661318991378618 -0.3599765540672123 -0.10380289082027928
Ni 6.242629816855876 5.495987344813124 5.846800138578562 -1.3353052550273066 -0.6979568063689915 -1.5834056543478021
Ni 6.1077866574727615 7.092234252145625 10.910644459107907 -1.802920528721121 -0.36674832557340703 -2.7388262477989023
Ni 2.015478561243242 6.403194773883849 10.322883624414404 -0.5396781530983351 1.944719182058883 0.4567724174420391
Ni 2.246993433213837 5.637606777194975 12.559975287124985 -0.08703569866426945 -0.8398809295410246 -0.21720139574879369
Ni 4.836913013080928 1.5747778051558172 7.236052935612445 -0.6877068465062092 0.7821090128378789 0.595375189550323
Ni 4.644055610245189 5.568862655945733 12.87358120150647 0.34919951805636634 -0.03199043686366749 1.3656224179536096
Ni 9.0998056037931 3.1862222571723793 9.257183375865804 -0.16322417020138985 0.020939578366144584 -0.02077399932255777
Ni 2.6648137530241516 2.849006873004955 5.287985672818969 0.27699934174303265 -0.29215059556217426 0.4753028721460589
Ni 0.9616232378964328 7.929426424618379 7.97452275508955 1.2164768373324728 1.0107770144653754 -2.600652335697921
Ni 7.161286810648603 4.800573496640813 8.420480029707305 -0.41715788837421064 0.7547195650813324 2.2047050199630545
Ni 5.901339322305765 2.373032110990319 11.73391489553705 0.5514525200254438 0.25460349054633574 0.8185896242624161
P 3.9231536290141853 4.252648735254773 8.917886507564837 1.0129701654619523 0.3732221062232088 1.9691729442258732
P 5.779852430667744 9.416869754049802 11.319160255097199 0.09906640457655842 0.053335221088030724 -0.810545928022333
P 8.207739639905759 5.462320951238716 13.404393303260251 -1.4616816602727278 -0.6197235364877004 -0.21394997869103152
P 0.31340963612910705 8.148463607687853 12.33740696482941 0.5232948266443053 1.1817890561423003 -0.0980184229280183
P 0.43998387313707576 4.054332927686261 2.297405165691051 0.3467831953053898 -0.5464995468955427 1.494997243705722
P 6.1468366831123715 3.7502324886698992 4.752413356115867 0.6323486814508787 -0.5741404485412629 1.8607924613372404
P 0.4371640089112571 1.2848467866443984 10.380407172236085 1.6022433558795954 -1.1536079657223937 -1.162977579862752
P 7.822155686402533 1.8221164429013905 8.077652956838582 -1.9319382282441309 0.03796799460334106 -1.0049125852647984
Ni 0.681910839067107 6.207271691677647 0.5691013155008458 1.5840360888429494 0.6921515125411241 -0.9226527107226173
Ni 8.324814944157017 5.427084331645291 1.8425826566742614 -0.7299197324288332 0.8669484751817779 2.7039374063415176
Ni 1.6501019211514178 4.307092583830822 10.269040761153967 2.366103192699299 -2.785506682574577 0.38397985896034514
Ni 0.1858166215254664 5.23991899812849 11.629511689122602 -2.1682467771360208 -0.42976966360095015 1.0026495002622346
Ni 5.770991869560431 7.875132121377475 12.980364982724753 -0.9807529572994594 -0.7795965308286703 0.719901943181515
Ni 2.7325204035108284 2.158098078053872 10.045377953936805 -0.8703312756110817 0.3932692546820711 -0.2878206007282527
Ni 1.3006518592524838 0.6030163281949315 5.69940171365172 0.6399889716049558 0.11789510724728727 -0.008583113683320702
Ni 2.8477918171569065 5.540701400021333 2.878790695815674 0.17834688477544125 0.14008809840455874 0.8080139056290988
Ni 9.25919289130681 1.9441080500455246 2.0166291256655104 -1.2973151489367785 1.0751402112327935 0.04495033945844516
Ni 5.970606852228013 3.278286104120718 2.8498032019146 0.9562801689690756 -1.3137090169137697 -2.4252429362842487
Ni 7.370145564344804 7.615605538817625 5.2661529885462155 -0.27722585593154186 1.9311982647543124 -0.6301665861978953
Ni 2.730258530316768 8.260959086050311 2.4057479570282148 3.206172069881414 1.7843954733337397 0.4539418899717795
Ni 4.934397878428255 6.2510417419577555 8.341807967521156 -0.9350228022521961 -1.6644509397565916 2.0741901670692275
Ni 3.6446815218082147 7.579340795045081 9.626862248318067 3.060149351159975 -1.2164511263008597 -0.559238848839082
Ni 4.380388491218525 4.5013987071007735 6.865018808560435 -0.7551417402204156 -0.8011071512069364 -1.084236774217423
Ni 3.1984756280707827 6.558731269017586 0.8221553890239733 0.4675018880444013 0.6538994110384609 -0.2401693173988767
Ni 5.204616952450939 1.6500178019003988 4.80159133957814 -0.7926299669738607 0.69021187231625 -0.8794561207304853
Ni 4.271622299651233 0.5265640795773346 9.686437371206262 0.7358461252155972 2.5650908936535437 0.74675685859083
Ni 7.043837643059484 0.9635392875029718 5.986469873653467 0.6674185285708183 -0.3707384205694067 0.17413104692188075
Ni 0.371247229154591 0.7117909316873249 13.565444282627443 -3.2920967948696918 -0.053453748943766005 -1.6145771948546002
Ni 3.348226588051116 3.554449605215396 12.092061953332983 0.5211325288856637 -0.7005006558367678 -0.17951673671382629
Ni 4.456479027056741 2.623371002022229 0.6015610651523065 0.13703439917989949 -0.5334473416972748 -0.7855118678718408
Ni 7.992487823132129 8.800415842833791 7.62976748205581 0.7817791403022858 0.5488135397406999 0.3707358494662453
Ni 5.856176631092123 8.714034718620944 8.941141741838154 2.0502079452220174 -1.4893631853483962 -0.5155380655170219
P 4.521820991931445 4.567282773815377 1.3532366723810167 -0.3077962725192312 1.561519652907988 0.37945471739648196
P 7.585640392288043 4.337852189953359 10.730934895206405 -0.43946863605626896 -0.8309741139696979 -0.823222495048737
P 0.6828529746785175 4.595425336572884 6.5399623947986045 -1.2238926701805697 -1.5251498560297023 1.7351794166204053
P 2.4295135147577116 1.4135492407031425 7.716701924008691 1.9671286601023346 0.19923812640215366 -0.7428423540277722
P 0.5337310397641353 7.9348941759346 5.667993454637995 -0.7820223666613435 1.3093286284578871 2.767562182281014
P 3.1962417946270616 5.1118147254103246 5.00602074737903 1.0976242512679224 -0.280771150080639 0.20166087691103338
P 7.759589656811448 0.8978468257490224 0.7831792013935907 3.3330706661788922 1.8859098252301583 -0.3520159044592389
P 2.824313199539218 0.9562302592477838 3.6549478090658853 -0.6883737906662467 1.116108683225355 1.1579459309761155
Ni 2.154845467014479 3.611370298404775 8.011703464039854 -1.2378007956212296 -1.004896130204566 -1.0504409087139006
Ni 4.651785234755471 0.7267604197352903 2.4892624840980115 -0.24468417455009472 1.2712680741407396 -0.3513667009110142
Ni 5.5141757962000755 5.626446956559817 3.3111636460522385 -1.0614837967916235 -0.630284085612366 0.28159570286446345
Ni 2.417877018366779 9.050408910278179 10.38576930715936 -4.540636059954347 1.4233272288642456 1.946233047600248
Ni 6.593696837691061 3.170491957231866 6.950120385499452 -0.295942972725071 0.09182900628785476 -1.1136429952936822
Ni 0.38358378464566845 1.0163474839758768 8.00619084912309 0.7277499784710241 -0.1558708151601122 0.48757808996898616
Ni 7.337544681283301 1.1401710214755312 10.086389827441842 -0.04718565654686712 -0.5842826791815873 -0.9759115700467579
Ni 4.10936561101944 8.653702522473582 4.375483404225785 0.5479661041387401 0.01663863699794554 0.8844075511984898
Ni 9.14715539553323 6.956278849332373 4.070249224637359 0.8625763142560113 -0.8105690679507846 -2.973128822004357
Ni 8.119891102091806 7.917705808976428 0.7563227285183259 0.06453288957606305 -0.13039298260398188 -0.00483393105353361
Ni 2.106589056680035 4.231516110082166 1.0127985862412288 0.6398061661701884 -0.9282870261902593 -1.3562209221340513
Ni 7.705538364740154 9.450610920291783 12.337899529777044 -0.07689655334773854 0.7525948054288458 0.04326909510128032
Ni 5.607501431913696 2.9534175566861633 9.461789434093834 0.16791643347073662 -0.6939566840706629 -1.173635059576598
Ni 8.308047173453938 4.739203829730884 4.245580848852507 -2.8866700788894804 -0.49719298735093087 -0.6645689749371653
Ni 7.07753207638423 0.06486155048555264 2.5745005211553478 -0.1627441452411778 -0.894864999086388 0.95396540479297
Ni 2.2764538642373053 7.1452854597881394 4.807775039186366 0.03566557172240954 -0.31838536088898717 -0.7080656126682193
Ni 4.08718616850082 7.039257817170681 6.324247922144372 0.4045959925487999 -1.4681950359112133 -1.0015781215749266
Ni 0.6521326242064565 0.1222439648971905 3.1357226668107674 0.11426111003912579 -0.2816656368704504 1.625982094257432
Ni 7.9796643106434875 7.166455471294535 11.987234412030059 -0.17120718840686644 -2.0293812382846537 0.3127338190301646
Ni 5.3101585727291765 4.742456440770277 10.989726836307357 0.9148129029632245 -0.389146233652633 -1.9062953308650457
Ni 3.680366777407073 8.903676896751076 7.623830532250572 -3.14387732560725 -0.24998681770993073 1.1703373626619327
Ni 2.1537145304174485 8.774880976857867 12.997806642094325 2.466463376386617 -1.1701206186654363 -0.1606687507693878
Ni 8.207375123151344 5.846044934636082 6.722367513366087 4.07612847865158 -0.2538056772353887 -0.3056691988738994
Ni 1.1066541732362678 4.8271738731296425 4.597394661705068 1.465666870172721 -0.25512028228175415 -2.1078312521624407
P 1.4400561513575065 2.953361477185484 12.837083727806107 -0.3863056788800444 -0.25463511511521947 0.4448928923956338
P 3.5513465395111474 7.212777138855547 11.98997015700486 0.2641749362848547 0.4899568746138078 -1.0644930159315924
P 5.244984846356511 8.936389938813937 6.367585225610906 2.1849954573492694 0.3006992564631338 -2.0293586125768344
P 7.990992369780684 1.2691258332873316 4.018567291469761 1.3399548379841764 0.9496531505708611 0.68685272603603
P 0.9359575197522563 7.609679804912523 2.149103860803274 -3.4520608062625704 -2.0155214495834257 -0.18812376165654696
P 7.72177338018678 7.209646033400959 9.246732026255893 -2.500078750448217 -1.5896984293350491 -0.9401225853726066
P 3.8754206273527467 -0.17468857927402553 0.5923799162327781 -0.37638944820759695 0.17988954667221277 0.24453865011116596
P 6.994973704801015 7.076793696291954 3.2021647245571283 0.686055169835399 0.4042298674586329 -1.071184054798523
