# total energy = -381166.9332663787 ev
CRYSTAL
PRIMVEC
9.22799207818300 0.00000000000000 0.00000000000000

0.00000000000000 9.22799207818300 0.00000000000000

0.00000000000000 0.00000000000000 13.50609918614956

PRIMCOORD
 96 1
Ni 1.4537132933921877 3.9948255022716395 1.382727886283264 -0.373966183478085 0.17079298368758328 0.5351064745672526
Ni 7.056497978482677 7.461505327632949 1.6244726748397305 0.8153993994598924 2.0015732149334498 -0.42010025883198615
Ni 4.168542455215518 6.140675121751617 9.581523951379566 -2.3362220888691505 0.04199691325707606 -2.748924255464853
Ni 5.489068137354638 3.4428531495312376 5.800355997841004 0.8950596315956972 0.19505648422063826 0.16243098487613314
Ni 4.45215556712931 6.3490339573701995 6.697323298133806 0.3656476363100606 -0.8430621554824834 2.664029000182354
Ni 4.010383897101035 3.699880415950671 1.219591749182438 0.39847496725272663 -0.25465902637461946 -1.8093079203047033
Ni 7.414442567472855 5.276833545016989 11.898279677382877 -1.660145370402702 0.7949789268220115 2.065039096697579
Ni 0.952282653866852 8.863468040833409 11.902479336627751 -1.575445518960461 -0.12999960382030515 -0.8852693849781527
Ni 7.508604999761796 9.18482364079716 10.145754768942844 -1.7458260977009739 -1.0135471210113447 -1.2566793776932874
Ni 1.805170603874022 5.891150212981232 6.903115829124836 1.21771096684989 1.32194348900842 0.6412097313859344
Ni 8.999534785649212 4.713999845471012 13.344633647004933 0.40544857035708237 -0.6549887874478977 -0.020774770653506157
Ni 0.6503999630187545 1.2337640995851582 7.541130903827735 0.7150803534231556 -0.9328844157529547 0.06755676400405139
Ni 8.50262586229612 4.83471121128556 5.972802256260559 -0.16562172389928895 0.36752119918368964 -0.03094888297303057
Ni 2.0457259042374227 4.07905861496602 12.63287584112726 0.2908575877823636 -0.5499949616433109 -0.33389605493007657
Ni 1.046814205843324 6.649931098652591 0.8068734897596614 1.1802669630708191 -0.8722683447327945 -0.433260450363028
Ni 4.573300648576706 3.023219432762584 9.869041426788208 -0.3437557213329757 0.5476709414958245 -2.2255746643232124
Ni 0.45987699070162863 8.011198366302853 7.03169405827987 1.5103037921558053 -0.13281804710570674 -1.0619260265353647
Ni 7.181398852750693 3.7956854308491224 8.152348812015163 0.43287709888168024 0.7676907805300198 0.03287952433684015
Ni 0.7022474371284586 6.08670059544252 11.587990285651282 -0.374692005900516 0.8256629861694296 1.06663962996095
Ni 0.27085264431587525 2.1221429075483527 -0.00513260925510677 -0.10125749869060625 0.997371796803063 0.11138353138101463
Ni 5.163227733187395 1.2174951493572665 0.2541130664863829 -0.4721589272004385 -0.22296683747766116 -0.9289470283717616
Ni 6.504894745429806 6.963258345412561 9.3510290080998 0.9470337106701431 0.028450542031209065 -1.1495528218164137
Ni 6.38871432377969 0.37555344368380306 5.2991449845297485 -0.29778233992665487 -0.38205847356791617 0.38407807510110625
Ni 4.2765099638180875 0.42220924938839544 4.4130907077987755 -0.5761682776045689 0.5012874691352787 -0.9600134107592628
P 8.572001907567412 6.850704524692429 9.990488263580161 0.31805677390497483 2.26510357565577 0.7783009519456984
Ni 7.802396587059233 0.6390393818357952 0.845807311601123 -0.3735352665882535 -0.6469777442179633 -0.7742391231714988
P 2.30864985766515 7.481530070681459 12.60508020585702 0.2080780932912868 -1.6835825183797197 1.3389693341424553
Ni 5.2415457028891055 6.114679867757305 2.1916075415446516 -0.2909128665003312 0.7210933923864549 0.8330741910318363
P 9.095256748617969 2.722645271206781 6.438060089207159 -1.5375317746338228 0.8957929102172959 -2.3767961536367714
P 6.059865594159078 8.441038242431715 13.224618994600599 0.9449076654660759 1.2786263142780239 0.8572279054599042
P 3.62304815299127 4.590695413851565 8.205873935104691 -0.9865669928780751 -0.09409311973168312 0.08896813980029195
Ni 3.6144753482483822 1.0499701791717069 8.827802773825027 -0.2939269707363067 -0.6134819264533629 0.7398519039408807
Ni 7.600451206011487 2.3086959976260917 4.659509474398592 1.1646158867971232 -1.4831837960105618 0.8229810684618923
Ni 6.085722428270564 6.236350944759431 13.515823975687667 -0.6758509756088877 -1.3352839148710682 -0.5825494985405645
Ni 3.512773646341637 7.327182673340726 4.981778645588981 -0.22218702188884318 0.5258286488097526 -0.6484972661862832
Ni 2.7561059708813893 2.6846720833521163 2.82846081203105 0.260890351996312 -0.9407525056471218 1.214513800068831
Ni 2.861664973522825 2.687486620969534 7.346075141747738 -0.008423191066688719 0.3495286192610109 0.4215153940119579
Ni 0.4384394420490963 3.8167806209914708 3.796942283385163 0.32587781261129034 -0.2628690729892376 -0.3680629306197725
Ni 1.787342122966316 1.1944713088475734 4.53772489309255 -2.0394633051110036 1.407440639540976 -2.6028699121745302
Ni 8.261692214253001 0.9819783327286528 11.913217028338005 -0.6090488303826737 0.49827079379614186 0.7244857058974555
Ni 8.449426487330838 4.825473991105118 10.16613571248982 0.9261422119331147 -3.0371652315599755 -3.031241924097005
Ni 5.316412403512409 9.376378302640934 2.226575172343602 0.6383092699096877 -1.4462676397105028 1.1871454353582072
Ni 2.568371697803554 8.139338265828945 2.9737592402319812 -0.6035446127349928 0.278481582715514 -0.3094278945853832
Ni 5.108681071362628 4.026339095594526 3.277444157954445 -0.1816741493764613 -1.9457789907819651 -0.5359626519199608
Ni 2.8269677228949903 7.805866312122016 8.006388736774335 -0.5011717694930208 0.15976963599388613 -1.5597666747726235
Ni 3.39559660153519 9.1984626132514 12.149614195421378 0.8350778517254263 0.14789602448475173 -0.2361565966950578
Ni 7.834611507788427 0.011582975794696183 7.6342284258181525 -0.8178221499687721 0.29462142570017 0.07638027583295233
Ni 5.707153276739641 5.038419138841262 10.399602069254204 1.3647855238746107 -1.7577737569811536 1.5402874830020894
Ni 7.382356838634296 4.36147208789534 4.066106205130588 -0.42590632399080197 -0.003234961997529913 -1.9399171326845495
Ni 0.23968602349926682 8.749096305652191 9.394815831033064 2.2634876373189017 -0.07597738396757882 -0.8215592484137012
Ni 2.340071171066154 7.87903506218268 10.20215625719745 0.20255279259768338 0.1873030655274645 0.9802382224465699
Ni 5.281032281462644 7.483098829353462 11.546621196671339 -0.24754632658923817 -0.7994750149201522 -0.48044096470357256
Ni 1.6779719595511318 1.7518143530415389 11.569945869726368 -1.3394210769678931 0.6166238145164542 -1.441195624504234
Ni 8.617329805196116 5.503205421387043 1.9870174179357518 0.2818756959987274 0.09167011211248728 0.23091103202540228
Ni 2.1468739266128725 3.7161032262176215 10.181127508598857 0.49051094734506484 -1.3033610980205423 -0.5368833639620173
Ni 7.358640898710483 7.537553211256349 5.99772152636572 -1.370420610673201 -2.2075463460665916 0.8511377334017665
P 8.535809722205082 3.1539800820701402 11.75231867934283 1.1204947281081927 0.4881727861301915 0.5087796637472658
Ni 4.558683508950512 8.247176582540877 9.43332147403699 1.0776580925586408 2.484337685563876 0.11331288719324356
P 6.147143944275582 4.230222355001806 1.3330166923651405 0.47429397126557027 1.4609941472874 0.6989189131719447
Ni 1.4283547708588662 5.660155112524864 9.434280262425348 1.513498130723387 1.7501015851478763 -0.955728924451296
P 3.564330438697411 2.545956904778285 5.128387448680644 -0.251968881136966 -0.5193669523448088 0.32060345158622844
P 3.3067033527857412 0.6163089914776885 1.7809277455962607 -1.258805937117987 1.5997131332585741 0.04924022508305068
P 5.632904851592951 7.730685859764312 3.9188080710224615 0.17925988350801386 0.5464409257434654 -0.0367703747508141
Ni 1.450704967938817 8.947618101598096 0.7185431485336959 0.1789644637547821 0.7227265571145037 0.21231527130108596
Ni 3.013493128996165 5.540495737819776 2.4990334873002333 -0.9347014143570354 0.2417978541412352 0.22802908249191697
Ni 3.614826011951536 5.765935586978817 0.08529525459524881 -0.5604745210183961 0.15496193019259766 1.5951437687203367
Ni 2.724509325628808 0.3129728918599409 6.123178848562687 0.669691383765395 -2.1106342688288744 3.7689819239012055
Ni 8.352034257776006 3.243445466335261 1.8117483167058097 1.5451725790085324 0.29529788294190434 0.043227957450699746
Ni 7.479610648306303 0.32290405705293973 3.070976137935235 0.6343554274682623 -0.6381208080479656 1.384048742979597
Ni 0.08800643870015776 7.9687034622759425 2.6074061047598676 0.16724331866311198 0.18210172383218318 0.03821044963145032
Ni 6.376201166372418 1.7935894736777638 8.566729955630263 -0.5053328428492458 -1.5257077854157015 1.1840423709528511
Ni 8.91974033719738 6.061286704956069 8.007496095836924 -2.7410600222254273 2.2535510949314803 -0.5774245186091733
Ni 0.5336095710849954 4.097256215561257 7.910319801299299 0.9546225787609948 -2.834797301279589 1.4524467719380212
Ni 0.6282620097591336 1.3812181867612658 2.2424316313206787 -0.0029670530481239227 0.08326003367192111 0.7974618411448654
Ni 5.5924770178162095 5.618444587833956 4.738317450485499 1.4556657930959511 2.9229925674695982 1.1732815328919213
Ni 1.6255569639218501 5.872832648487549 4.4565803893835785 -1.4770671415898629 1.4124051826351032 -0.7394580109365716
Ni 6.611127391500983 2.877204912367844 11.017533341758588 -0.43846564871305127 -0.11620614958063857 -0.6145368500804385
Ni 7.629491697427921 6.569998230317937 3.63355975889291 -0.6443930142099225 1.4250483253204103 2.298926437742486
Ni 8.351941977854125 7.518229795614145 12.809738616608113 -1.0259048712457493 0.15439628749711476 0.5354576872590843
Ni 8.65091969676136 -0.08201931736841869 5.123106268751306 0.8496194969850271 1.9024327625858461 -0.057170278563404765
Ni 8.746438643901975 2.3611940451850675 9.636183194709032 0.09844162650836595 -0.3624180736291694 0.133320440663422
Ni 3.810570182248776 7.912394253943218 0.8735807996901106 0.7507603233232684 -0.00293105760386592 -0.4535791073157221
Ni 3.010936975160018 5.841845050719392 11.401471339144639 -0.009167782542197115 -0.3212549691272984 -0.7590693574095959
Ni 5.711831868779084 0.669194614708571 11.266936441032087 -0.8004633469753505 -0.20545016875013647 0.6325427997395557
Ni 1.676135589105669 4.000694505303369 5.86387595926963 -0.6591123226979682 -2.36984749023308 -1.2630294882810313
Ni 6.526968102744108 2.3212829789708698 2.3802064774905265 -1.951311747674736 -1.2347396401974027 0.5012247342181432
Ni 3.568446123213372 4.690117801687811 4.769368721399754 -0.9335873553572502 -0.07563285614396652 0.27414464590305687
Ni 4.82614763453486 1.3952170509108466 6.8141921280011655 -0.08866603517884084 -0.6753272418949336 -0.342602581565139
P 1.5729574084488034 1.4570538265643356 9.434982512630874 0.7538055379074953 0.17370192980426213 0.5214796278124374
Ni 2.5647358688813817 1.950548392807773 0.09675457529462239 1.0183134320517364 -0.5921011467847416 3.1433510207901345
P 4.50362930755539 4.418454939657807 12.263538372981465 0.2989753317934915 -1.1952881190699995 -1.1807297616398504
Ni 3.943905441376855 2.1608543347780773 11.80176502988515 0.9213733297895617 2.1270070537599435 0.16042218197622046
P 6.448197961425174 5.413407829403145 7.005505939248825 0.45168189029300926 0.4460738000776124 -1.1251700220966752
P 1.055866866180001 8.028131731968298 4.655971462193615 1.6388003290680229 -0.8691840493805161 0.06854252495608841
P 5.720238569662584 8.73457144594788 7.64431738967757 0.11119198419549883 0.48343527144520615 -0.23996131515312866
Ni 6.865109420498293 2.8492902359983763 -0.028035563067133906 0.5682320534766279 -0.3159384420103914 -1.3978259992693476
