# total energy = -340896.2643233047 ev
CRYSTAL
PRIMVEC
9.06998037759032 0.00000000000000 0.00000000000000

0.00000000000000 9.06998037759032 0.00000000000000

0.00000000000000 0.00000000000000 13.27483309027644

PRIMCOORD
 96 1
Ni 6.343263124477353 2.0504504697099746 11.487416791801325 0.8744676663769585 -0.5972009299051521 0.562098172664748
Ni 4.916029148219459 0.22128393988455847 6.0034771696332605 -0.8311965143931491 -0.028525361133202486 -0.18601442862302806
Ni 2.882140462725393 1.490814538883041 4.6552980495661 -0.379832669561191 0.08255015208909008 0.7051990897537017
Ni 3.4343480796022554 3.9171794163764435 4.510429601574997 -0.0679686547304894 0.5837993117872655 0.20544708342634294
Ni 4.99811247086676 4.386151823094823 2.558697705569496 1.1579320470190446 0.2819433160118693 0.2802538441245883
Ni 7.230506747461248 5.965226341279618 2.676936691097342 0.07891564066029634 -1.1008409584330072 -0.18802708817768263
Ni 4.968653174517761 4.745703986231209 11.404475449007899 0.1843403833547148 -0.10579755265280487 0.11859059065241512
Ni 5.617927721667709 7.932423460870304 12.584887141560461 -0.6995082100165114 0.8096023331621411 0.7528372604569551
Ni 1.8364987019832146 6.546312775759686 0.3005347076519971 -0.229894674945746 0.00668049734396914 0.006502834115524285
Ni 2.7302727108572817 1.514242298264033 0.4275507132158423 -0.13447820841694902 -0.3187998227185864 -0.4004493173702781
Ni 0.5356721356041232 9.114151207579342 4.730725820593666 0.6350054023474354 0.33633474627855625 0.08967159362521976
Ni 8.665540906865736 2.5107066252610544 1.1418080419612424 0.09007962769691583 -0.5661895691253024 0.3436932435261565
Ni 7.013208156965774 0.4995164727235779 4.717278667648154 0.13571645169942434 0.23969032087992911 0.43127710138441205
Ni 0.7615427645784871 7.347872293876284 2.7001014210466465 0.08702438581035979 0.43129741309938624 -0.4510979927650811
Ni 7.635608352181584 3.937360122773156 4.06659918053378 0.3912234278966359 -0.823278287987337 -0.32088678715460217
Ni 7.6161804541583225 3.995081478057954 12.51816745871783 0.5995943698379932 -0.6116477014581014 -0.21288965574731725
Ni 7.823338806563222 8.884916522873501 7.136019319614781 -0.061297413357900885 -0.42461691575541716 -0.15295569839584627
Ni 7.060589734591134 0.7251367702388186 0.32926931256679415 -0.35353774042040403 -0.2519272292657532 0.03642636114783404
Ni 1.8723523345163395 6.376840191929321 9.051113029782297 0.10712269922213163 0.2797046564893376 0.0630043687466786
Ni 9.4122814634265 4.878887578469105 1.2737971177800618 -0.7264543995880521 -0.10164984903301849 0.3299661237480511
Ni 6.367371132388571 1.8637267831530708 6.9912842003356035 0.9111372538838501 1.073697565248996 0.3836330171438877
Ni 3.4450053065758 4.389208406490639 0.6739031719362985 -0.1704659393654677 -0.21478584432876557 -0.9909705212624095
Ni 5.9391592176013495 5.403350125293141 4.909272012819211 -0.1649133849783547 0.6520708424701543 0.20270577323577996
Ni 5.151658169109428 2.715270963270692 9.563946047733584 -0.0019740930072353097 0.4611083258132317 -1.0274555035623207
P 0.025667137542496825 5.648339365959024 12.338346934245662 1.5466998142863362 0.5804699903037165 1.1548007004789145
P 3.974828211818018 6.2725354172946295 12.670495965590414 0.6097435424568531 0.08437794932644824 0.7114970069472715
P 2.3422408092554234 8.508330936540249 1.3717683250993267 0.47876691943525934 -0.10059338274404611 0.610677110014716
P 6.398290695582455 7.542486863383812 5.847072613567562 -0.23943423900506502 0.9343355463771845 -0.13239072976030103
P 4.735427698434591 1.1042247641652623 12.72475077436518 0.01589893061844359 -1.0630907362674273 -0.12215285408237672
P 3.9751547311125264 6.219476031936982 8.294965089547524 0.08331145573514685 -0.21604645620874405 -0.9407964715111796
P 4.911385318253114 0.8600799386749004 3.7496496223484037 -0.4056403746529143 0.2842727354759943 -0.33296762957853626
P 0.16984989501513165 5.54339969269612 3.8087886155701933 0.285725665872437 -0.25650302156189375 -0.7231158221331224
Ni 1.3249790171942846 1.0840259178077443 2.56123276509214 0.02282856785874133 0.46773380154954924 -0.0338503728905417
Ni 1.9923391052678467 6.230514198087453 4.88933347489926 0.40417073208592325 0.7412852939532975 -0.11884204454158888
Ni 5.991229975095068 5.8464095980001005 9.37327964069549 -0.36657477611002026 -1.2462985486795954 0.26153415622789794
Ni 8.57769814666252 2.503341801173805 10.122471812959187 0.3478466035728977 0.024240617714919543 1.5648314908900405
Ni 2.8388947961638094 4.951002992653491 6.848074651760212 -0.42477735259268135 0.6568512945779333 0.31786162717503325
Ni 0.2952469090770384 9.164580298620116 9.334530870417721 0.8424885423672006 -0.1310457856966324 -0.026695764123631446
Ni 1.518496119073048 1.2946127228049849 11.398634381628357 0.07339573928333167 0.32559370571196833 -0.038113776152585974
Ni 4.020042064127056 6.802494372242893 1.6871651026397068 1.2873678079160797 1.1076014170852924 -0.630795735141462
Ni 5.5721515305736835 7.85529234752305 8.165415838457116 -0.3244549641218347 0.8689446796762003 -0.7470857026851585
Ni 5.518085377391301 2.6226755333362948 4.82826892483791 -0.2067992265788632 0.7686480022369665 -0.01575186351761803
Ni 0.6211213279789833 7.521217759338738 6.665639251937854 0.7036158044269818 -0.48578140307987955 0.6063843961766331
Ni 5.1299537060050096 4.437841641411614 7.488771718443026 0.8670963136135519 -0.074252173746356 -0.36535041678461594
Ni 7.950137132597395 7.256673640923951 9.246757949063609 0.3846365187077375 0.6592735308661808 0.2929309253716245
Ni 4.40703998796297 0.45705082447665396 10.567643684102011 0.8600296365747575 -0.3732251915470024 -0.05225278665712936
Ni 8.161875825105819 7.264555453894173 4.577507548643547 -0.559254789678682 -0.1004637991447173 0.6761137423519711
Ni 7.23559500646734 6.121810482957299 7.195928354172787 -0.6809088497477692 -0.30044060348510837 -0.5479324226873272
Ni 2.3546666824075557 5.5374497855517415 2.5140280520846394 -0.9177717284812323 -1.7283582799335135 1.2789086214051328
Ni 2.468603776230251 5.42045610833323 11.451083357304881 -1.313470161430086 -0.5346056236714342 -0.40327933061990545
Ni 1.0504125704341645 3.4345385491907185 3.8566971590569676 -0.04111091110769694 0.21508794895021663 -0.2699609468390125
Ni 3.760014795952971 2.3658590382248788 2.443233227046933 -0.12163940478106793 0.04600603441646916 0.446101053771122
Ni 1.0963338812146377 3.5552327784136613 8.241600045850294 0.141476237001337 0.07438021468378804 0.07863333353318715
Ni 3.7741730353620806 2.6022317975078955 6.745858693612336 -0.022825739645263913 -0.5721961803306984 0.5269437362508022
Ni 4.229168602279411 6.939423866387234 5.956139127913836 -0.5457338723741116 -0.01742745144782805 0.2667655798301664
Ni 0.7581505919077589 7.383698716468199 11.09906109189908 0.33342400038966447 0.03933376460261613 0.22958922789018524
P 0.07143879364632036 5.740980145795436 8.163424977758654 0.33571279642384116 0.35069538587560245 -0.372840554514074
P 8.512040558525083 1.6610399310868575 8.1635047935862 -0.0030992077506140168 0.4337474173017756 -1.296518364067096
P 1.79186532841997 3.5096742668493084 10.54984203356501 0.08639780796995443 -1.1988917772608576 -1.603282595777387
P 4.079740675139711 5.962115338001384 3.859936956056925 -0.5608100499809439 0.3606329567042886 -0.06436628209121173
P 6.786050497772223 3.9927958429963932 10.460767570023064 0.2623890480290255 0.30899980590902915 -0.9580030651974533
P 6.056488484094772 7.849324300417865 10.41342952830364 0.33296325870316207 0.6668248608508774 -0.6585248256256143
P 2.4698463635454644 8.583375954394809 5.761928172534243 -0.31582454214034644 -0.38353917187850073 0.4483114311588795
P 7.000492044440746 4.002337462380368 1.4049952913077377 0.4363205773455905 0.5114232720176999 1.4298447182677891
Ni 5.461125900460357 2.861089038209991 0.46078765640269675 -0.8984992534048655 0.4119930563438195 -0.19251289186317813
Ni 1.4682665676011417 1.2147878252780353 7.10540722875656 0.3511921230063629 -0.4658880065900622 -0.14608468230762583
Ni 6.749598246532499 0.8740558714779088 9.261293499657482 -0.3017989172852157 -0.975713595103339 0.34430465185791026
Ni 2.7698722452968525 1.727123808303237 9.221853596873006 -0.05053246153191297 0.5255324577255723 -0.5057874138881612
Ni 6.5181595565887225 1.946599194095434 2.585035114663776 0.6054947944828282 0.7048625323498894 -0.048319255930678075
Ni 3.927655243741928 6.992637441411733 10.345913501181625 0.252236790086372 0.8902388131682861 0.2738255720007413
Ni 8.246090593147828 6.988846189603272 0.6219312772289728 0.6053909219151123 0.5976899537264286 -0.7075650188827168
Ni 7.7634134460404916 3.947237331432041 8.287159464412689 -1.2297933519357207 -0.45675390549927786 -0.22952854985557888
Ni 3.074659866759824 8.3458240976594 12.413707587418246 0.1740004348812874 0.32039930599522237 -0.18672610997807196
Ni -0.11959131960593576 4.976671037194028 10.25338791009633 0.33183017353998334 -0.19494824077754813 0.35732934625235235
Ni 8.735207426341308 2.2441852511184104 5.9963354670639255 -0.49846439786418667 1.2090499487407822 -0.4395704517414558
Ni 3.7284784740916828 2.7341093125677576 11.600306302887471 -0.6175244719538526 -0.003812688877870853 0.2504717277661493
Ni 1.2798740046500827 3.4316180155009475 12.590900538567661 -0.9470151987273819 0.41361799354175216 1.12515973768403
Ni 3.0421893369170245 8.452033568178724 8.038840633940858 0.3410329230851739 -0.17669032300862472 -0.36961664826013757
Ni 5.580849641780176 7.799720577593766 3.6636943250670555 -0.21990928159825995 -0.5411881619849583 0.16803084756141384
Ni 3.0846640551443514 8.47435478995055 3.5342384947747987 0.08391515075741676 -0.9913775268928411 -0.21526226974455187
Ni 3.379556327987632 4.238184162800009 9.289077570626043 0.12954657544328657 0.7736313143841709 -0.017403283078111963
Ni 7.1597155504157035 6.341820997593273 11.539971886248566 0.44106117735436945 -0.7025498250563127 0.0031701701978655078
Ni 0.7491631483264097 8.837843324581844 -0.018345849361181783 -1.2622067352694197 0.5664893597539082 -0.019803664989488476
Ni 4.812322992291366 0.22437680320198716 1.5487082237954963 -0.09854601329671415 -0.4928858753351447 -0.21256801074184037
Ni 5.989633658544136 5.657690515754533 0.3051295597241653 -0.5060033865537091 0.155738403347306 0.8820511351511713
Ni 7.828862424628659 8.82938103286583 11.359792190552438 0.13522202856150906 0.13769183025824028 0.0683949436346306
Ni 0.0607316817805592 5.048496212005517 6.0796876799696085 0.4167020317837146 -1.1308112795428527 -0.5005421063288218
Ni 8.067393839247593 8.97743032298427 2.4927217611199133 0.33794888484321156 0.19187448694823084 0.0846196330236091
P 8.544556438269897 1.8156921669386945 3.7606406246007795 -0.33611825939237594 -0.6885843640151561 -0.7985537886574635
P 1.7797841145231517 3.1867376145999007 1.6456010104448426 0.5012507023600722 0.045850225564895236 -0.04824366549773627
P 4.7296319809570635 1.0161461844715676 8.120799697856636 -0.5456315424682926 0.2237505097212211 0.5802907844133749
P 8.648543763590483 1.58994035470761 12.316071969373894 -0.5487019538635002 0.2851211995192186 0.6247279316808273
P 6.523710384595369 7.723949961306966 1.5997232355703037 -1.5090943452287366 0.5291739111329016 -0.7426392368780308
P 1.781543690721337 3.305082718898462 6.021397636913542 -0.04453484918758136 -1.2608705329564995 -0.34838242147170967
P 6.922490212974802 3.907329417658768 6.216843016625986 -0.1760632309475871 -0.0014210487172427138 -0.3507612061165314
P 2.320998915151558 8.839557550878014 10.119405252584928 -0.039600130890125346 -1.7204302833356886 0.29007802930386173
