# total energy = -340858.57106512156 ev
CRYSTAL
PRIMVEC
9.37486077060506 0.00000000000000 0.00000000000000
0.00000000000000 9.37486077060506 0.00000000000000
0.00000000000000 0.00000000000000 13.72105636322329
PRIMCOORD
 96 1
Ni 9.312827107513018 8.877946075863278 11.484345746195345 0.4570593525548386 -0.39721461248306433 -0.5138570782701731
Ni 0.5639550493236383 2.906600517693126 11.699368485481832 -0.4357641906214882 -1.2056113553728784 -0.05246541688856771
Ni 4.344132261078043 1.4138133461685278 11.332823624910915 -0.28204384614547556 -0.5333637808445331 0.361033534576817
Ni 6.813742403495465 8.890714635945775 11.336501382708539 1.498374387708071 1.4957492913803982 -0.45513359628703554
Ni 6.106259176486772 7.237157980680524 8.9425613647859 -0.23951265765148433 -0.8618384076487221 -1.2604110768215777
Ni 4.191350158534371 9.186172741349614 4.419016772257912 -1.5717631850128675 -0.35167394773878785 -1.6910698278957006
Ni 4.947198291171267 8.587306648787196 10.125165337425326 -1.9177169424384264 -0.08448182189416419 1.525310807087599
Ni 5.961145709881047 7.256001450405798 12.652158063843459 -1.935899526884724 -0.22694227718564142 -0.6331999737075804
Ni 8.362891236705808 7.856845638546341 8.656257810718744 0.4008599225451354 -0.8391008568418903 0.40467672518806436
Ni 8.008127763400438 3.4726452234355523 13.176522139536845 -0.9333875806416184 -0.6672022987949542 -0.9280021479599888
Ni 3.6382708849462007 7.063582437415134 8.490561837753898 0.15744767272892884 1.7096707308263392 -0.8141657841631075
Ni 7.134015764801193 6.5443839098902155 6.440443893377242 0.972926519276505 2.2181572888132184 0.5033523220841074
Ni 2.6099986793009884 7.164615309668503 0.7659748570136319 -0.8083710318582012 0.9196869432260741 -0.36045272237268244
Ni 9.324030065882022 5.2634404624362645 7.228869666459572 0.29079228176206695 1.225271295695651 0.33425806625518556
Ni 3.369699879627977 5.2009570168049475 12.517883811017017 0.33455400022904963 -0.030083192538625608 -0.43596319400617173
Ni 8.460942903301147 8.37432856658881 2.529737685590052 -0.4020621703833527 0.3022444894630666 -0.08355236810135934
Ni 2.8484482576404546 8.022433800614749 6.199707786547232 -0.4629950013129832 0.23145533456464654 0.9672536372614439
Ni 7.19877730154855 6.53030286932934 0.6308034300316154 0.46131889916214097 -0.10485061535850329 1.3174561426610276
Ni 2.1203872117029174 7.066423020164764 11.646967702382621 -1.2199902498023698 -0.319574753211398 2.4756825809920397
Ni 0.3324259930494445 1.1742950337252405 2.861292754093488 -0.5159535557878856 -0.6602155830644758 0.7516450399210669
Ni 2.958077877027194 5.800488724467113 10.028555524384089 0.9469357516396982 -2.572739154227421 0.6598929096177345
Ni 3.7252695909414926 6.766127486712051 4.473476274736064 1.82782063439691 0.8566782036040214 -0.7887051779981579
Ni 9.394735264224316 7.703594792974678 6.508459444224918 0.056511304823167186 -1.274442100993347 -0.08509837243224054
Ni 6.078856459070367 3.290163562638316 9.905381106460496 -0.14884013356557593 -1.3032937351177167 0.4413275436418786
P 3.7919998484064155 8.267727027162897 12.056074429895201 0.8582753728878121 0.6083705733687265 -0.004111965285844531
P 4.008859122876576 2.2545227165930717 -0.054028258892399275 0.17696285994372105 -1.017100642690558 -0.6139758353706457
P 1.7730111285187 1.2669374057775544 10.505293433461391 -0.1616344571167668 0.33731330814174165 0.8066283381354817
P 0.554576438819577 8.690214493152531 0.811814175207013 1.1691649396203865 0.20934744692201365 0.28255909521899725
P 5.836000696267777 5.875759479902048 2.4109132029662246 0.7800415887858889 -0.19656700732789373 1.4182063626979122
P 7.798852751123186 1.381207581141413 3.7674180265324657 -0.9633393898087023 0.6373574475193798 -0.44802038228102203
P 6.0452475839633495 8.697770630763761 0.6365970938575949 1.1161667901568004 -0.10630328864462982 0.0025829302358278093
P 5.600982316893211 0.9450421935949752 8.921787611271357 -0.15261836966108555 2.0413358395433683 1.8063609218612375
Ni 3.6255960734693007 0.3178771469466327 8.587583207173711 -2.5410773043477657 -0.1798026433853613 2.5871668996169763
Ni 1.0341314934951107 8.68049276275198 4.672568313473221 1.5364850785368636 -0.09105510423630771 -1.944041439265568
Ni 7.7906028738305295 1.580610865249156 1.3894077716731028 0.06377981346012242 0.18117998334886218 -0.2253448507915345
Ni 5.723736741063724 1.5323397082265526 5.19086779187045 1.4981054503174005 0.6919669073341438 -3.149841513610485
Ni 5.477449779296233 5.632322475744749 10.873923263020815 -0.293985591888384 -0.4421215002980837 -0.6503330338434412
Ni 3.9323321361266226 3.1281284727220857 6.717787893207361 -1.9784754525737218 -0.13183794258062456 -0.8335727279348096
Ni 5.678099919858435 4.955588791372321 4.954618493304379 0.05464905480344782 -0.9493729003262812 -0.6868486122709719
Ni 6.583458328703618 9.131723551218077 7.554086391738501 2.7421087752049162 -0.7828533472030711 -0.44645946555180527
Ni 8.420106010702495 3.365565566121089 7.974705448018561 -1.2098570180231099 -1.5326721325486765 -0.075533868672257
Ni 4.635868546839625 7.703407295763481 1.9008879764991071 0.012396573892139941 0.1584653153601658 1.9859036267169932
Ni 1.7867265495177425 0.601295118933471 12.928226145151383 0.2955135984971362 -0.9879312202154533 -1.0113855945836518
Ni 4.813381531540147 6.423391959504953 6.666443656893243 -0.4407798986685248 0.6368159731936129 -0.6514751178676845
Ni 0.7573809223384288 6.389314341369944 9.729710281859981 -1.3647510710922497 -0.41244479916925747 -0.31374786211697575
Ni 8.428177765644515 3.608158832828003 10.139956054930579 -0.06116731553793981 -0.8652176085336002 1.5357705689683423
Ni 5.865428383565106 3.1786120968368103 0.9664656249463157 -0.5017749502946585 0.6324304425314076 -0.8461289673332654
Ni 6.1063904245346095 0.28551512829407383 2.6125027045565212 2.1734188082552635 -1.4456593167025427 0.5829729592312283
Ni 4.379419236225271 1.477946767258376 2.7422357749277757 -0.18343175549751634 0.7808180619405971 -0.025758597021342738
Ni 6.624604591700745 7.248660934587445 4.254351096468591 -0.12194896560168676 -0.3992743232255704 -1.8487177895608935
Ni 1.8451975548294486 8.54840097746387 10.05041301177935 0.8083247520012982 0.9180002995522706 -0.7712201338395168
Ni 2.0405602740359012 5.710265066439237 3.5378923779599094 -1.6409693116948838 -0.9274298203962865 -0.25292430307169994
Ni 7.300025795594794 3.533244322094342 2.8797893539780475 -1.5313392726698658 -2.750799875221011 1.7944662273061804
Ni 1.2838402793669412 9.202297501512534 7.863496164627489 0.402596445620268 -0.02366906148216569 -0.29571131633023917
Ni 2.4170827987006533 1.9072685065961323 3.8796144827404886 0.24603040416534405 0.5722702281017434 1.5379426369189966
Ni 8.773641377274524 0.6169455111520636 9.33411929081652 0.46212056912782995 2.2025792318693034 3.349378145089664
P 8.006768408619262 7.0655792827143795 10.793545083552882 0.3059317085066667 2.384831879457054 -0.862561916078308
P 2.1381525724638095 5.001272486880409 0.7592296448408287 0.19034416634663348 0.025835215895549053 0.7865284820618131
P 2.6775351747740577 1.2277129891951941 6.886721943009576 -1.0938665839977033 0.3157972884468368 -1.5447519465313462
P 7.07876971152207 4.617990687752015 6.902734204845779 -0.6280199721685378 -2.4640010308890536 -0.013899383689911546
P 8.659586823703544 0.47898131320927156 7.386936377900823 0.138057184017459 0.5157455535421376 -3.980968608218279
P 9.195519477327771 6.862819798526214 4.053103777288729 0.3060399519497568 0.5246456842452448 0.6194301736169976
P 5.8602909599783155 4.692895823625116 12.789382585288077 -0.13030967886155623 0.533561498677636 1.0269235423182508
P 5.685843554680861 8.501348552314045 5.687186034713029 1.8946441197793629 -3.163402540124371 -0.9796265570045001
Ni 3.8853078355584776 9.324573807794494 0.29486936416067966 0.6873576906969066 0.6166469544449058 -0.621940084523045
Ni 7.606808732554916 5.578285779477846 9.297373587366181 0.11556748755537516 -1.2297270174741597 -0.4683783771120837
Ni 2.213273330129787 1.0929306189264112 1.6700995342091403 1.1913941833322321 -1.1799085512901357 -1.4445521996812927
Ni 1.1298300700899313 2.443154285917561 7.709051899306559 0.08244756507295478 0.02186029040820106 0.684301420369086
Ni 8.126288505896628 9.08829919710491 5.114194557295764 -1.427810975667212 0.6051433246806804 0.5168894373385937
Ni 2.863054290392681 4.980422796995331 5.685703869258519 0.0657932443457254 -0.36398721788850213 -1.7047506678169027
Ni 5.2160317925851665 4.792634965121226 8.38176751844304 0.18608719084249242 1.0249777314457895 -0.3587897328479628
Ni 0.2298809557877744 6.7309436350309815 13.445043458094101 -0.4175597517983196 0.2400356200344898 -3.0556733176664923
Ni 8.16319733192071 8.95799801018373 13.440803208662889 -1.4578437745838764 0.32099965858338264 0.7598548294253689
Ni 7.8053589043517135 5.514799223766627 12.089965488305069 0.2568048690730287 -0.46647241833862235 0.29275480480507643
Ni 7.72764131031066 2.399242439055283 5.811320438357949 0.7651911540366176 0.6366156842573488 -0.13180400401889558
Ni 8.670405412789595 4.749913725550048 4.919135583571449 -2.015173322215387 1.0529389925454058 0.7015841187089337
Ni 4.644155923574521 0.47136705146257163 6.693447005249799 -2.63688380722613 0.9685967815528996 1.1452058577016275
Ni 4.467833546165098 5.609241569046429 0.8360088153398415 0.7121174141400897 -1.4341348610027107 -0.3006555477093919
Ni 3.4894449735587814 3.3012727724017235 1.7684380715376113 0.5129299384702134 1.494706966158813 -0.6809384174341241
Ni 5.872675150777861 2.513521989279701 7.314406831693585 2.6283284614569506 0.025026603951324642 1.9858650601695738
Ni 2.2660912945239113 4.609553313248161 7.736425554655229 -1.8402377771143403 0.8540209684868325 -0.03833489102445656
Ni 0.730720693878363 2.266325666037907 0.27553090179784695 -1.523187590097009 0.5998005723115283 0.12432955001872137
Ni 0.5864200276831768 1.6450442818769186 5.483908120735905 0.4197567594496384 -0.10527510449043159 0.08510865684488568
Ni 0.5551333055368313 6.5072969615154985 1.8254222239645272 0.4711970775078014 -0.3032114813620262 1.8336876347006483
Ni 6.082822025087178 1.1935134978729074 13.218398704171584 -1.0596251463163298 -0.18935043497479648 0.5916046667642972
Ni 8.024636892846312 5.540280094768265 2.76368170594446 -0.4211001608514103 2.1988755577654713 -0.4718187702522003
Ni 1.3111679978988675 3.238470581511373 2.2740589885137172 -1.8443641405778881 2.4927091974570232 1.03435583022658
Ni 2.791777225556237 3.3395128286253004 11.069393793123707 0.2500775776515241 -0.55416040587491 -0.28322115428302835
P 8.648880732944209 3.9156823837723516 1.3388200866061641 1.1086751097654457 -0.05408778298333911 0.8984131214489625
P 1.068602855773633 3.840139757381181 4.716681719837536 2.7405961952151316 -1.078642053738465 -0.6185179462153735
P 2.523468716333689 8.655518134220573 2.8756044162241357 1.1531297405343948 -0.5199559920790594 0.34222308673853324
P 3.4212241132648438 3.797915385419673 9.075175329807193 2.168531141145659 -1.2303682506025841 2.1787273649523704
P 7.583718450996036 1.737771027674271 11.914693095278347 1.5041380296647258 -0.4967505004968736 -1.8524343191805324
P 1.6245695864142338 6.669913292786439 7.67367867544218 -0.23675514951100518 1.1993293790189086 -0.27293648452756863
P 1.1569796662712206 4.8814523940651275 12.271508725560265 0.10077310285501997 0.5406034931260819 -0.053816274489507314
P 4.5042830040217465 3.0426391192769273 4.357807370176678 -1.0024648950552542 0.7477058527676607 -0.10201571701286946
