# total energy = -381169.7593684608 ev
CRYSTAL
PRIMVEC
9.25972423109241 0.00000000000000 0.00000000000000
0.00000000000000 9.25972423109241 0.00000000000000
0.00000000000000 0.00000000000000 13.55254239946760
PRIMCOORD
 96 1
Ni 5.376797810399785 2.1431909683043777 3.9855992381588146 2.753855374217883 0.34592856061457844 -0.43413796787197484
Ni 8.460054509043356 1.5446886882027873 10.877337946476645 -0.28194948665945635 0.08080411593226083 0.13955382316764353
Ni 1.4288310177667836 1.1557061898271763 2.531601215718277 1.510750649885237 -0.8948837681394654 -0.17357877396283655
Ni 9.092123289730825 7.7686771942172514 4.5055429432754295 -2.1838945109756063 0.05650410573431559 0.1725243645563932
Ni 7.637226148060801 2.1995734295643543 8.110383244209066 -1.301615061863713 -2.04520226447731 -2.594006034025997
Ni 4.850271367278618 1.600422968761795 7.887566498388928 0.44455607788150536 0.6165250841550608 0.8150070491174802
Ni 6.697660442833785 0.8042237229198939 2.0257665525168895 -0.2315484084990851 1.3713775752698316 -1.9716072646989788
Ni 7.512571739540221 5.297960517713394 10.48676740538366 0.449174036269491 0.017647794988750253 0.7135441192842873
Ni 5.711203493753833 4.179932146061097 11.883303282710894 -0.34738200523165336 -1.4042848675208137 0.8463673085963166
Ni 6.031256604443573 4.615602174355054 4.604584954383446 -0.6702305440983166 -0.14469294416642176 -2.518370092558237
Ni 1.636221062903866 6.573367163560888 12.5158276418339 -1.4950700059251865 -0.44536957492173623 2.364125757257954
Ni 2.5952044099870446 6.887410713180219 6.711313906313475 1.8082334562936018 -0.7752495667138842 0.98797261497635
Ni 8.783005913438856 9.064020026481682 2.267096265129123 0.32396491185929366 -0.12202866979968661 0.5673288249360681
Ni 8.7676069919287 0.4432213334602412 5.980127184778734 -0.741070349729014 -1.431142096922974 2.1648009846792653
Ni 6.200561403536596 5.345111033846716 0.5697406504547499 -0.6704272334901551 -0.9497151141570481 0.1079739914788334
Ni 4.101159671444803 0.34687945795797476 1.975351057595545 -0.07261926612862332 -0.6869298591308686 -1.4845367104940304
Ni 1.9061698054087268 8.350937917897426 1.0225624660687673 -2.319545399544418 0.7694036494560684 0.4207162951494303
Ni 6.375301660793456 0.6472352831177067 9.76197730139505 -0.2800216735091242 -0.5527452706949383 -0.820857080140354
Ni 5.569557491143574 6.045072113098507 7.10248077365135 -1.6911994114950293 -0.5560393680651778 0.6715091537004242
Ni 1.6909460335142226 0.915038547502361 5.574811458711141 0.4495350191533355 0.9762679249449122 -0.1849967859917911
Ni 8.989081077725402 3.425144239231656 9.241397453219054 0.9433567760391882 0.21912560935470005 1.083661361329927
Ni 3.484925019309568 9.185340934254423 6.80375558594077 -0.9751638932474559 -0.18117175581874603 -1.1246231484542697
Ni 4.789259043868865 7.527979920774677 5.273484288472385 -0.04657964753175204 -0.5815421403219726 0.05634366889705135
Ni 6.114131136924571 0.7070901409900155 6.174986045021232 0.9486715033838824 -0.00928142530192595 -1.9042698157945845
P 3.1954382585326515 5.936612962377845 3.6125656889167534 -0.5899938706337516 1.4278811667835152 0.6019091340140988
Ni 7.871367536699291 6.149845893547946 8.206918647949193 0.6555593152393872 -0.517927905905437 1.0133589162599386
P 5.283913515950972 0.7133960132380109 0.2072631869141786 0.47923511732092955 -0.8550303835879532 1.0884739522272222
Ni 2.0544735497903632 4.327828462573554 -0.013528457201646539 -1.1715349825144596 0.5574740436291754 -0.7123603833888312
P 2.2254913978788027 3.795746184872655 6.5489955692044655 2.332411199763493 -1.3979620106265795 -1.2611232723972539
P 0.28198545812184933 6.0375069183457715 0.9915488714722753 1.6692077377152865 1.6600726081832378 0.27712763979078076
P 0.34351540011994725 2.353053359829441 1.0281636732975667 0.7727167729897015 -0.5824003745572099 -0.2824076572427975
Ni 2.1814984477316277 8.10615710603875 4.897549667607274 0.2179706698146504 -0.7536664412264698 -0.5044311569705829
Ni 5.875878430697079 3.182150554162793 6.225780262666428 -0.4874071116087606 -0.48364867300759296 2.064659087650341
Ni 7.12960806195932 3.2161059631692535 2.8336200873622084 0.5280359408737164 0.3282745949782411 0.3133282580810539
Ni 1.3765506143715087 7.042696289683719 9.01128867451302 1.4868648444065746 1.4560763982708085 -0.8417920305208083
Ni 7.704470265924153 6.724559941923985 2.0845574680671803 0.3189556315701604 0.15811538821991478 0.28721330616155694
Ni 8.887381525743415 5.143137927424872 3.866838644154901 -2.4677782385432985 0.10634159808173298 -1.3849751114486082
Ni 3.992867195761533 0.22274822386032064 4.233326494289608 -0.3673623050083221 -1.2341580566623196 1.1658009082441598
Ni 5.372797609502379 6.420248362543484 2.731704783804041 -0.7019214474436943 0.06699343530141365 0.5081476865902216
Ni 8.737151758707471 8.610738002569978 9.769282297894968 -0.413083718304837 -0.46893527805681817 -0.054928019496447336
Ni 2.4107692213885534 3.332584035133327 4.2574906708217215 -1.3415458366203799 1.1105399308883261 1.1448240488821768
Ni 8.451683718276561 7.896405831205282 0.0901110070210974 0.5543964331451162 -0.48708340972075476 0.7052744230763273
Ni 3.0342264584774385 0.8783635574691225 11.350362628567426 -0.6254948917538389 -1.0943784906371152 0.13340374440584765
Ni 1.4761019103160002 2.605547522029645 11.692781677330306 0.3611266085112555 -1.8815677462113787 0.9996986451640267
Ni 5.726157948497611 7.587973674511479 0.578891110007568 0.3477501872043495 1.7452499134825297 0.33796533990344374
Ni 7.652245420874676 5.231762748695892 6.080619268712059 1.4378431630922333 -0.3954261531240738 0.09995009273309237
Ni 0.7639216988785205 9.067112774397733 12.05978436813607 -0.12653067143509822 0.2833759346933377 0.11905338922144659
Ni 3.1163324338415723 6.370560681952084 1.3360078374983473 1.5602973504651128 0.2551030558905736 -1.0392100729950875
Ni 2.4395577042358627 7.775409013783026 10.911409102036847 0.9571384032043128 1.2519248937274374 -1.2391879057767434
Ni 3.637599353560594 2.93999950400519 1.0227022879056906 1.763723289696369 0.6885116017956917 1.4789759285768012
Ni 1.3265388434296244 7.131395188749133 2.986953713983362 0.2936554622424749 -0.913492127269272 -1.3174890527814922
Ni 7.164924650437815 7.477699617828106 6.4877647163012435 0.9403362440453096 2.104487018280556 -2.2183647768383343
Ni 5.260458634300205 5.202214968456018 9.789611096622204 -1.0494271227374055 0.06794294369887653 -0.5776194082287988
Ni 6.274602159035819 8.72993843347812 3.6011678942764336 0.23941109907661345 -1.6565483970800632 2.196207266904689
Ni 4.704791838808346 8.39768100616157 11.021360920314597 0.5476550006562245 0.3677849943680375 0.16971723412490128
Ni 7.93910241995052 3.025753810743348 5.19451365575608 0.40905197143762456 -0.8287717070017404 -0.891939855019793
P 7.918388416692419 0.9972908265104281 4.256135047184267 -1.2237929113779118 0.26388671562047455 -2.782613677297498
Ni 5.36326935319814 8.400736715180422 7.683329389375844 0.07895137899423821 -0.487020160582987 1.3508128637446029
P 1.1898653127682262 1.4547860249784297 9.952933187845286 0.5438045165618828 -0.9384937915199322 -1.2674301884518882
Ni 7.997114592687217 1.2932223553998339 13.47002093353692 0.38806045678762197 0.11208569965436181 -0.3507930877957314
P 7.461624736444082 9.158811824136205 7.881440264792345 0.5738558274213085 0.29370688430570063 0.6406219772032645
P 3.5101114694043516 2.0330835866583965 3.1553973587165256 -0.8532118423219757 0.10417955743340768 -1.537851876977403
P 3.9222710577017437 5.655765524372411 12.867868470116445 0.0057171049894353156 -0.27936012866572535 0.8344628438492468
Ni 8.435108811780362 4.293734157702601 0.8225690887021676 -0.4666806776946866 -1.4877315632822443 -0.2733244639946067
Ni 5.399002629270113 1.5416329791839347 11.88624417114843 1.6815778292448653 -0.1321989254644691 0.421585585128261
Ni 3.0551349159458288 5.449264412768085 10.921899443695812 0.28797563824887823 0.08359556263446893 -0.01875465489968383
Ni 4.144282207507819 3.981033268106705 8.037091600405676 -0.6310384472798874 -0.20187119314962657 -0.9165041746227183
Ni 2.4057874897153937 1.9742102595618403 8.009294834030849 -0.039919976123389316 -0.21180696420609976 -0.20688381587286953
Ni 0.33107496052349816 3.0811547412275715 3.079489842798512 -1.3039236553922318 -0.20282275842961842 0.4272836639543028
Ni 3.5829577204689333 8.471962514492581 13.207467932830113 1.1650411472600002 -0.19841460205959377 -1.2743446561835343
Ni 7.3159322343149205 8.659592307974417 11.706524034163273 -1.668883264496332 1.1317021667882379 0.0017236675593260637
Ni 0.41899696872018133 7.126469015421772 6.764521208111135 -1.6343741749758693 0.30448983385381756 -0.5732603599291547
Ni 6.496474412977402 3.0669132852548597 9.814602166534268 0.09612274856720221 0.39464350932177844 1.3143358518644912
Ni 2.2293619626360157 3.8764446821432568 9.502026283216416 -0.7543395560340944 -0.28505743616081874 0.09409003440788957
Ni 4.295780556772802 2.377962018195238 10.16607352177239 -1.061082961808779 1.1056687188389538 -2.280693202563911
Ni 6.242461655992072 7.2679113040974395 9.629894742041369 0.42690776867212277 1.0444648936361238 0.014865090037290528
Ni 2.6380584140453744 1.4128394739014558 0.09076103966692599 -2.9151170213762634 -2.622123875308136 -0.7371964685959046
Ni 0.2993622567423899 4.305225475558346 11.441531096103533 -0.9957738561883237 2.6188099804435545 0.48502369897824854
Ni 4.073565693032135 4.303771698843316 2.6334896660759752 2.064577326569812 -0.11910635394656909 1.3239661758654038
Ni 0.3218180141412353 2.4564752205311455 6.741265410532808 1.0734761932668093 0.9410247854719019 0.4759713589679931
Ni 0.943093660185146 9.0905861754971 8.005351117451669 0.753003096610858 1.6592724808794457 -0.6943485201924429
Ni 3.708297348587679 7.004472147775165 8.714460804311416 0.9913273903811959 -0.8640112469303248 0.9730810425764982
Ni 3.873518609264598 2.002554275642771 5.6306346326234245 -1.04186576545038 1.26704555141896 2.080878891943313
Ni 0.7869848941914165 4.707430860233718 7.57679255741977 -1.4787869524944468 2.231511084412305 -0.08091287359598323
Ni 3.5993289130305426 3.087210600919479 12.30672547367383 0.8967390761806493 1.2066367113135994 -0.9092582916935825
Ni 1.7417541407458683 4.756220347568061 2.24500534086768 -1.4565556519000722 -0.21307991738125237 0.8070345724349649
Ni 5.744732955442513 6.445999655820541 11.946701837072641 0.45381564880656033 1.1282797713702504 -0.03655311653368543
Ni 3.967171460830275 5.0681156411498955 5.505747805022928 -1.4735336745153074 -0.40281704627150633 0.12494584344648159
P 6.370801434783872 4.321874459848941 8.017196156775658 0.781333311014119 -0.6438533396563686 0.4331833172681894
Ni 1.2747306859736272 5.551704742694038 5.09826345152438 2.4146690174231447 0.1396129585403531 1.3188764200473222
P 6.99174002686328 6.39570083342537 4.196422789066172 0.9484768708745729 1.8750613125514286 0.33452109010858516
Ni 3.5275753094333084 0.05874924679094225 9.157059884298729 -0.4487834856992916 0.224578147828839 0.28542099014782457
P 0.2642188251082975 5.5777708665972785 9.569964880402233 -1.0187685173112841 -2.8481832356681918 1.1147747949052802
P 8.36408672640279 6.893836961844108 11.727326930774648 0.5331598923638431 -0.10519385763053497 -0.2123831484245439
P 7.631725871826866 3.2346994895627548 12.006075189281374 0.20575355892316824 0.27656611086035593 0.48700704795686445
Ni 6.245517365010924 2.8466244441685005 0.7846486657506393 -0.7529557883126904 0.07786560212922719 -1.4710674723630022
