# total energy = -381168.9981506778 ev
CRYSTAL
PRIMVEC
9.26258063297687 0.00000000000000 0.00000000000000
0.00000000000000 9.26258063297687 0.00000000000000
0.00000000000000 0.00000000000000 13.55672303235728
PRIMCOORD
 96 1
Ni 8.484088669783546 1.0153548445094918 6.677662185952243 0.2827827811940291 0.6700060867923364 -0.5086765625104981
Ni 2.6706243460381387 1.4529284239936404 2.578204167350622 0.9615295902934731 0.23347442187720435 0.33364640081311575
Ni 2.175687603671211 1.7674115672515271 10.818075631810846 -2.11446726942172 -0.5133418291966514 -0.12483682867244308
Ni 1.7612334258591786 3.7226219601850064 1.5867606751714864 0.38886855451121416 -1.0467575463250425 -2.2232974382532613
Ni 0.07323552133844267 3.2599097364147505 10.315202710216086 1.2177017108785095 -0.5815094873118243 1.707446469481511
Ni 2.1258363938157108 5.80490569908794 2.3046560736719623 -0.72824568716052 0.3587136281943887 -0.36254277213249175
Ni 1.5691645504292913 6.260550573709228 6.729570615003007 0.050792142951202844 0.6596802793862961 0.026023934867587438
Ni 0.9985895732648883 8.520073796184255 13.067922236126073 -1.9247679357479364 0.07742902881244083 -1.3239497208051714
Ni 2.1618307827972187 6.775244400918553 11.915126438959785 0.25451041661189716 -0.49612289421520367 -0.5037148476298486
Ni 5.133822457683101 7.981556611162157 4.849646478796674 -0.18922522225084187 0.7552733807022733 -0.012437711542720517
Ni 0.012417415817964263 5.635678347906226 11.66599450826498 1.1997327851049144 -1.162508096425501 -0.4824991327841819
Ni 0.17339273376663106 5.3982876646311215 4.975182236353641 -0.8684751962389494 0.42788787319720506 -0.03297336960222708
Ni 7.227443595482939 4.195087681535686 5.6429318749292365 0.8913389882110005 -2.1580333269381287 2.0589957187169765
Ni 6.902549311407961 0.7025473021179857 8.70563941363578 1.099132717492649 0.6937497102661794 2.1863799964016217
Ni 3.5112220786294355 8.912835009767083 10.513591444524533 -1.2300959707778043 0.2970084378751078 1.0262920793818389
Ni 4.101869068383372 2.510613262750556 11.45242162525417 0.907339991624947 -0.17641881451479294 0.3091417308035321
Ni 2.8433807405039384 2.640030041661937 6.98903310206196 -0.35335519209595273 0.08233032276880015 -0.38103697428193734
Ni 0.4080880060294824 3.4093429524308756 6.204532337558338 0.7006582644605546 -0.45126357180866794 1.0846885170428608
Ni 1.8662618295291 4.068736816868484 12.610978747676887 -0.046514855732087634 -0.553812278506872 -0.212835148360298
Ni 4.15938043255892 0.4069394460105151 6.627610904351504 0.8091613889699806 0.31046044961495567 -0.6476002082933104
Ni 5.695496094700507 7.455201194727995 0.7502940536161523 1.1968647195285003 -3.108424898336911 -1.5483890290633011
Ni -0.04535515313609116 9.339367592939867 4.102346091294476 0.6559089852693221 -1.5943138166198736 0.06506305104792019
Ni 5.937036414173172 2.426509029103596 12.875158667136326 0.8868729820198469 -0.22818926221886507 -0.23783141329431942
Ni 3.6673706657242002 4.004158103543968 3.041938980040991 0.3582058353200347 0.6786946157052698 -0.4503721703426502
P 8.914585637537927 3.942172912842926 1.9838771542455917 -0.5110694882227069 0.14670560372107636 -0.24509375128368757
Ni 1.2385274662594774 3.5929180412688844 3.8077043223642493 -0.24313508489542 -0.5603703913403639 0.4575589178990765
P 6.307095042219799 1.5520009882103687 6.853696607762498 0.3308086742540045 0.10205505489123715 -1.04582063633307
Ni 4.966669924600166 8.655251900352068 8.74429031079019 -0.029275351925349583 -0.4447967331374017 0.007129411955929658
P 7.3709024468842745 2.224723706416477 10.721470619118739 -1.0480914346451176 0.724198770784656 0.33923160821037707
P 3.9525655284984205 6.264088879574111 1.405723533472164 -0.2695297728388648 -0.5020575145320838 -1.5465056959976593
P 1.288397201276574 8.30642310749474 10.544406198323731 0.8860579423177192 0.6378937796388241 -0.6927665204173037
Ni 2.5863626485176097 0.367215941999683 8.309295433800237 -0.2819276322825854 -0.7995207805564232 1.284301767396246
Ni 1.6815752309953174 7.222312125720778 4.125324701738459 -1.006439563432286 1.4464072506121606 2.4454682621921884
Ni 5.463598121838689 5.926940201103217 2.795152334804269 1.5873111600497953 -0.9000722543189402 -0.3282080034063638
Ni 6.40008209085216 4.643813408300775 0.47681265051923893 0.02122625636862796 -0.1617334445884763 0.44077424224156997
Ni 8.786965799301385 3.348182131420867 12.946833443610284 -0.3297977164909869 -0.24975104755004082 0.7726676649193209
Ni 4.526558397977331 8.146838102923871 2.4897604145997407 -1.4944915077138972 1.1995335246099148 1.3444884641884716
Ni 3.761024620174026 2.4067797320035926 4.654131923309884 -0.4951564165368763 0.04982566527287548 1.1491882393881436
Ni 8.830685180668526 7.675215276425821 5.870169843391518 -0.7928757644360798 -0.35059254174915105 0.5011838536778787
Ni 6.648235893014684 6.311550343583696 5.5622418285644635 0.8830116992922278 1.1781779417522742 0.5401445512117923
Ni 6.374785982692485 5.121873728453521 7.79289266043366 -0.82993461696159 0.33164531122268687 0.37114208376572855
Ni 7.3267014113156295 2.226400233540937 1.355253583219349 -0.47595413257681257 2.7796607653167613 0.33981601995893734
Ni 4.285027341085464 4.799619279906009 11.413134388798928 0.31782408906887843 1.256662665522739 0.8821223547087389
Ni 4.840430210902541 2.4325111814607796 1.6225772226016701 0.47621535665799924 1.0774632029390152 -0.22264622091344882
Ni 5.135712024165918 3.2281483468579855 7.205778418996128 0.5525899760639966 -0.984793188807104 -0.17083617822069289
Ni 8.766875261550254 0.8688319313801369 0.22086438661509344 -1.421218924271991 -1.2510594604033487 -1.7401868971373258
Ni 7.159104274354384 4.618822965307438 11.669518920258664 -0.8612578525549038 -0.5925014675469539 1.1681776360064526
Ni 1.3460197164216998 8.455948949318847 2.110361400076286 0.5573169492260208 1.2663390122702383 -0.8590752430812881
Ni 8.090206683924144 2.757062750046226 8.362559904679847 -0.3012906101902295 0.7067201543839183 -0.4887451136938938
Ni 3.950675962015603 4.233295827327945 0.22020211208802762 0.3114860626659926 0.5320980267582319 0.4855811141436153
Ni 8.31713065089737 2.356030051810674 4.527674538963505 -0.04657656220795849 -0.1262095406502536 -1.171341635556731
Ni 3.618232674590155 6.323202670227735 3.9515132993197537 0.7239385751447338 0.28164198272136654 1.0933202245759301
Ni 4.974311553758617 4.744099370602058 5.057159781449352 0.3199100250636297 -1.009456495881739 0.10183316868841817
Ni 1.2083499780191913 2.133107519742238 8.519275361719457 -0.9165062315052473 0.1475018743701266 0.11595958078747126
Ni 2.6720600460618473 4.771970476223611 5.43639484829268 -1.5206810216250715 -1.3265002551411669 -2.707082122618086
Ni 4.9482559139734965 7.027242174112298 6.975137378348615 -1.5323229767393738 -0.34935584112857254 0.8240053959613487
P 4.778352394393519 9.27869768871216 12.524406036247228 -0.6210376273134336 0.5701526675381083 1.43294212624619
Ni 3.052168574274438 1.7174769941688437 0.22535766456026313 1.7307632898305805 -0.4628872720905254 -0.3857544343622647
P 4.560792896607195 5.867029828500955 9.022609559837962 0.5338795441386869 1.15233244144408 0.0840241655314553
Ni 9.288145521126246 6.807543020161609 2.8198797205029393 -2.9410784784370314 -1.3189265565589674 -0.9653016557413957
P 8.332367596310283 7.925555047656703 1.1264576486668225 0.2649552660943049 0.33413259642091486 -0.16467015861929704
P 5.955089184148714 3.291152421446821 3.486301104992084 -0.8712725564784285 -0.2658335549342002 0.28786765191610425
P 6.825169711420438 6.632748857920222 10.998637603115224 -2.922146160308903 -1.2683989801230606 -0.5436091127216252
Ni 3.788738261922011 3.8751859285108976 9.388342562651866 -1.7513421424231965 0.5470777879965159 -0.40953636727321086
Ni 7.121266631794049 8.913659379458116 12.59225721936772 -0.49766684166355585 -0.022659903491360975 -0.18470907954804316
Ni 7.412889725642168 4.886317036176445 3.5441477745925245 1.4038302964818983 -0.21543890453173217 -1.8704729218497982
Ni 7.195172763982277 7.325960404851779 8.712811429947767 -0.15862240976332037 -0.3956722076966089 0.6426009553065062
Ni 7.074342397470756 7.386658096821882 3.640481393667248 1.0035275319918135 1.2137877205360839 -1.0182548108996594
Ni 0.4259564506471423 5.777544035410285 0.43741982064289986 0.04566304925475362 -0.20392293347233267 0.8743995321431844
Ni 3.1526768385148753 0.051320255170082645 4.404334939313773 -0.6717117566295335 -0.06986844285636355 -0.2826997345619196
Ni 4.619675122740866 7.24165239442726 11.843600790036676 1.1721821291801553 -0.3495211630618432 0.07030630172473053
Ni 1.3409623473059247 9.134822021174909 6.557563563323774 0.4780997181649056 -0.03201280546117067 -1.9665892426590972
Ni 6.614927652464633 8.692320748706159 6.941529956438783 -0.05900347511740161 -1.771879600254916 -1.3893459868227944
Ni 8.484579586565847 7.67655835064155 10.876993055751548 2.104113179880905 2.098711292139044 -0.688718061379543
Ni 2.899030325939064 7.93178876453384 0.2935367430410102 3.069208890259082 -0.1494566841036523 1.0929533281548143
Ni 0.09394202071264758 -0.08414313648631282 8.576186510659287 -0.03192075996799664 -0.25590446874594636 0.7146296390389821
Ni 6.204558272784572 3.7269290602561336 9.804669634301279 -1.6537561790469066 -0.949522538530268 -0.6471327817385887
Ni 7.615314166404357 0.40117163694752367 2.5344162428855737 -0.2902351237070163 -1.7318297834218817 -0.23879557697980164
Ni 8.875219669145904 0.8495444593842045 10.782936179037005 1.0494525766587022 -0.9681239556815391 0.8528179493176666
Ni 2.704432765951289 7.3696056855725365 8.77627029725379 1.0500945811180755 -1.1472501418251662 -0.041787882570063516
Ni 4.070969098840832 1.7444774171953734 9.067319111092425 1.566397806935896 -0.6895428712736834 0.08218145589576169
Ni 5.3274474466870725 1.1471613692667881 3.429281583856916 0.4033688050099182 -0.9424628034700092 0.23980036409523217
Ni 5.739011699290091 0.6349971528734312 10.763970118594768 0.2484428702615786 0.9565604192136556 -0.3349502072262038
Ni 8.172754803997021 5.005554238790688 9.555347820700112 -0.345651909914424 2.1228104991800922 -1.3456254060063921
Ni 7.596177674475434 6.611889525962848 13.026208203501723 0.1563238435371308 -0.2571679088394023 0.9149111191039856
Ni 3.6713628380481915 4.948107712680726 7.28099057507689 -0.028677570440350613 1.0979816346073412 1.3231043420857407
Ni 5.712826383373796 0.28679358421997636 0.980886002585435 -0.4523210665389048 2.9617126097476154 -0.32894256757954315
Ni 7.007531402173893 0.33585747470763616 4.886114185656966 -0.6211124464154271 0.2334623376923463 -0.31140430158546367
P 1.309126857102774 1.5040486074184836 4.6209857779238 1.1897489344193253 1.3342295054646247 0.7706987141184082
Ni 0.4684957792206039 6.831949920564664 8.676343723087475 -1.5706079883625015 0.5361313162873411 0.5395462555061611
P 8.33441462666667 5.6777489898913025 7.158071496595394 1.2744588131638954 0.41197351595979376 -0.3387914353491649
Ni 0.5360783474979519 1.655973457669304 1.8809680290622806 -0.13475871577184534 1.2399481809815356 2.2350419803836994
P 1.220780361450273 1.8445688652998953 12.963074452781715 -1.2979579247271 0.23790237574157094 -1.4526699436924206
P 2.9765118143153666 7.6836812752753065 5.860354286519747 1.0617133963039262 0.07709478540147367 0.5242998708700518
P 2.136775501738295 4.967475769129602 10.675201249257873 -0.6921119175524404 -0.5799704249594785 -0.9999084471819876
Ni 1.1276914244291325 4.5834954821433955 8.569028388218497 0.8403506700885915 -0.5075198231982356 0.037073250703213566
