# total energy = -340893.85620563023 ev
CRYSTAL
PRIMVEC
9.05619015069678 0.00000000000000 0.00000000000000
0.00000000000000 9.05619015069678 0.00000000000000
0.00000000000000 0.00000000000000 13.25464969927693
PRIMCOORD
 96 1
Ni 6.622692161793842 1.954787677396163 11.556835049228484 -1.0890596495273632 -1.5178551221405019 -0.36466933155719133
Ni 4.68425996361889 0.38510542547217497 6.089556970703652 0.5028357874590049 0.03734861585178729 -0.14576972217036832
Ni 3.0360786563851283 1.6359373382929663 4.72069663864581 -0.5140257426375534 -0.19201306940862417 0.9049046427105771
Ni 3.6484582272257935 4.455772288784374 4.725653997076425 -0.10979613228923671 -0.004969171079817248 -0.5050065698580786
Ni 4.848747543405624 4.661501758035889 2.4428320982524636 -0.02059325077031937 0.3416183632749987 0.7968905420224275
Ni 7.007381002523949 6.270795785216562 2.577578244312523 0.7889748867197768 -1.208951218379389 0.21536639942258395
Ni 4.681008791392747 4.508488371036126 11.472906807986751 0.9640816672913654 0.7576048570489275 -0.22544898046956655
Ni 5.738481990563448 7.695397872620179 12.532019177555593 -1.7064473387930352 0.47613385268778646 -0.6501222033842159
Ni 1.734459629792162 6.35189396706924 0.2720570051408524 0.3218895173875037 0.15970484419422173 -0.27520882550151315
Ni 2.7591041400498586 1.6560873611430178 0.17414328961267864 0.5042300967033703 -0.7612229134174889 0.2613073849290725
Ni 0.5293632879364626 8.730701518560801 4.570679944931928 0.4267938688020778 0.8288395841251983 -0.11375177450287506
Ni 8.716347457339529 2.350516013791084 1.583334458416776 -0.013476951440512273 -0.41424637115437046 -0.3918970569248928
Ni 7.0916488508923665 0.5594597243129014 4.93564712060111 -0.20961149921667768 0.423447063817032 0.2900888279371391
Ni 0.6820089936203988 7.298800141980942 2.265246550803693 -0.526579668043164 -0.2541085531877882 0.8105824376872234
Ni 7.623790577934625 4.212658867027235 4.010591721029906 -0.055120080902595396 -0.25693419556204133 -1.0802345950365653
Ni 7.5783918972392055 3.586178808286556 12.76440010849044 1.0537375771873012 1.8865245759960219 0.4913460416518506
Ni 7.910772184269583 8.660660944753026 7.2293645216681695 -0.027660442029745907 -0.26492775529047924 -0.6010272456297778
Ni 6.716505234469655 0.6566561895895138 0.5104458125515312 1.4032127175025575 0.7392566935590429 -0.627614509200003
Ni 1.7680037577187195 6.439123189582362 9.17269430741944 -0.0014683570154103744 0.5275577156857173 -1.636393262288427
Ni -0.1510817016631703 4.7580135753451005 1.3144661377907563 0.030046939984051477 1.1503699184010705 0.6524485375245473
Ni 6.530309967145134 2.063606856976486 7.184683091224311 0.6385974905740679 -0.6144440332563159 -0.6437888049670203
Ni 3.3696453043113963 4.388276504379235 0.3128207277712577 0.31720471031732467 -0.3317247583103706 0.08384547386174593
Ni 5.913972841254818 5.693816861261671 4.891720976407002 -0.7397467458215841 0.3136887267442662 -0.05994244199190322
Ni 5.454470814563241 2.7171196430013915 9.528277458964027 -1.2149362323182302 -0.029357113005878472 -0.6369103326796322
P 0.04926748508262925 5.544978377872639 12.384057333362913 0.4711068317868403 -0.5479985000385723 0.9242519368889374
P 3.872363469897557 6.228313197715622 12.460576705528858 -0.030441347208992733 0.19784690248158185 0.8064396191634433
P 2.2440604998124978 8.450521110949614 1.4209515371964914 1.2053046227657371 0.44555006636365846 -0.6533332541223457
P 6.372288507050506 7.684448938855814 5.845896555067797 -0.28805868488098774 0.0023942112637894255 0.6343055480669334
P 4.8707450290248495 1.1332735098470752 12.623171541596193 -1.2297534998367208 -0.2517865899228309 -0.41895791769742685
P 4.054700800262921 5.884377212187866 8.286210126868756 -0.6594573647422127 1.8424664093345429 -0.21203347839460904
P 5.058262500095935 1.0137951945838262 3.881968465059249 -0.6695260618321244 0.47848126987404044 0.5675756508395515
P 0.3194878948823624 5.490876698544007 3.445188419190492 0.4895023035748925 0.5223188358842811 0.17969851370732925
Ni 1.635792439252247 1.128953707195626 2.6263956367499173 -0.29369531434147483 -0.4818175333361251 -0.250579199878291
Ni 2.076702107781508 6.655475569756623 4.742526584749203 -0.545372375269635 -0.9721546741074871 -0.9801451485121314
Ni 5.931089040439805 5.701360667569128 9.344620641709112 0.3670566008424453 0.4455665214238907 1.3308503045797468
Ni 8.54891661578818 2.456120245905444 10.143107634830862 0.2731154333075942 -0.20960995655478093 -0.1044027291878073
Ni 2.657538968695554 5.129770176690994 6.82864984703449 -0.8536635851474137 0.13587303188194663 0.7348367101144764
Ni 0.4462247464666525 -0.018244600464590435 9.209661675182996 0.3567701313147727 0.16852398514774847 -0.2727094561184271
Ni 1.2905614185480614 1.3700294861926465 11.377605803286551 0.5192193710233509 -0.6889566597529102 -0.014933738491696859
Ni 4.07706958967399 7.050189612866508 1.4565405528352025 -0.5725761893779364 -0.5529949248118993 -0.011732200835263664
Ni 5.70107086948769 7.848193911058861 8.101944733642817 -0.9584992881075814 0.3955395387734865 0.0769538889482352
Ni 5.426251726383123 2.9602511771386197 5.039948166967998 -0.3464996026267 -0.8393623380333931 -0.7049124117512182
Ni 0.9542054640879436 7.423521991280225 6.754555722562588 -0.6040058686421275 -0.6818966675823352 0.9060017324294978
Ni 5.386368265425088 4.361959216108561 7.508453658378939 -0.09380901283236102 -0.290310457029642 -0.9936059020027275
Ni 8.12259646942136 7.061618524703256 9.217840320412606 -0.3749007794772124 0.8155240979632148 0.4769077547393335
Ni 4.489814507163405 0.1930345020464797 10.533933855554443 0.7052991056666756 1.0977265811737418 -0.30522208403415174
Ni 8.257778218222583 6.823440726520626 4.849478377942254 -0.6962999874918588 0.19630372636417806 -0.22723486872539575
Ni 7.186376598762721 6.012531357514193 7.1244268251411205 0.1807143565663533 -0.2729722228615105 -0.691137726564629
Ni 2.3894757433645317 5.229279592905091 2.434574664169463 -0.724178716179998 -0.35281448910113433 0.48309408605570353
Ni 2.2614121599386543 5.284458958849075 11.171336585108357 -0.2793745268434285 -0.6569965619065459 1.2637334563265912
Ni 0.8922384837052572 3.280541450458966 3.588259015139885 0.9626603614638067 0.6798415848255195 0.23596427817859358
Ni 3.921656312312312 2.4674676520317873 2.782892940059978 -0.2063865645214768 1.1858321158634222 -1.450563181762063
Ni 1.0409003713884124 3.603186333191004 8.251045846543153 -0.13169087547979902 -0.3586560354835759 -0.8510863113385406
Ni 3.75496807834465 2.837865824870936 7.033672933462497 -0.13749128421166001 -1.0987323967304368 -0.08932783713255583
Ni 4.012390280372836 7.078100790585096 6.153193006911625 1.1712886708316086 -0.775936822588896 -0.0903634774859218
Ni 0.7529089998634406 7.333286113672175 11.280289796301345 0.0981346367909084 -0.20921246400604615 -0.09832001332883712
P 0.10010440790005128 5.649251350050389 7.969728887081322 0.6675249722416955 -0.8011032945521944 -0.7115042060361231
P 8.625242185487162 1.5274713501243973 7.899969960783946 0.2986053500485825 1.320665907847577 0.32587652705970976
P 1.6226971884472248 3.3270721549100064 10.382406589341059 0.167191382379254 -0.6962125699843752 -0.04564505153262462
P 4.018711501024223 6.347483602517341 3.6547314500699426 0.21915466282042256 0.08097123763774441 0.2936104679371524
P 6.605575962608855 3.988264590093044 10.703898619080373 2.2467937216029887 0.9996701059189365 0.0872663266178368
P 6.370395763331108 7.876648460180148 10.464956478457948 -0.22354302169610532 -0.13994694484100414 -1.564160947185577
P 2.444564547408066 8.633302194627182 5.717352993569537 0.15756928590845765 0.47396409872997725 0.3696552148075569
P 6.822516995136038 3.987920454871335 1.8166690061633584 1.221260631874361 0.8215067979092109 -0.3539077221653131
Ni 5.438685875314862 2.931361930895175 0.5850253488098431 -1.4113006367170147 -0.40112808860485755 -0.6720215745604685
Ni 1.6481722510437167 1.2965294477876945 6.827125690249922 -1.0985585901567338 0.19332690312404124 -0.2796748316926667
Ni 6.8365993706559625 0.7749653507179576 9.316202317348004 0.2451572575317713 -0.9727632542257634 -0.15321229449134258
Ni 2.5352079535681407 1.5750887973808334 8.97696287197757 0.7555721428896148 0.01492679651316139 1.5488101757611197
Ni 6.505812973073499 2.0515530680266347 2.6743771428461613 0.6962958737268008 -0.5097268581518835 0.6443827297972774
Ni 3.764042380769707 6.961049534253898 10.300983290265767 1.3029512641766334 -0.053853298375029834 0.08118541053107953
Ni 7.973549693661294 7.178044903921351 0.3873495493653178 0.4683521518598386 -0.27610871160796324 -0.11520341934773708
Ni 7.582892823691553 3.8869258234898636 8.511248298915143 -0.12189368688371911 0.33272646010200757 -0.6786272528024441
Ni 3.0140630583858132 8.304761732175871 12.494879742181183 0.3822633904898707 0.32958020116354203 -0.08974769827879382
Ni 0.02667953587247266 5.005736597835126 10.17445473105251 -0.2338670293299327 -0.8165587098753164 0.6933383337603736
Ni 8.66821380725053 2.4609471951994113 5.613781876120271 0.43338360620445365 0.009083707468823065 1.4766876467632568
Ni 3.58912207005117 2.5469628882465076 11.26191931479513 -0.427231984780761 -1.007293169681833 0.0843956899382611
Ni 1.1569916715748438 3.507598247266378 12.820838284850675 -0.5476902247695342 0.02621085406741292 -0.5745477112820105
Ni 2.9784360067489133 8.453102125112428 7.898962912450946 0.5887659117639215 -0.07171938002217325 0.9727578549091247
Ni 5.754348435522231 8.0938249536485 3.632397074181045 -1.6255496347057037 -1.457845060135457 0.39808621645474024
Ni 3.183314194136201 8.58598360164223 3.664207847332996 0.7771426699715389 -1.0181928473134723 -1.1228195195866275
Ni 3.4043033436134844 3.997827926780529 9.206082668877226 -0.14929984681081385 0.5427241390135105 0.013378735299751154
Ni 7.220735783793326 6.054289449811536 11.52007959631198 -0.46791249321925865 -0.5718663077951055 -0.3704977653135103
Ni 0.5592315083237682 -0.1867087533000703 0.003129819279540581 0.8136811312172051 -0.09979274121962169 1.0963371570253828
Ni 4.5531806689080385 0.43887927072117977 1.544325825417085 -0.6209905761255821 -0.23036441549331296 0.3506447351433251
Ni 5.88613411305659 5.470708563313865 0.42595246505099393 -0.07549633056610223 0.32534893669101383 -0.7718107162356643
Ni 8.104683325512415 8.925998256880513 11.351348285870174 -0.6027948790531618 0.33341037354290964 0.037634779633638406
Ni 0.466642832542035 4.9513904013752805 5.644492322181758 0.08404781968053912 -0.7542773353375913 0.7866475241381807
Ni 7.798330528671273 8.645220140726359 2.6434538763186173 1.0550457544757637 1.0168260488729328 -0.35065373400438965
P 8.66699122159446 1.489163666234187 3.679093506909908 -0.40254708043957127 -0.5965100744857146 -0.8298266306288159
P 2.0254169035568603 3.044519025507037 1.621931940388425 -0.2842169425373944 1.211452644645004 0.32103642535858906
P 4.810240623334425 1.1337353755393687 8.164427011239063 -1.0475358192519635 -1.0427221999134042 0.5406621142781592
P 8.593165160347889 1.6072020472802862 12.70549593158096 -0.4304777454115683 0.5999316985727539 -0.37720705901288587
P 6.119294781954309 7.850140991918529 1.369629202592659 0.6318069500147957 -0.5599461593187518 1.1611253571453615
P 2.0849251283423382 3.247640312025601 5.684057910869215 -1.7958332828570363 0.7304208404349678 0.7468861850798427
P 7.01265170513012 3.9057264740232154 6.055519280419643 0.35967856321081926 1.3074509518192 0.7811322507469063
P 2.299955304770034 8.641661058038688 10.297603520140985 0.16692038810605445 0.2488125948961715 -0.49947638406846884
