# total energy = -340891.8880980736 ev
CRYSTAL
PRIMVEC
9.06970978261942 0.00000000000000 0.00000000000000

0.00000000000000 9.06970978261942 0.00000000000000

0.00000000000000 0.00000000000000 13.27443704718072

PRIMCOORD
 96 1
Ni 6.311919554590808 2.0774624225527094 11.488136372597149 -0.3256384429069747 -0.6591246639931423 -0.052744381581567225
Ni 4.566871073008517 0.10654823209020743 6.100121872881456 -0.15525503595298423 1.053812910509927 -0.16200880973705
Ni 2.8103494082844955 1.6487553705816917 4.951497520469305 0.8233029705776852 -1.3150472761092191 0.7993158636344685
Ni 3.1740175698923885 4.413683671218924 4.889785399731783 1.1443720489464226 -0.15864349280924292 -0.024728355984615476
Ni 5.119434084650268 4.660261876811207 2.5175365420585347 -1.1459252523661554 -0.19670199024386126 -1.1714588778608857
Ni 7.227062362641235 6.347091889945457 2.656493568868384 0.5706031248119657 -0.3797678777615266 -1.4633348796054346
Ni 5.202684952680266 4.429437757477569 11.657651066316975 -0.6927881176838585 1.1471688949652694 0.3049714014759264
Ni 5.595657347277039 8.055326418664281 12.21059772669145 0.2389066486363692 -0.03409797012497354 0.4796048419555224
Ni 1.893764516345106 6.59065895181991 0.4479502556641486 0.07898686021786397 -0.27796299120788254 -0.02456174849976415
Ni 2.657624561704569 1.6219906563909818 0.3381051839913173 -0.21309765799306524 -0.45376525518459915 0.7332981619827629
Ni 0.5290443466577016 0.14427459777901688 4.805054355030851 -0.40932579392430146 -0.5805612644659421 -0.6562596837405213
Ni 8.481920228206821 2.3808351521240594 1.4780289636067394 0.08930186899062685 -0.18396423096221867 0.008218274144734233
Ni 6.830525572017032 0.5776852013526447 4.9010554213696595 0.7642964101364902 0.9574654475264285 -0.545202425350674
Ni 0.9235776383443495 7.512241253965698 2.7351714891196783 -0.5082304761120151 -0.43763286839911075 -0.5821082972380879
Ni 7.702451211948608 3.9021066790376326 3.431680775038683 0.8902025606137121 -0.11315450723850835 0.7860631123896205
Ni 7.928051178326012 3.742253040402844 12.622755278837396 -0.6427737334389445 0.22966507543344314 0.26788092438153216
Ni 7.926064911837444 8.689961236036881 7.13960314917427 0.659647883486464 0.623085768091714 -0.5293531170232432
Ni 6.831359985336431 0.8557606958102272 0.3419199040145679 -0.5568052996969249 -0.32252586541992195 0.2585082249173806
Ni 1.9017005125893864 6.506319718590697 9.091264159262648 -0.851509000698256 0.24148546510713892 0.6275859699549128
Ni 9.268518036519895 4.700250228172386 1.412293519516117 -0.36602430292318894 0.4925650016606163 -0.15180024463516437
Ni 6.122852380067074 2.1273367578067637 6.750728449552544 0.6000155165358118 -0.8634090945699519 0.64208467779172
Ni 3.3406644213122814 4.446361836325371 0.2952390136492123 0.9156901633618553 0.7495768445381285 -0.1128907120541604
Ni 6.097720213675188 5.4138640801680635 4.434949420240597 -0.17104803712118286 1.3077198892098703 2.770551089706009
Ni 5.261529231117855 2.88261685751241 9.404991776733537 -0.8389941560606972 -0.027519288466191318 -0.6438456263468846
P 0.29784927618533097 5.745071749709351 12.43423228691327 -0.5579530401481229 -1.5308101396392733 -0.017007847411906193
P 4.18947137047052 6.332135938166236 12.551206150640962 -1.1929062491013842 -0.5171804862164512 0.6266757994358175
P 2.4460917155270274 8.549371661428207 1.534219444900241 -0.3123134436632944 -0.0608793519838758 -0.9474967663494906
P 6.37640519264433 7.742067705200055 5.757362113721494 0.024925559597086106 -0.4560432525854985 0.16871527522294816
P 4.623547690757668 1.015091012178393 12.631676245586965 0.3657060003518218 -0.6363035523335686 -0.4521326046771826
P 4.047494130232848 6.164654673426945 8.263244078438428 0.7709866776724722 -0.14560748556089115 -0.5913084756801171
P 4.788815946258555 1.0880386896558174 4.1292793331279025 -0.4099315458291005 -0.7780309861137632 -1.0494831727863214
P 0.22392116305761317 5.558408048333886 3.483597608983265 0.2972354662842494 0.29087172884975065 0.29684954369974037
Ni 1.3015487326119342 0.9459616826082166 2.613843257624123 0.12260742512129208 1.5072912305817265 -0.25165880609571495
Ni 2.0576632456369794 6.579521347947938 4.651442490813564 -0.5788370826859838 -0.6385373267600938 0.8357165137506897
Ni 6.110263622596146 5.4732978897552265 9.101352397688377 -0.916025435214087 1.6156678568156175 -0.05291073195610243
Ni 8.467689853227077 2.2361097897583675 10.395849430780395 0.5263860639751192 0.1180761129098418 -0.1414736658981757
Ni 2.5959958822989866 5.066267444668586 7.133430304552719 -1.4901167756849691 0.8209871779603151 -0.7979560071724644
Ni 0.34199608957851296 9.108981837734879 9.23943329051286 0.9826527454253335 -0.04866044132018071 -0.007503507465896756
Ni 1.4589716889684747 0.9511949052744448 11.432436562614294 -0.1556674409000545 1.1709099473359512 0.14921268641364624
Ni 4.1243236435874735 7.155946766582491 1.682694225377231 0.4892901875640864 -0.35348400436433314 -0.7444400375321953
Ni 5.719032612318119 7.833825961203923 7.950220270463033 -0.6072827396211864 -0.3248817672466082 0.5264002050425063
Ni 5.3498500670342 3.07911212452079 4.675296735067371 0.8969213673947843 1.0591201816554534 1.3642494488654826
Ni 0.7091687871278803 6.973065134274299 6.879171868537971 0.5825664678214291 1.4566695517701171 -0.5562918503956161
Ni 5.4386969461301655 4.639383404406255 6.8379282693136965 -0.9414981255638946 0.35386427052188735 -0.16135780641661243
Ni 8.2802098779522 7.0227217964885105 9.271929154448436 0.03362745824645822 0.3497782733779718 0.16199209756650165
Ni 4.6825915028151135 0.1962376872445655 10.10517883005489 -0.17128097906759535 -0.3344151606583402 0.46184494686894006
Ni 8.231423907897362 7.298295864929895 4.572061668037776 0.12092129566812078 -0.3572918081461976 0.8598537731185255
Ni 7.4356747622008825 6.185914073651623 6.802206309533442 -0.10517997367346402 -1.1502429059049029 0.37510338240632174
Ni 2.3568729783213294 5.25117162230532 2.533187233623255 0.010253816517524276 0.10562168919657296 0.5006655192805636
Ni 2.241896264734197 5.368978085410414 11.394551477000599 -0.5380871544621314 -0.4506485639324883 0.6197153089575843
Ni 1.359177669910399 3.0332828799238203 3.976769438674821 -1.723873761799599 1.5083968049410794 -1.3836970160671331
Ni 3.785569975331624 2.800962258441261 3.0350405897205537 -1.722426487830111 -0.07090254054783274 -1.1845193105892697
Ni 1.187252247274311 3.2385757656258596 8.54587075337073 -1.2906701328164352 0.6640503834295337 -1.334586117473095
Ni 3.7256736105347934 3.0028721423157383 7.185997436703833 -0.1283738952914241 -1.0354428926431716 0.021170463430028055
Ni 4.305962725626562 6.831849749676078 6.022705549290252 -0.23257762109454783 -1.0963402423491764 -0.5676023903124289
Ni 0.6627944529603038 7.621150331567204 11.393781458622154 0.5436507645928379 -0.8731378918219416 -0.12701840970479417
P 0.10475152254050238 5.459629836795078 8.212216983044204 0.4206723292853723 -1.7064650794048482 -0.33087063784019144
P 8.57750590182793 1.717648887692038 8.140999806233532 -0.2012872956216985 -0.5979390936227573 -0.6558146257833027
P 1.7071824423595816 3.137484778038719 10.633142974252369 0.2243709169140394 0.30958164655442816 0.22691913725718985
P 4.052391773629318 6.190974971827975 3.6966786546566905 -0.11272847544468327 0.1886402962816493 0.7666967920478667
P 6.815007298218217 3.9659030191316527 10.391481458447542 1.5469178438344133 -0.8005970443397373 0.6786334234500312
P 6.490266331902267 7.736163323994312 10.157560033151137 -1.2634308374845078 -0.2554995199980438 0.3438796485053497
P 2.123191900339751 8.39119591914221 5.824876127941834 1.9224102341490374 0.2975332000303263 1.1113416008540151
P 6.847522208544782 4.079646252159675 1.4413120566402025 0.7719534124611157 -0.33379578190678644 -1.2498196744589765
Ni 5.200118224752116 2.831817411839023 0.3014862298927097 0.4595980598162923 0.8258092819393068 1.5757447953684347
Ni 1.5848501939677502 1.12151498924169 7.088496240332105 0.11802700483946124 -0.07790314023538196 0.8636186394775965
Ni 6.940967430607434 0.6003259184093268 9.151901519365946 -0.7159437298647153 0.9782219633474896 -0.19318600667080277
Ni 2.8420117658716757 1.6463609671434174 9.405283821395326 -0.10942563632369542 -0.6090033218567189 -0.4687061927651476
Ni 6.08206589422647 2.066297609550756 2.640218881256114 1.805122421468446 -0.08283374476777992 -0.49983453873883593
Ni 3.921026094083997 6.75074840291453 10.427681391944452 0.9494649458194551 0.9561760392910437 -0.362233468422189
Ni 8.352368490660194 7.040253545905874 0.5456573344527281 -0.5477203066765213 0.12761387719694797 0.03126487155155261
Ni 7.386498794616324 3.726199653714414 8.014348561942814 1.8471316760206962 -0.19421110550120746 1.0485287792928524
Ni 3.0394774918493557 8.480723026487684 12.690653848761457 1.0093701068155196 -0.802531799468605 -1.1529276518259175
Ni -0.13705782953721823 4.58969046335207 10.353875719901646 0.9438717680023937 0.8917714477627288 -0.18907327005400987
Ni 8.865995237300007 2.022137191592584 5.855699537354619 -1.491040315940503 1.8811823378475023 0.7915295348208303
Ni 3.649415488909755 2.7360049954680776 11.671986649932643 -0.6880274630704216 -0.3594037122828778 -1.1306778392887817
Ni 1.3094937985662078 3.3019821081901606 12.801363263796667 -1.0199129153283726 0.6234030422218167 -0.7594303402934405
Ni 3.1140577171256036 8.278722445513273 7.881538077595535 0.007200374403181148 0.43525665485745035 0.5769128690800774
Ni 5.506964653250963 7.96382211454023 3.6160625373797934 0.21074304171795966 -0.03362180181950339 0.09253297433341483
Ni 3.0080781558519862 8.535567562818157 3.6103286667219257 1.2029014126408832 0.28569044175912733 1.3021303109372349
Ni 3.179486605018447 4.366938385912614 9.321110563858992 1.1343861413783043 -0.5234974295734146 0.9794915740885325
Ni 7.182983572073004 5.940932137018189 11.468317242319433 0.36715173165941284 1.0917837333267455 0.16314575155497066
Ni 0.6509022492168749 8.92658090005634 13.57576684702353 -0.06289792507580136 0.3832807760107915 0.25257591859334566
Ni 4.288240512299334 0.7191817469606638 1.7406505792064602 1.0716753926126448 -0.874544799471797 0.35443814074748636
Ni 5.94774348922328 5.9360163542017315 0.5077767836940298 0.5371245334385459 -0.12854333098975282 -0.7125951251074566
Ni 7.8763538313632715 9.042627839422702 11.356268231118191 -0.3799627673811521 -0.0804593309983324 0.37539160307070185
Ni 0.2539963213959371 4.898777110219301 5.689715681735248 0.01808025454047854 -0.5619356789449549 -0.4472585644143329
Ni 8.108075851986262 -0.17179300487018354 2.5051382484974702 -1.05804186098961 0.5816784087895208 0.10275130962731335
P 8.535204774418418 1.8402895062236473 3.693758208038796 -0.8250356369980758 -1.3631271623355814 -1.1505113290749411
P 2.1025038918446612 3.273439730840732 1.6763354517008138 -0.7544220884455717 -0.5686408588792722 0.20914690087543333
P 4.633551580880457 1.215232302604145 8.120291844376457 0.2655497051451943 -1.1581125384609667 -0.17729118981741726
P 8.703012548717473 1.5491880942734528 12.652542927368927 -0.16875692709416099 0.8752721645561248 -0.16259245015466192
P 6.39777342938893 8.046111593310922 1.3188555532214605 -0.36462562280344946 -0.8856421949365392 0.4952348351832954
P 1.7112456724366532 3.2004920533633077 6.164834253684816 0.9228211179796817 -0.010431479745969132 0.4055352165336178
P 7.325922201569984 3.9049727073955673 5.83118139032929 -1.5127707656390592 0.4729469703193726 -0.8437298709734694
P 2.303924011379492 8.482301156026546 10.171205411836302 0.9288464982381551 -0.15823314474470168 -0.4183958745463698
