# total energy = -340862.1342038624 ev
CRYSTAL
PRIMVEC
9.33709598261840 0.00000000000000 0.00000000000000

0.00000000000000 9.33709598261840 0.00000000000000

0.00000000000000 0.00000000000000 13.66578377868700

PRIMCOORD
 96 1
Ni 2.862380097143056 4.2230283867313 7.815680489092724 -0.46411548807067166 -1.7812520426087515 0.7087366705933149
Ni 2.4646571632380927 3.791206378861153 10.344943819496011 0.25327320177068635 0.9376358143950109 0.6724684322898999
Ni 2.25148192838073 8.401602860223761 11.205860469544838 -0.6975757688804889 -0.9082301075393842 0.4107738392247377
Ni 1.4051115399229095 3.0045840666090298 12.685086141314965 0.6219444553984192 0.1192955871392397 0.3968114635073747
Ni 5.952249197048356 5.75552592504057 10.444280248304386 -0.37834785748554844 -0.4001549260583108 -0.022211760210348843
Ni 9.069896157043038 0.9765575155926902 0.9994716824650767 -0.5390924557981941 -0.3522321342351031 0.11720065228342395
Ni 5.473069439136752 0.6951701271612194 3.584931257820951 -0.5026601811130892 -0.6241126666943316 -0.1850608064605071
Ni 7.483831699966447 1.1749334535620972 4.964929744803894 0.8272606696738527 0.26140354418730466 0.8938751243692927
Ni 0.5914779431489134 7.311272831962465 12.605373486809063 0.12787741527097976 0.786916204418535 0.9091222803363503
Ni 7.782870868061439 7.2569029229539055 11.548666340625703 0.15450633071241776 -1.1044248191295238 0.4554986929359381
Ni 5.27568323332515 7.213672169268583 3.1125190269657437 -1.6115288949465794 0.8317436451458707 0.04724299214736379
Ni 4.657147320175223 2.414741048939663 2.174376191030106 -0.15799454637133437 0.7184212448709305 -1.5993884029293035
Ni 7.060758550887477 8.300463438210931 1.9936193528888206 -0.4554102469871899 1.389962794471187 -1.4026912977814487
Ni 8.105206090248197 5.886488031129194 5.620518055329516 -0.27067134264247583 0.20635725394543816 -0.7716690484514774
Ni 8.971735268599454 8.644498071102804 3.4003200665217173 0.009743709650325155 1.5519122117252113 0.5403504965750113
Ni 2.066775498704047 5.186261866576916 13.434899754392514 -0.3056676562120026 0.08291884828241848 0.4667925206822025
Ni 2.288876997173325 0.7453047295020333 1.9845446294532343 0.55872694219967 -1.908602381731668 1.844028097394708
Ni 6.073650117008736 4.915374042404439 7.853698342177071 0.06598787685503474 -0.9858278007192053 0.26440582134873813
Ni 4.455568758336688 6.1833609929920055 0.7618659363728013 -0.30058972746846296 -0.31764925405391103 -0.19003203442285335
Ni 3.597797775872436 1.7769987296707919 9.66543947171562 -1.2283069971981815 0.2009833912280345 0.7116479307028389
Ni 6.396835014915876 5.027577922973881 12.789191958672468 0.6606187320401655 0.2399554016158577 0.6259756880449994
Ni 4.1092652111585215 5.035103622211542 2.905168272486114 -1.2251293708011481 -0.34498008065838004 -0.40735350068927917
Ni 8.476561065533863 6.1830341946380125 0.4338313508924102 0.34746428053281453 0.17747502369344917 -0.42321977829757434
Ni 6.735780930581292 5.845339449813596 1.854993358544276 -0.5726697775330073 -1.8707336317103522 -1.2919487424185425
P 5.487579286054028 1.9897724694075347 5.295928858209791 -0.5154622179737639 0.9185188910599019 1.7183988547279567
P 1.8786050064750413 1.145502927511096 11.327458402227197 0.788979514705467 2.488663823743056 -1.3014402268487457
P 8.138922343284417 3.6307110386674166 7.757300297425883 -1.5645422417843957 2.9599305781465284 0.5054917370246133
P 4.881237620055943 3.8295071459490995 9.495204606863318 -0.8350315718685233 0.7102309957506542 -0.12086781672236603
P 5.232078995806694 4.234531688791844 1.1167708162280563 0.7399712031275644 -0.9568524965327779 -0.4069817191721572
P 7.64845403651632 1.1346252108710526 2.863761053616071 -0.37477299565009653 -0.6033096139060513 -2.494584045882233
P 9.30343559790206 8.18585058691777 5.670370677376313 -0.11007895363697817 0.06812806312648913 -1.3603159181390314
P 8.334301073492918 3.478871186306572 12.463563542787046 0.951435696392581 2.2076936702777332 0.7616291477169721
Ni 3.3563124664634754 6.2984220248849265 6.904322979959912 -0.2053054156421561 0.5223383762683069 -2.082130762072543
Ni 3.8289189089119127 5.826823988785952 12.099247804046383 -0.5505199809088455 -0.536155227546741 -1.2807271626711105
Ni 5.358876757155868 7.398668048915945 12.357763042536696 2.01681754268703 1.1434137987982114 -0.1351505518936253
Ni 0.43372584170954964 6.904250150612451 7.529737531606595 0.9207668065538142 -0.0581768654510482 -0.42513910680747424
Ni 0.445618500666136 4.344466655074993 6.56940135259652 0.5230060917592929 -0.19246969733006852 -0.46159452142103086
Ni 0.24976824711830137 2.4738915510123443 10.725986965413187 -0.38445551304518305 0.7482946353915951 -0.8408762035747582
Ni 7.300208373405854 3.274108674790565 3.34731057237535 -0.5096037023104579 -1.0755202202800316 -0.5213433593448893
Ni 0.5965050355429042 7.208574114946296 10.06124176500869 -1.0875429557725205 -0.07678316769832583 -0.40238227272693283
Ni 5.881464673573534 9.085461095788919 6.919068121692064 -0.7071652123411369 3.1251926047135528 0.5068019711956047
Ni 7.193335974554407 3.1973577470814187 0.7182271515997797 -0.626078789281767 0.2691608195352203 0.34942011870760464
Ni 1.6920124834410288 1.9372419682771629 4.26930023252792 0.26060264555256407 -1.72181225128488 -1.913464080699343
Ni 5.973799214220219 5.1150571737898165 4.0668411825527695 1.4373896204945826 0.08189066412822027 1.6486867349437992
Ni 0.06819628051119994 3.9357819706675308 0.7579368864482261 0.8295417523985456 -0.6964707087417683 -1.0450104817269485
Ni 3.175060762243287 8.059510343264186 13.482799055992018 -0.9910661663000092 -0.30361565877898034 -1.5437278761422057
Ni 8.925525981344883 4.771405361826906 2.740180855489352 -1.1628055730612619 0.9337560197246306 0.674123965615452
Ni 6.616387486224011 9.030680354563911 10.842541932638646 -0.1553789631253582 1.5549720815974573 0.8403439852203721
Ni 0.5849429097786419 6.60817084189505 3.843870400461871 1.2582132978393106 -0.24094784743611408 0.8458397182276207
Ni 3.7773781399393473 6.065106674325784 9.087814043937666 0.5111867305268615 0.0016586186493455306 1.6204264545465252
Ni 7.056146025548266 3.5947352084407322 5.730554795957195 0.3543275833115511 0.34255013106064874 -0.1963194100934619
Ni 1.220881302133473 0.17170825857401845 9.154435156382622 1.503176951303037 0.4501795947158698 -0.735429863613785
Ni 7.178882150212101 1.8457757775425159 7.337173002080762 -0.9811784748726521 -1.4603279744583109 -1.303748306156632
Ni 4.03311185758239 2.056980885180094 -0.22048057863347417 0.3276428749315131 1.1032361981380612 0.4776572313108483
Ni 1.8585209133482319 4.9589782799228965 2.0270452222447783 0.4172314219246234 -0.18422134127834724 0.25394348836483366
Ni 8.967524238380863 4.986382656179142 10.978748685454061 -0.4401309522306162 0.6925235511685622 1.185036102324688
P 3.2021383401455403 6.898535847965493 4.024067946563037 -0.2950597987891692 -0.297962574258261 0.3194814221666433
P 2.58732792823113 4.3866609911233665 5.664098016398818 1.3756574335921083 1.2191073329767843 2.003222834721731
P 7.650573557269359 6.789693321894261 3.445909370613284 1.0421681271821472 -0.9551337140694584 1.4869784871663034
P 4.062990564233153 7.653038550568047 10.610032373449492 2.5241337345148915 -0.16493575357585788 -1.133141727448242
P 7.530657235545688 8.596066555041084 13.369659598420574 0.09056402353250209 0.01236752042641741 -0.7889689731825057
P 1.137332968661278 8.430510508908375 0.8781828076546373 -1.9630097528379546 0.6032273386048902 -1.2043797969586227
P 2.8446769634524793 0.10402831946212697 3.9534972425826846 0.8855419219132491 -0.5609560886405048 -0.921836128358593
P 5.007792616913579 8.260790118036214 0.6655902075769644 2.024321307263243 1.4101066164089133 1.5433339831378967
Ni 2.085066869431811 0.7999500828375296 13.392781982529934 -1.1450883582871572 -0.2505588881633169 -0.297184815551972
Ni 4.592021076772389 8.068492629451073 5.477150683723329 -1.9628696277156648 -1.0234674654488503 -1.449777195525658
Ni 7.095296468356593 3.419300514921614 10.51840371724743 -0.9287336268093748 0.4100143353508939 -0.3362247030632532
Ni 0.45792759409666733 1.358659488176802 6.026514589847992 -0.4351602384889021 -1.4953466566253408 0.5674949182002872
Ni 4.168667814818568 9.097468601024193 8.41301185761644 -1.3793377106571727 -0.016812700681964592 0.8634926554226935
Ni 6.758180623473535 8.318259942859791 4.853211393217527 0.9956694693999755 -1.0677017526768773 -1.98835774468444
Ni 2.091490791361725 8.382013633175855 5.748689303475042 -0.6579409280976863 -1.2686190665536667 -0.5209399532588835
Ni 6.154658760415616 1.0709182060341298 0.626679728131426 0.17192375485791683 -1.5140601738744441 0.39464890863841706
Ni 7.830658124511002 1.4221984252888145 9.350197641229668 -0.7645622622033672 -1.0595469847802268 2.3810932383502283
Ni 3.7538953439310134 2.8763670666939447 4.148931995366157 0.2057389036351489 0.35132453481916914 0.2262647915026426
Ni 4.639612254209557 2.2357395848141093 7.787296651484083 0.8857581516891131 0.32874562107738864 -1.7671629115055374
Ni 6.130914525724088 7.860322077957712 9.062765416958916 -1.2847396262646131 -0.5303100816198738 -0.926712739724604
Ni 4.58369238729349 3.9884245169478434 5.98673389307125 1.7358664153851007 0.6611221540391453 0.6304967158438045
Ni 0.8616654851342624 5.078717196825827 9.089153917189035 0.2558049670536046 -0.7527346734408198 -1.2264496322744685
Ni 0.2548392238626855 2.244198993634607 8.129186553464184 1.35874934498286 0.3740916533123557 1.2327084686999865
Ni 3.376891425669188 0.9957359104241484 5.769721111828431 1.4236277908237998 0.9593369535175285 1.6444081621731033
Ni 7.753757803268601 6.361708860409572 8.820552747784927 1.8193236526694925 -1.0424092966586755 0.8229892959920084
Ni 9.400121225204762 0.12284536868502756 11.233219094031528 -2.2286653874333937 -1.1034560274583514 0.4950746554563474
Ni 2.5624352307527136 7.430022016707589 1.9011970435413492 0.8908833887308206 -1.4069459592927447 2.5027197876154896
Ni 7.659247719293909 7.882721770849956 6.898214651868997 1.2983055378745059 -0.3337371607547091 2.1904361687488665
Ni 3.992430131058211 0.5261444162186897 11.57556091144972 -0.10970100147226915 -1.6219629457957097 1.482623809742034
Ni 7.595522040265329 1.645401701065839 12.09915163195935 -0.9428176157062665 -2.4031260497805516 0.7807645829948424
Ni 4.702572291380211 3.697359228690274 11.75916089527074 0.2084928122312022 -1.0009140056283665 -0.7250387501874481
Ni 1.3998640920673693 4.1326639733044 4.150598666971519 -1.1121219306634653 1.784590105843049 -1.807237925149552
P 2.285394260429346 1.9467564689262649 7.557273560914021 1.038740846668153 -0.3170411881562669 0.18117972623854603
P 2.0730780383881924 2.634797723422529 1.4198884277808772 -0.30470683496063006 3.1981674544093823 -1.793085287798254
P 5.57433958049118 1.6024323860637113 10.9380660252203 2.1565045489984276 1.7325298948127 -0.4984374012809932
P 5.629736570040859 6.790925818543606 6.930396820060618 -0.019713933489159598 0.4442879118217833 0.30608777446855673
P 2.323564308175695 8.038025685763124 7.867364115631464 0.15308990998086539 -0.6173658348888013 0.6935730754789989
P 1.7551499254324217 5.929560054185433 11.483781928004822 -0.5544226583973614 -1.0396996110369965 -1.7675832868724075
P 9.119690889095699 2.8481036776214887 4.556568123912094 -1.9508803165642723 0.6691982461790604 0.6696736431535821
P 8.516551846966744 8.777374281836243 8.983749309801809 -1.0581488188811197 -1.4358634136580433 0.14584994058900042
