# total energy = -340865.0422652721 ev
CRYSTAL
PRIMVEC
9.25737551526126 0.00000000000000 0.00000000000000

0.00000000000000 9.25737551526126 0.00000000000000

0.00000000000000 0.00000000000000 13.54910481644437

PRIMCOORD
 96 1
Ni -0.07631965329924484 4.700302696143395 7.189344297044868 0.7324944351345449 0.2949716099507371 0.9629881771168706
Ni 3.2794714804982874 2.520949922023211 6.070309995753208 0.043546002911750814 0.5491482973722994 3.2099240807246785
Ni 6.204311428696598 8.092047624060868 12.693844441304357 -0.9502861561691698 -1.3862516641681866 2.0876848591215524
Ni 3.1129775860528692 7.767372958173199 7.140025630230413 0.6135480038046078 -0.9184044769692249 -0.6284904840470531
Ni 4.224334746023229 4.50261144699789 7.527693031961468 -0.32824117063714436 0.7882169255078296 0.483686982444696
Ni 4.306336576270519 8.810040393551677 8.843026273156232 1.3539277552245004 -1.1075595081037635 2.4593069678474935
Ni 5.600712045564534 4.067422234994603 2.303035936574341 -1.3650953418055456 0.8109511338805517 -1.155788004092848
Ni 1.3482256213089712 6.967600535441866 9.070908600308679 -1.8916367004116068 1.256712544924068 -0.8186731851151577
Ni 6.660366764585344 8.07382910950604 6.854316182641894 -1.2987927619235697 -3.8957967022356264 -0.4871587430433803
Ni 0.4315705040055827 8.783980882133058 12.601426212389846 -0.4562579396994658 1.2625800594484384 1.2414265652992749
Ni 2.5691993619926032 3.152895388268529 12.88609235378409 -0.46010893801443986 0.08726504106625615 -1.0154314825182513
Ni 1.949131108233995 7.36179808969679 11.47576640760891 -0.7374003570765946 -1.7529753071512457 2.067331492276182
Ni 3.2104947772726655 2.6331400530648583 10.211242270648992 1.7871799780574125 0.6603053145648048 -0.2176163717990252
Ni 8.780972235166432 6.836192093314942 10.98378504972607 -1.206892021857515 0.42830027814427524 -1.5202547327209301
Ni 2.125021238590567 0.24019278480235035 8.403385189379867 -0.7101932005341833 0.8936907762726286 0.4066626452698415
Ni 3.9477428873498788 8.380590754223183 2.502126900862473 -1.1016086898369672 0.29605661548479983 0.9076595797478949
Ni 2.753698851361366 7.393671232792457 4.5228675098522695 5.288302317733324 2.046341777398392 -0.03348861867574878
Ni 9.089390950059041 9.024783727966488 7.802115887606263 0.9706739757969025 0.07634299483711368 -0.17494402974147935
Ni 6.522404100758818 5.220881937747157 13.114774518160894 -0.4225587476748077 1.3382815640468113 -0.2246527098205163
Ni 1.8847275483976438 6.404400338040121 2.442334439654049 -0.12557962037573855 -0.4027941634533708 -0.4287926443996615
Ni 5.704533509351321 7.85668811489321 10.428487873602506 -0.30742706210527054 -1.0257902000447559 -0.6084150534534167
Ni 8.717142632597561 7.615820467432807 2.2790139734552746 1.0222235657394203 -0.29041407248704176 0.2360182713449806
Ni 2.2035700678576995 0.9121828793046907 0.883188779921702 -0.5525668361355451 -0.8992788118833673 -2.2091694834923117
Ni 0.3975431696818116 8.9256742681982 10.154010399443548 -0.159895362938473 0.3669912948221486 0.9098193064033752
P 2.609644834599333 1.7045790254113862 2.6700269906132164 0.15269061765991768 1.444352682075977 1.7232649245710066
P 6.486985382930174 2.9656186863151897 13.299909063473999 -0.3012600140626102 -0.012827233671655329 -0.6126198355633837
P 4.56820920824561 6.268141031265469 12.789948031318604 0.36115463353571353 -0.058811670821569684 -0.7234462088893475
P 3.928496804138757 1.5966658017499884 8.43943896315285 -0.37897186422279244 0.772469947086218 -0.7971934179748271
P 7.335618232399506 0.5962055174943907 6.595352217980386 2.079409506486638 3.7909100914328646 1.406272587374804
P 0.9337821873124776 2.9069732139041955 6.1117163839142 0.8907352931887306 1.1550997197765718 0.3816607239088653
P 5.270510726633557 3.3084933520071216 5.999503109434349 -1.50170370919162 0.7119040125777031 -0.02242773287589686
P 2.1258451449906586 5.138389466609925 8.709201656080726 1.1201573993734322 -2.5424744418056084 -0.25536196597891503
Ni 7.233296463408391 3.0612844024786003 5.846479621761659 1.6673097493616253 1.2204890438156593 -1.0339562807953162
Ni 3.6224202051924754 8.262661050506743 13.666981582415353 -0.09489324703547529 -0.33485867595366203 -1.232436960206155
Ni 7.066136037942674 0.5736971352339186 8.963166638089996 -0.2851224850707993 1.883105523012144 -0.4116765535446652
Ni 4.876961188648368 1.4514268409518696 12.467046152797424 -0.8547863858979473 -0.5772414560640898 1.224023539331479
Ni 7.064136444881778 1.6275576630657715 1.6030626480697983 -1.512176840808802 0.7905535440608062 1.409314202414605
Ni 6.27881478496553 1.08697323347777 4.9102905168758815 -0.42449530257588824 -0.015358998954573547 -1.340116560373021
Ni 2.257846059135625 5.541733307643391 5.645315931147904 0.16396721901500147 -1.0259274969535686 1.440149956848539
Ni 5.6056925134662094 1.7889137142297218 10.47448777137839 0.15377922273840613 0.4486701000498789 -2.4577110841152834
Ni 1.9083060832407064 4.930663222658813 11.074997042641348 0.05951358198460073 0.38259763390083784 -0.28202636264397885
Ni 9.097722587812774 0.6237091794569893 1.3703563026579408 0.9950758016800347 -0.06013270362583836 0.1567745579213042
Ni 6.361890470745522 5.206607065062429 10.702437677370394 0.45197833848750546 0.4839145250744698 -1.1293886881637127
Ni 8.594473152736775 2.327544837633237 7.501434486974288 -0.17036746611439046 -1.8870192562442532 -1.0413924253583873
Ni 6.269696270312833 8.099638671792047 2.1183753688756735 1.1022671493565726 0.5244309971312775 -0.7062190463777838
Ni 4.775435553931497 6.382034519358991 5.8250580553592854 0.07669240775673243 0.4318039204221596 2.204783952830106
Ni 6.880608979917617 5.518006654795817 7.279391712149679 -0.160029317413176 0.4381218922203874 -0.21004704409219954
Ni 3.492409626733123 6.516275718322183 9.90262081923771 2.0384186658965735 -0.2841295250299107 -0.24887018760698432
Ni 1.083779439005506 9.108451885764525 3.5519382527460124 0.5229181600311769 1.6627740662748007 -1.0338781192592128
Ni 1.4522692621025244 0.6995011623651646 5.996169528595328 0.8770572814810056 0.331819374906706 1.5359492606380516
Ni 4.750070345659023 0.2234073119411642 6.851037220317037 0.44257015779972814 1.9842799750706404 -2.5382737734606997
Ni 4.897095979886553 1.2208996816813769 2.9058493685449696 0.5281899499530774 -0.0014994673636619337 -0.6863575315671663
Ni 7.605720671000228 7.659441219761238 8.92457819496482 0.14185624604857505 -2.7211689397284555 1.1095425999720632
Ni 6.441078058907108 3.085001797950892 7.91278503188909 -2.128783686044392 -0.18582313854782836 1.878794554341616
Ni 1.0932404765436332 2.791218993379007 10.708656782084793 -2.055072215292854 -0.421953509990641 1.8169117007938902
Ni 8.543233580551322 4.430913075439382 11.760013189902885 0.1641438538021818 0.09878692566292664 0.017324864431692746
P 3.481976564790394 5.177029751036679 3.37459378873265 0.36255665608956267 0.01712328994384793 0.6671277368032769
P 7.696831758524932 7.044510809284097 0.5178612762209889 -1.2005390830562936 -0.5391793590850457 -0.9778887483777869
P 0.058592705371886954 1.5767069006421583 9.294943562293957 -0.5165873327171425 -0.5743960161954946 0.8293779731271717
P 1.5426582743552388 7.649406224955631 0.7584095442341651 -0.08545806976450443 1.5271177783893506 -0.9042004175547008
P 8.051435518699062 0.07173354958457927 3.478759626879925 -0.041957061158076125 0.763746451170291 -0.872539081895678
P 2.8871531734255944 8.730288105497895 10.42285198353087 1.1039411946248858 -1.0451683474610516 -3.303360283598653
P 7.431913450082089 6.340015292954335 5.07171414687939 -0.08539919150211098 -0.0875038965499396 1.029377146065066
P 5.032679498265625 3.7742133876901973 9.4998731531724 0.6125082496861839 0.546080457080253 1.3288967803978016
Ni 7.875647219470593 2.1762145238996116 11.235282941222708 0.43944112525244317 -0.4638900023234269 0.029586969628497432
Ni 7.376498801644486 5.578216623629457 2.9986878822972813 0.6104914763664712 0.8856553075626618 0.7217040293872603
Ni 0.7599629318064721 7.062803382841181 4.4309769513288275 -4.504503833008164 -2.895887740833006 -1.151217096892714
Ni 8.1256796684601 3.743562218131744 9.336362910780345 0.059542635450323254 -0.8159475586538787 1.1962479118801075
Ni 4.253402904408473 6.355512139176277 1.4566507778234596 0.5721522144666404 -1.4179086289518354 0.04718642787781551
Ni 7.61006238000745 4.185592630468373 1.2421212887776614 1.3096662143029638 -1.6301385396279666 0.4500834354576378
Ni 2.085381157633365 3.570208608602419 4.413797114280632 -0.16987869940343003 -0.20217098377823248 -1.7069685014038278
Ni 8.9281830168996 8.689824118140601 5.537858170350377 -2.7492387013814783 -0.6049741460926678 -0.8094529520684703
Ni 2.4910023129861845 4.017413893721645 1.7236631045550745 0.041241266037974136 -0.272895089766672 0.8002869692984863
Ni 3.1964791110958313 0.907635656566209 4.6060450267603645 0.31542447848845034 -1.3045384061580951 -1.5312968494677046
Ni 7.300606839083267 3.1190504242378116 3.6086952205994938 -0.09018170049241889 0.13677883152566767 -1.1965217343667844
Ni 4.163236069162525 2.5381130957959 0.9200248019060091 0.9145020565910249 -0.17701993843390157 0.7904440150661355
Ni 0.23496144203053462 6.4469287200852845 12.941995791636579 -0.035239282818268346 -0.10120761928927731 1.9142037870788453
Ni 2.5339935637954434 5.592491496314184 -0.1998315543106862 0.8433802009435346 0.9494957990573906 0.0011253718536948362
Ni 2.475653584768753 0.8704737749719781 11.678163180610218 -0.670085276769704 1.9614724902578222 2.657913117092603
Ni 5.2363787839691 6.439596878861999 3.700084029382656 0.5605817360202215 0.38605396788055446 -1.294250908189158
Ni 1.4355596997186502 2.9885214327626715 8.381205443941903 1.7064635367429515 0.523958171259917 -1.0148444996665296
Ni 0.49761354500436283 4.466822434157969 0.342867259791707 0.6311168659263066 -2.2197562578692223 -1.0062778410434412
Ni 4.710458036827666 3.9192857157332415 11.895124582142579 -0.10943849183950184 0.1472668755411851 0.3273801081884297
Ni 4.453741762884609 3.1883141060971734 4.023217342285883 -0.12012528212938667 0.5411722211453583 0.4854854691060156
Ni 9.158413940161074 4.791191606661333 4.8685860412308095 -0.7083839152395864 -0.5592023391741918 -1.2761341439837894
Ni 8.950826556839191 1.802188790384002 4.7985104875592235 -0.8029632305790687 -0.9803456945587116 0.021334499811718095
Ni 0.44371988332558093 2.722288577029795 2.850325483079041 -0.02318389431563104 -1.1098807000377726 -1.4385754132725674
Ni 7.545918026678993 0.6996094736559629 13.141303378506308 -0.13475588755836793 0.3404783361332846 -0.8132299026123995
P 8.593677018462529 5.712180101334191 9.185357530919115 -0.4076808021217108 1.2492663730586677 -0.5804782178338326
P 7.206857399603214 9.174688405906696 11.109412260989433 1.1581086818062247 0.42144340312344186 -0.6508097163695437
P 4.789932603622992 8.720419743447362 4.803889022598021 -0.48144318071584186 -1.66624351288064 -1.2180164139054508
P 0.6261975619327708 2.196090108629904 12.876906260291836 -0.7658568126450745 -0.3947345263736879 0.13257070698159104
P 1.2666496303246495 7.410417824677459 6.428277886104791 -1.4200634705113093 0.4053233576331277 1.1618606926494892
P 9.555740487261287 4.761660579511994 2.4090171460144014 -0.6307571685940427 1.0728226188432104 1.4544869422965017
P 5.021589162677879 6.710597282865067 8.119883625796087 0.32222530346036765 -0.03953071110477063 -0.004678122201959685
P 5.168059354388494 0.44238589554745555 0.8058230432155996 0.3307994182826238 -0.6764844954278285 0.7130586950074365
