# total energy = -340860.2306739539 ev
CRYSTAL
PRIMVEC
9.41495649578729 0.00000000000000 0.00000000000000

0.00000000000000 9.41495649578729 0.00000000000000

0.00000000000000 0.00000000000000 13.77974050997462

PRIMCOORD
 96 1
Ni 3.713362335910529 2.468488566819155 10.87188408862728 -0.32071735145627345 2.4299863645065054 -0.010383400116853085
Ni 7.005631335590745 0.7828018354916901 3.6593336675902837 0.7616502307628947 2.4549798012270494 0.6356728607281052
Ni 7.168142896577003 0.12293014313431976 7.912313283309131 -0.6240319340550672 1.0277367822481653 -0.010837714045452302
Ni 7.352713700213794 4.791403079066179 1.8895195940930303 -0.9679956576337911 0.4447604805828276 -0.10958555894032738
Ni 8.951891105423291 0.3858315003365744 5.878698724281357 -0.39077605594657217 0.1274783800603482 -0.640471053447697
Ni 5.6493598033576395 3.44738040500138 3.4257401279069524 -0.7570330437058574 -0.4228279421757944 -0.5508606520777158
Ni 4.460843962779315 7.058854083650262 3.1932208347393805 -1.0414757291008128 0.4190515058524976 -0.8697617762608568
Ni 1.270162341758606 5.039063504982614 5.5456841873870415 0.19221104435204317 -0.23884417082954992 -0.6129957308455637
Ni 7.10932766446524 7.8401259887404535 6.097728268038054 -0.4982895628492192 2.441458369701847 2.760496790793801
Ni 7.051943505713647 6.71675223091886 10.041516952326905 1.6866981811905661 2.1456634925188656 -1.8080395951152408
Ni 3.1225267522425653 6.245571327082561 10.394733160990425 -0.5762374402796075 0.08778106147072624 -0.13133426347132865
Ni 6.695144906171541 8.396540492113777 13.161773758601463 0.20429445787913847 2.5614656381961307 0.06648615664769195
Ni -0.019472012654642382 1.757122712382053 3.438086901620954 -1.2679472372976228 1.4189818074113563 2.3728932190379393
Ni 8.946421015803164 1.4051822302994756 9.460536003435855 0.5818943814550689 -1.334509755709205 0.7311284080249537
Ni 1.952614865346464 7.016976357952626 4.060710202301716 1.2130436432812075 -1.2003861024181972 1.2828182408721842
Ni 8.74818911055053 7.812803785508768 8.36572157410599 -0.5284923116848447 -0.6209340118560339 -0.6150343585421473
Ni 0.5800874695365743 0.2671249066060224 2.0728589214435678 -0.44493017339147245 -2.6313698193864363 -1.0323781376749188
Ni 5.933305470919461 4.534798444648677 7.6838452458447275 -1.1912229478616903 -1.6094776688445054 -0.4363817696008291
Ni 2.0974168935006077 1.693675321762367 12.617364266027835 -0.2651840942756594 1.585670796232895 -0.4761616206019283
Ni 3.4631787017011626 1.3746401120074052 0.5960486449806393 -1.0575626073603464 -0.06021420759605114 2.4196474444743425
Ni 2.9159343657805126 0.28531083622777426 10.916751062955536 0.016782875885293678 2.2829038370619843 -2.2526463237290235
Ni 8.989372046520927 7.9574740042744745 0.36988915480514317 1.331157294297204 -1.084366872037384 0.6845065944013566
Ni 2.0019774813160462 3.8898833518963576 0.3949687154421398 0.5616297176687617 0.4744896322161441 0.9236896366275641
Ni 4.006167477366567 1.749449522983768 2.738902117666676 -0.8712141924366673 1.4948707454301868 2.2629474485447156
P 9.396794866179082 5.534779784980791 0.4707609967845642 -1.173520645485921 -1.7111640275424143 1.7699679850545
P 6.30696625722516 6.075198277571678 3.5388297586988333 0.5405597843723401 -2.2158839193980095 -0.8917603920191352
P 2.2988310539883576 4.786111873616074 2.5120741655926784 0.8374239833600997 1.0415317791497287 0.06640619533937596
P 7.024018745277678 6.2111502467879225 7.744489803968868 1.74294671927065 3.2714657488829015 -0.3485171472773611
P 0.505741325484428 0.23471862696320298 7.85248123591514 0.4684254282999353 0.034093085028967095 0.07204128213796625
P 6.367099583221292 0.7597709693492541 5.821719408651392 1.273371750747304 -0.7703408165583572 0.2881903253628456
P 3.948209006279642 5.072731388771899 8.651733824579374 -1.2305829377165516 0.18736451489301925 -0.07766685585485979
P 3.569690102514415 2.2720078434414686 4.83599984414814 0.5836769272767883 -0.6286514351049496 0.9057734184687756
Ni 3.5484311311508225 4.659301826983554 6.6408149592491545 -0.17722177003206252 -1.0795092868347667 0.32979231717434815
Ni 3.712684459055711 1.8740658847944471 7.1696681195003436 1.023796566653495 0.49045438307551664 -0.6672730041318895
Ni 1.7915155478077416 3.8208999669623256 8.749611710450017 0.5068194546971013 1.2126461507324728 0.05325294578686958
Ni 0.052709632940245325 7.272535932218951 5.696669017354503 1.0226524257467227 0.6733531488876984 0.40335132150842146
Ni 9.031682860209141 0.6951297622685831 13.675606297544647 1.6080622765542176 1.110653573648055 -0.38711249105205586
Ni 4.464139197490235 4.6185256511749975 1.561589133609848 -0.425240665382345 -0.2596235694687465 0.26767549323894546
Ni 0.050707071731637625 8.449970369212267 11.679735356895751 -2.1834062584852783 -1.3036907134458193 0.18192766014816408
Ni 4.8205611987796635 9.193243510607392 4.527746642367308 -0.9147270281176376 1.1231974717513367 0.4887903651095324
Ni 1.854727564519505 8.975306101783458 0.14544883565311564 -0.11888421063343395 -1.0508075480246999 -1.148373971016964
Ni 7.256794125257071 2.5633819115373355 6.939753003250032 0.03166005010744225 -0.5726327536474848 -0.8733667200032958
Ni 5.1634727377543195 7.044430370572749 0.8058129302258606 0.4471004415699138 0.3281190432369833 -0.35493410654729834
Ni 0.09650518523963607 4.197347580337832 2.6496925820770163 1.3718537435753018 0.22281488528082916 -1.4400088032849845
Ni 1.2070727194789626 2.2009249232487647 6.972190352248696 -1.0408239544494269 0.9300382045534111 -0.22901535766458622
Ni 2.5453805150593953 9.17156086620954 3.4099342992421167 1.041871936097967 0.5585731902306251 -0.8515413965980884
Ni 1.8820403527948735 3.058975797103393 3.8323523198262204 0.27670109377632346 0.09194419170948036 0.24934121370613183
Ni 7.366158257834348 1.4667937044373633 12.540128671882027 -0.6619235668945181 0.06556235928184193 -1.2461699935215311
Ni 5.0708389825522 1.8768809567332045 13.063799840176387 1.3632433761984717 2.680880524522054 -1.7728532770220953
Ni 0.07268911174036939 6.038216329158838 10.459539129806641 -0.35348451858496543 -0.22190111521730818 -0.23935684879991037
Ni 1.8153259723332182 4.275811826282996 11.228779662219448 -0.15261656988887265 -0.30816753981572087 0.6757458174895911
Ni 1.4563431029255884 6.6926499427475585 1.6780417867981305 1.8646010364500534 0.2300877647931586 -1.4261868098002275
Ni 5.4342186365598275 7.0349777544305665 11.72722063057574 -1.1048876176985551 0.9819235805687928 0.5011668843970142
Ni 5.242765499855373 5.147928644875095 10.302712319444536 -0.7119274096164706 -1.0933109686045495 -0.3390125502210355
Ni 5.275736676877208 4.934905843248589 13.06337334265523 1.8456766887417246 0.8294749037163521 0.12048395102038603
Ni 7.782666510338324 3.694918436485694 3.987305553881261 0.7627619757698347 -0.5192484244890735 1.61549302180065
P 3.4787227945803885 8.159829660393916 5.880407538852877 -0.3072761383497031 -1.3309876014885593 0.3527083025405732
P 4.544392285135613 0.5422722974896875 9.064161635015601 -0.9979207273279975 -0.1509309546563336 -1.698834302332468
P 0.5741202702229139 0.9257029839654487 11.455401426750106 -0.23346619434708826 2.5533103560788475 -1.0131270027547907
P 0.13961532871915547 3.1714092054399847 5.340021057113468 -1.092790577324705 -0.22035793909990437 -0.5535448837780983
P 5.755861789214575 2.4847293664658325 1.1569267791438131 -0.3947880053194427 1.5768298009024975 1.1910686816720133
P 2.6538973015681506 7.937759085746856 11.672018858698408 -0.7799523715061922 -3.4448632600728675 1.9255801472365872
P 8.130671540680432 3.2276823993461825 8.927948871509377 -0.9817389753618124 0.8122827082077817 -0.1598064027690925
P 6.979194138252848 5.342573451770983 11.508067750891293 1.5304391294530997 -2.31809015515513 2.408323020600459
Ni 6.706932431480317 8.073042593064597 3.877109139165568 1.035299939307404 -1.20974543214591 -1.3610245141702817
Ni 4.184166641494151 9.25537280734271 12.844977425458662 0.38383562007299704 -2.7119445929167103 -0.26463259264756356
Ni 4.9818864752699925 6.4963010287583085 5.477639473597805 0.349776730716075 0.47427006000617034 0.7950552885859017
Ni 2.2547596434688812 0.48593508188053514 5.793595051141505 -0.22143420288321866 -0.2902608347386291 -0.7132924082847973
Ni 7.719784017097654 1.8521855263139377 1.598408203278405 0.3185918204728384 0.352843799677173 -0.18636461287359518
Ni 5.332480618599251 0.9196124487240368 10.915538416581915 1.921049606356085 -1.4912863705130381 0.8746160190293647
Ni 7.509246763938814 6.362081411504376 13.46738135765724 -0.687584719106048 -2.208102475680378 -0.4474071741770552
Ni 2.2543077255656696 1.393903112631812 8.892947829905617 -0.7709789643629883 -0.06439713532914716 1.2081562332819193
Ni 0.009155103522567572 3.182848377365036 13.291578702838393 2.2458395852198354 -1.2481831672968182 0.583328542798434
Ni 5.776650012762322 2.376899871768212 8.917696925575889 0.0987190485394687 -0.2084215926736346 0.017224334298086463
Ni 8.803172455441311 4.494982594384447 7.141089019600351 0.06181806174806127 0.5419582073817635 0.6988088699566416
Ni 0.7097182370816421 6.50114973126152 12.603101548703343 2.0897895641693816 -0.39506465601959706 -0.03304613182169147
Ni 8.801750797037457 3.5185198149319854 11.111996544064441 -0.6522071109377026 0.08725681353614005 -1.4572231102807418
Ni 1.3356433629427458 8.262029011214022 9.6798818897248 -0.2653370749137559 -0.5318619994880259 -0.2594752168163402
Ni 5.472019686172239 0.4081778991547707 1.8363571017539413 1.2872433665230734 -2.336479199185279 -1.1484968697480735
Ni 3.6929601255717754 4.821295565372383 4.300243637925389 -1.8494641808086147 -0.12631135633544052 -1.9017254521061762
Ni 2.9884201144644367 6.098942797402936 13.723587739422538 1.0908640497259534 0.3712233306256252 -1.0517228607501177
Ni 2.1723505308269293 6.542264845497486 7.192983317323551 1.5371283685478172 0.66589026485175 -0.7622508404613711
Ni 7.477132347941818 3.8673345315173475 13.368980000215377 -2.959053060637581 0.6803768885036992 -0.18928127229975789
Ni 5.183912607918342 7.217411362983417 8.750451524553485 -0.7996375086399454 -0.16362243408107302 -0.7302156664026973
Ni 3.0485816853295193 8.659424902394662 8.103466082907076 0.7586453824982998 0.19315078255749316 -0.7645236956559478
Ni 9.25702042469817 6.659132698259343 3.027449815876205 -3.279700220977552 0.7543200156500687 1.5983861869170344
Ni 6.28063262440675 3.1213028079213663 11.129042322476216 0.492946553369751 0.8455437842537568 0.5367761489601917
Ni 7.7021592188723895 5.959431974698898 5.322548781180538 -0.5478012964261018 -3.1011751587530334 -1.2989681111591695
P 3.5272286495251315 4.12750743437896 12.623413375461453 -2.071033880828433 -1.2512281247707289 -1.2255723718758378
P 3.6324878611482347 8.549957205297897 1.1704071135983711 0.4333967188305761 -0.7941191499248774 1.5632497482252175
P 7.06740286398602 8.948492306192886 11.012341114441165 0.053874381420952376 -0.6073678431358249 0.24354389029806442
P 0.4937391391716255 8.677049700619925 4.024152868418769 -0.41669817512897267 0.2913610097813434 0.8967503890345588
P 5.398131108997095 4.279869672455586 5.437209768181711 1.714012809845119 -0.5472094284783737 1.0895018792711042
P 1.3430435186078404 1.8629468213841711 0.9883491618025655 -0.4585138256131781 0.40468469560786435 -0.4212780811901713
P 0.632127699082687 6.099733653733558 8.432663796510514 -0.5093669037093035 -1.2297162188408821 0.20277185058702502
P 7.406990923380806 8.477546776264509 1.5733841908836783 -1.236736101802141 0.8528300335025248 1.1762984653413742
