# total energy = -340866.52443710575 ev
CRYSTAL
PRIMVEC
9.31235725966112 0.00000000000000 0.00000000000000
0.00000000000000 9.31235725966112 0.00000000000000
0.00000000000000 0.00000000000000 13.62957615701193
PRIMCOORD
 96 1
Ni 5.40356052320102 3.556789693037683 2.4435374182035456 -0.24059714896491466 -0.012760384989461894 -0.24336494151803895
Ni 7.501765001086706 2.6050667746219744 4.74427821797971 0.3599675552061478 -0.44075187364406676 0.019216425027450773
Ni 7.164536605347096 6.632465757337312 12.792270712678702 0.8015745777616582 0.8627830309501785 1.1318281508431411
Ni 4.6590468675804955 3.6747958850353726 10.267636630727374 1.3577031631065326 -1.3696179122662477 2.803409273886611
Ni 6.611280144427373 8.013562847204211 6.702193895265113 -0.1235193954126002 0.3566875989032954 0.34972865108695894
Ni 2.855066319316574 3.0179208241820725 6.578315330739508 0.3829704438592243 0.9151273488798498 -1.8341702307640217
Ni 7.01100377016197 7.954885683711672 9.631108139389205 -3.009951904369978 -0.24254038873421457 -0.74450945731755
Ni 2.492294127439839 8.720212457949213 4.498482271380736 -0.2075358476345716 0.13941806892072764 -0.7765554300095012
Ni 5.207423653262941 5.975786255987795 6.142196218879234 0.2603843588941709 0.9778075015178902 -2.1177947911330555
Ni 8.750030626097619 6.39226281254656 2.95750876852025 1.752224287917834 0.14118081724810522 -1.3508987385901896
Ni 2.854693825023652 3.8504083194334493 8.791553496165367 -1.1175680413797011 0.9152127095048045 0.05732094520865612
Ni 5.046673741152452 4.902667447508806 13.143109118645947 0.4240312184552762 -1.1228496014936147 0.6434532760044724
Ni 9.46666308389293 2.9076997629064527 3.2865543958800956 -1.500802023312957 -0.8669333056731263 -0.22666871180928064
Ni 7.663725519649191 0.8705405809805563 8.956457650877669 2.202438335416065 -2.118020533990617 0.010463875645801334
Ni 4.201176882720773 2.742135362059947 0.5619309217661442 -0.893627527134861 0.7120392526039866 -0.6025264558831236
Ni 3.7076964434577087 8.131652850417806 2.1965150341451247 -2.08447997903101 0.5039488180175257 -0.5158034033632665
Ni 2.5933145796802846 6.896517649232394 11.990879041000452 1.625692073820839 -0.42018741922915376 0.6496861442880617
Ni 5.873629696153937 8.39128137258444 2.8069838247504704 1.172101139430575 1.36806702283936 0.22358030269194398
Ni 7.0775778126644555 6.996914173532196 4.307614333216038 -1.0957856553972871 -0.43635914389300984 0.7307435138817092
Ni 6.473764563837894 1.1028717901261336 11.071032321701544 0.5888579572570956 1.5662458547390639 -0.28057677468164577
Ni 6.661427188611997 6.39940539061334 1.5372802219461634 0.19107590230633542 -1.1077641679154018 0.6244703071440664
Ni 1.2964198247284047 1.1103216759845738 2.9933278197276296 1.6349220770595392 -0.6182981168950835 2.5038114780177714
Ni 1.3726880312041843 7.0120746912541225 6.06681082387768 0.39688628260936804 -0.34377731859953053 0.44391253076023557
Ni 7.500237774485726 2.6131685254930277 2.2021853285191297 -0.35517476180319474 -0.5881550176528 -0.6876327987351641
P 4.900562854753797 8.360206036197424 10.165987594367623 -0.8948529149015299 -0.8174763365935792 0.8856925885585004
P 6.573565097269021 8.316698702784134 0.6457002320656403 -0.41864424311174997 -0.019136206608818658 -0.15101554395033992
P 6.581908969430473 5.639582219553722 9.801886529100887 -0.25575611609354015 -0.8653348508377549 -1.1560350871066478
P 1.1065874206980306 4.49842732847253 3.835458260987025 1.8814667018571403 3.2599227812403084 1.405483001593973
P 4.628949328712398 2.531862333705478 7.838492392002335 1.0483614004770527 1.162512467300875 -1.3936952649304257
P 5.960672300052486 1.3932497161734785 3.435471095540185 0.8444227832754361 0.007134297051936099 -0.6311559466943581
P 1.5316685954232938 7.556009482493471 2.6242390558786695 -0.5768159384908969 2.136588526800791 1.5208687121558453
P 3.2651173493224346 1.649302293128061 4.871251278843765 -1.2506048893644333 -1.20008374068643 0.3473637503992082
Ni 8.598201952302611 9.013924207918208 2.3832808789090185 -1.381979519155394 0.3637216229319413 0.27213507167219586
Ni 2.6298283327439638 8.161163710774552 8.170330795323363 -1.3035963539598001 0.4524660767572014 0.16528336672326374
Ni 0.440912182174448 5.999542079518896 12.539510054037816 -0.26165474096616226 -0.35397842750224845 -0.2612135396636856
Ni 8.461422047941653 6.381069359044254 10.523299951145855 0.34783914737373 -0.03573293462523523 0.9424432630859835
Ni 7.327325923711332 4.511511190511414 11.85556397044641 -0.8643958839632532 -0.6104045730796197 -0.5267357340050541
Ni 6.6259936689977925 2.725736300814056 8.66456739800106 -0.009420264872635389 2.0446831587490464 -0.04929781779386349
Ni 5.9083741013262365 1.0909519727526298 1.0569506936947095 -0.6365647764147554 -0.05153107799975641 0.14141735873894354
Ni 0.2845353530628633 3.5333411772982437 11.437736190840072 3.023686994567883 1.2987490531698276 -0.07403697241175637
Ni 8.366836434611434 4.841615632898891 4.565021858161125 -0.9405879550447994 0.20451711541290585 0.8533139151174787
Ni 0.10399388793369618 8.523135039921506 4.608882129916958 0.5330624475540303 -2.5591804417063795 -0.6687722143852353
Ni 3.154961474548076 6.1675463179840415 9.815285148817292 0.7814688081507186 0.284124125713272 -0.5795402794005955
Ni 8.305905680646719 2.5838904740693587 12.967342099116308 -2.1063032455536885 1.3349057055960427 0.709140590899953
Ni 0.9690997771805205 7.7445474688559415 10.228819931697705 0.5823150139322553 -0.06386440275412872 0.044117816254820794
Ni 7.173867587384793 5.648745579159602 7.598106925008051 0.3764683810746484 1.4568225324082136 0.7252225840634801
Ni 4.113007483586136 9.087268334194551 6.39131760827827 0.4838263362360377 -0.01834276417324583 -0.41708075527937205
Ni 1.9828523077250657 1.7969124690557265 12.887840642177967 -0.28504303798311553 0.3521092355039936 -0.44847572465088564
Ni 5.408030454716083 6.262234367244813 11.388505482616035 -1.7372882354332921 1.3983433052253982 -1.2600066422943075
Ni 6.345337843995711 1.185109217645988 6.4172273800581925 -3.4323219330727466 1.452068562662996 1.1990455292299027
Ni 8.807655493212652 7.621549853333097 8.415649949227397 0.942550735198125 0.312320642752146 -2.604738847062469
Ni 3.3377164870129326 5.461073642028176 4.252373429575705 -0.5201593663391171 0.16360623613115693 1.7739843053027449
Ni 1.3073432198683426 3.8764456705086974 0.10335692269279956 -3.1109330094707457 -0.7631347857282212 0.5148068437779522
Ni 2.7958490390992994 3.1252550546875466 3.2729928099105376 0.04393115416531144 0.03675803345563992 -0.33345253963475474
Ni 4.928797922157285 2.903807197545418 4.682822247061974 -0.1256528968158352 -0.5987531048836204 -0.5805018719829164
Ni 2.7685545197854395 4.3586674697681955 11.494707330471027 0.5422597977825823 0.11150257345738217 1.9104805725909872
P 1.1288998288440584 8.290875535927317 12.560131338093978 -1.1042219590900981 1.0571386324490502 0.06716775609574883
P 8.200564294608377 2.358056496628073 10.488967152167232 -2.0855953235823756 0.7415614304328196 -1.6655549714540476
P 8.004194615737221 3.742589846347177 7.121317023775089 2.643541935972596 -0.8050013440550201 0.3184059297142775
P 5.667891785815794 5.012432203275597 4.026477059340356 0.13101750356185823 0.7664029149565317 0.4908228221585289
P 8.529635065332995 5.324815229677309 0.6489651445431017 -0.05831570502175764 0.3872130211856622 0.0752567037514704
P 1.2487964293783271 5.231244663295302 10.371085745757673 -1.8119630985393633 1.5877395058364656 -0.772827844646269
P 3.3658025566992507 5.683974226912701 7.02475160327799 -2.3328305466890984 0.5444922866575267 0.9931179066227156
P -0.010823752916581006 2.0048480957221098 1.0536196634802546 0.6039300210988695 -0.11777040874396492 1.334999807971746
Ni 7.972644349126728 0.435346186202461 -0.1273557987500317 0.395286542222416 -1.3163701086857005 0.5573346898378337
Ni 7.364361168785103 0.14726003129231874 4.658820577297545 -1.5115793164341194 -0.17402331769942286 -1.5843096542193102
Ni 5.015337658760389 0.8543780536106708 9.001312482395603 0.9014642495704605 -1.6276265718393905 0.13159857287630886
Ni 1.329804625731539 5.740695795367398 8.175960115325147 -0.06320285791072985 -0.1859414092932475 0.03927257234737752
Ni 3.217419455113772 9.076614997416982 13.166280126137162 -0.4196390029248515 -0.523428524008692 0.19307262102139006
Ni 9.51508734197279 7.406220214952213 0.9338152552834842 -0.5276926986016847 -0.7006091563901741 -1.8135083315392964
Ni 4.7339554698871105 7.224443000006277 8.202442597080436 1.0072947123437297 0.1461921544197676 -0.020620504463829
Ni 1.2094610320457637 9.525889676467528 1.096411807851134 -0.40246429091777786 -2.200660417580036 -3.5556718927870183
Ni 8.430979951852603 4.355529205350328 9.557290945360855 -0.01947327823326324 -1.1108152960368998 -2.2654879555783825
Ni 2.464589864403765 0.11897374592355439 10.689690358086914 0.8360214465856182 0.9087764669611574 -0.20454771154052515
Ni 2.849134347701791 1.5305511125445277 8.269854751741995 -1.1155402123163949 -2.188282098520341 2.1407251746769838
Ni 4.982660596913806 4.629973688017934 8.36790549323212 0.7699998882791707 2.660573694643902 -1.4351584171712186
Ni 1.7305991725582877 0.6473727314408602 6.436240420004664 -0.4437652065490938 -0.29507316852560794 -0.169636758595953
Ni 4.587360340907657 7.133219147669679 0.02668362867346745 0.18378451085124478 -0.08722004676093366 0.8110313522991838
Ni 8.071457772681612 8.50458482413399 11.485343755182699 0.5545172749936966 -0.2859406100967205 1.2069339308390439
Ni 8.326160057824351 0.508669825292692 6.6732445700549485 3.48352313853691 -0.9216625788952062 1.4767727502778953
Ni 0.7942630621474538 2.7296847403190294 8.374352438206868 -1.5844590353129808 -0.518841675968958 -0.34239329376781036
Ni 5.43498041680899 8.890749657606227 12.31118688348408 0.4615618684108825 -1.5572583065284729 0.35526500752415585
Ni 4.30286782468848 5.761108482619524 2.234583019646021 0.5948303727904466 -0.37428705715261346 -1.403071563939003
Ni 0.6828733000277913 3.8459197632037396 6.049147144507319 -0.12966973128471218 -0.10265360770718449 0.08939520003538153
Ni 1.7954224918840385 5.606355728625079 2.0201892731761024 0.3404806501261297 -1.3853078121976787 -0.31614490159424263
Ni 6.123107748838446 3.8426883752126413 6.354803855214592 -0.6100582454837945 -0.6482614960263933 0.1160200017117615
Ni 4.172234076160734 1.5394630385026864 11.803512549189223 0.45477184207224264 1.0831432840429283 -0.1666565929217065
Ni 0.07507901844562595 1.059550703859305 11.449852498953092 2.208032541674391 -1.6984684343526166 0.4452037387678332
P 5.836836572370567 2.907513515759992 12.659982158254651 0.4015618337081665 -0.6369944077530062 -0.20530104476678188
P 2.6005223442483256 2.492871493593868 10.492047679969698 -0.17050579146446765 -2.054576249493042 0.3237479107524811
P 3.0254265841844505 4.82705110604564 0.13897762068919808 2.2902227393209005 1.7189583267758526 0.867094513841339
P 3.1005959324961103 1.0372941698572156 1.3290885054533963 1.5432699626691808 0.6904926367814624 0.4829436765207683
P 8.434779393640406 6.986586769260934 6.065638398090708 0.5067472066982692 -0.3153951679124117 0.109188837722541
P 4.393951991665231 7.851565079212433 4.373554204184822 1.2246907406018326 -0.9432865849228851 0.5233174523521246
P 0.7681949802930399 0.22265846359412533 8.457615156267991 -0.121545559515681 -0.2570768917874927 0.3200815176444875
P 9.56164912858804 1.2206358608334238 4.988506894841217 -0.8649011057344458 2.0937431495004906 -0.6340456095373274
