# total energy = -340870.1387630448 ev
CRYSTAL
PRIMVEC
9.21506243878954 0.00000000000000 0.00000000000000

0.00000000000000 9.21506243878954 0.00000000000000

0.00000000000000 0.00000000000000 13.48717535195519

PRIMCOORD
 96 1
Ni 3.664931631396563 2.280294804478563 2.4134893145630363 -0.16579244514919833 0.35444045474033153 0.6304113552188497
Ni 3.781382373332186 0.037501617423534805 3.533747847899916 -0.5091265055637232 -0.12067935486064378 -0.16204711917415318
Ni 4.083396824246018 4.97567287395263 3.7115358873327207 -0.05700264263728892 0.8204577878194063 -0.3545245298137056
Ni 1.9289982005322306 9.172267523152133 5.975735664046406 1.6514784387563235 -0.9776714901606581 -0.8587715957979403
Ni 2.5771764657066987 7.006663383715174 4.509774069562507 0.5314971599494395 1.4671879348029377 -0.4151897089042462
Ni 6.685730409956218 5.646833504434325 6.25358453565724 -0.22349777028046666 -1.452356783327376 1.3333604725961101
Ni 7.664250227469706 6.9228800375350135 7.8944618346636535 1.6820573399844452 -0.08592935297396814 1.3240595069101582
Ni 8.485616372990625 1.8293096568700034 11.441143943969033 -0.4158108874280129 0.3615572682907709 0.24296642052803963
Ni 6.146971794203573 2.201284860555478 6.84398620339656 -1.4845336251702368 2.870528436132611 0.6501471430848803
Ni 6.703662921138201 0.1083304290612322 6.870609439807592 1.6516684432799424 -2.5679777282830356 0.23703951352064337
Ni 6.039183210803955 2.6492013924273468 12.369452730172966 1.0183476277237815 -2.3886072873390867 0.36174752992470605
Ni 2.6298036863440606 5.5311936879786705 12.698189018664145 0.6620603495826984 -0.8854807296580105 1.588346286182529
Ni 8.738532972117403 2.757819331431476 8.87744727135432 0.5353139625923683 -0.045448105030470115 0.846482236907626
Ni 9.078697780838743 0.6760556715607658 5.5152027904174705 -0.7003204215051616 -0.0323403640039185 0.08729975095893353
Ni 8.989975161280606 2.337603276750276 0.46628122947442485 -0.7301102511730846 -0.8137898888809275 0.3979728308053275
Ni 9.018256187394432 7.257902841508385 10.277267756378462 -0.8682653942209885 -1.4347760941311354 1.0324007633827381
Ni 1.9193776755199026 1.6769938925704146 4.098415532737485 -2.286590541884952 -2.0072093301733043 -0.6312384791058355
Ni 0.5936978955141378 4.121501106742164 12.718729392469202 -0.21901659458066153 0.8740930566463592 -0.2933821539764302
Ni 2.6683318617047345 5.458440771338506 1.6053919372080676 1.5374055334686036 0.13524002628363807 0.6722871695170293
Ni 8.273798951598504 8.121326531240285 3.0805114605782222 1.873771647205728 -0.3583387613534732 0.9831101446777262
Ni 3.2890123810585252 7.64512897325459 11.977919478320668 -1.3159057674547725 -0.4619598751802496 -0.0730830931389193
Ni 2.078282209344218 7.784930682988335 1.5865498993798037 0.7306807789645738 -0.05431789671627419 0.7539014400554114
Ni 4.502276694897728 4.770342856400241 8.36319519220875 0.04784874405216275 -0.9870138506075067 -1.389576871886678
Ni 8.190835745960584 5.6308361563295355 4.643310458457284 0.42392117523997314 -0.7463382829961727 -1.509899357628535
P 0.67711724673454 7.370547762725529 7.9067482771913715 0.9699733501854523 1.0989609678014751 1.9187764940511922
P 4.819118181007762 1.6320612489304607 10.589522905995553 1.786047407114866 0.006261664638995667 -0.7747394598466851
P 3.514025771624643 2.2488069366939607 7.18452422213993 0.7731631164985007 -1.3584801504818733 0.8370015511107004
P 1.657070927937605 3.6188194597857493 1.3644162157737938 -1.2166781547100014 -1.1824855679886925 -1.0133118650720871
P 6.791399529033197 8.033166030480762 5.0700986955511205 1.9734263201855882 0.3291829657251234 0.2743037971887405
P 5.3592590561012585 6.839299422724846 11.899963737521539 0.062339738579486194 1.717087849226017 1.1937372296431121
P 2.3669532500876946 4.584806792608848 9.205752294931152 1.7736078957999326 -0.969937097630878 -0.9409260551105085
P 6.833742740174622 8.043551405661695 9.673986196101087 0.3949322442067908 1.1376632694676794 -0.12780979525783795
Ni 7.5775917818605745 4.580899606205374 0.4961877925730929 -1.3805103908090355 -0.4607409151714839 -1.286664354091152
Ni 4.157347698981585 5.811709398611121 10.412612140491074 -1.1614966244418512 -1.7350256646513602 1.044611446516317
Ni 5.477128917626822 7.497439170215718 7.565914454949059 -2.0608888219746313 -0.6558804460242317 0.38920048392933615
Ni 2.891981423054545 6.5687544094710715 8.551664410321429 0.8492325459592536 0.7705249075447053 -1.8374188196083066
Ni 6.084115854443909 8.152814399024889 2.9317877275523934 -1.0438126047641054 -1.072907722357849 1.2247151660818647
Ni 8.468135399859985 4.816390522575149 9.974993440708552 1.8369213111465976 3.3892384716197115 -0.15419548434021832
Ni 4.684099088593364 0.3489421555357482 5.757418859233601 -0.4689275647473343 -0.4520636991124602 0.24844132759968182
Ni 9.058793246330477 7.382490483430488 6.0319097621523925 -0.03411699628836705 0.14424608643699027 -1.917463945887356
Ni 3.2453882762612447 5.555392441505847 6.22746075562137 0.7309281190886895 -0.5052482535552396 0.8126030676616779
Ni 5.175842456632505 0.38477676819421586 1.5052361898886324 -1.1339462256274084 0.8737058485102694 -2.7774956393446426
Ni 7.5514578652562045 6.125242677365384 11.980360548316613 1.5416645658552741 1.362566918956737 0.3526964754660313
Ni 8.811350394193472 9.043975426196546 9.015070540366882 -0.2738736516298574 1.3157335035429663 -0.33921772425330615
Ni 6.8058395316139615 2.5438271553430822 1.641119655144176 -1.3947051942521786 -0.15093763952455294 -1.415784383519981
Ni 1.44896717664124 0.8372648924593948 1.6604731289285546 0.06899940998784891 1.502337229010561 0.8212584293438306
Ni 3.0483425996916935 2.455657439521287 9.426159997373553 -0.1425581572116061 -0.5525951182703193 -1.2350255468689375
Ni 1.3988648830665007 1.0686523415992937 7.9232294160654595 0.15864117881639775 0.8097463149391732 0.6381804576413074
Ni 3.765818133154195 2.410826161566329 4.923574597889701 3.6180733378423753 0.9758480637986742 0.2893653195075533
Ni 6.990785831419924 1.3821856203535563 4.800422662669629 -0.6062170173608333 0.04514882862249643 -0.8137495225612953
Ni 5.95911353471955 3.6075402235643996 9.918319886227403 0.11024067602582305 -1.443720962029249 -0.25535579533132796
Ni 9.1570165950914 8.440011029804788 0.8591995051862574 -1.566384180089141 -0.17203714050732952 -1.3237633158259783
Ni 6.765569709483814 1.2666932448942578 9.378064744361728 -0.5125108486549238 -0.8427356253810002 0.43798922329726503
Ni 3.188503696854059 0.5820362342084854 11.385185478320219 -0.10770865363258869 1.0220831835068138 -0.26078879342144123
Ni 1.964724996962112 8.165835282015712 9.760020781994381 -0.05925030102088505 1.576227134321492 -0.6252118132957813
Ni 3.6113736894696946 3.169981421686646 11.593279093048082 0.2312239352801308 1.9870637084633649 -0.2874925279648726
P 9.197728740210621 2.5988410771089816 4.50916679695876 -0.4696253621453073 1.3447759135219035 -0.0033496331985232637
P 5.667456813799834 1.5287143255461129 3.1327203173884195 -0.6915984682511315 0.8155711491510664 1.8388198137208913
P 7.3217908682425525 0.7100730739391271 0.3132043010311402 -0.05496864292639566 -0.14541619548569149 -0.43487741714116074
P 1.0496324530691739 1.1718426089250118 10.526281776632905 1.5236226207518986 2.823699134483898 -3.8119957084585705
P 4.127601477966456 7.213541531729317 2.69299781888912 -0.7192144301961871 -0.9378404742066494 0.6103973739907681
P 3.5237200171351497 7.835318643493516 6.4991733172650505 0.30845447492852035 -0.7813194270570479 0.5201809636056719
P 3.0103857581919047 0.2977792082934621 0.33811630037819745 0.3617444446009125 -1.6166783003580028 -1.175790158246388
P 1.3122893730178204 5.184440109732604 5.278853030243914 -1.0762334442969723 0.6722766279940681 -1.0733988030616546
Ni 4.594556328492989 8.019398727445878 10.02210360356346 0.907134046261728 1.005046282629185 -0.6266968824817402
Ni 1.9571317856496995 3.1758145561050406 6.09005311906598 -2.0116776503573033 0.6942497898310496 0.2031883692991533
Ni 5.111687193092441 6.796624469341617 5.033521348873502 -1.526783020757751 0.5968121791071657 -0.5081271177649312
Ni 3.94794462390482 2.2038190026803726 0.11797675624792285 0.24066631163995322 -0.68686069645583 0.020255922035558663
Ni 8.725991272364741 3.763136550032943 2.466817801439323 0.8450987262965381 1.491993680992708 1.304531978400192
Ni 8.348026278202243 3.5389801602581534 6.51077231614725 0.26314752346160486 -0.2547456725511548 -0.6550687487562138
Ni 1.6227632510976648 2.0114269325583556 12.481423108831777 0.33178389368308026 -0.18992661919324064 0.7979552358415161
Ni 8.477488688066416 1.5173337236397668 2.7710613759168354 0.5775026801452764 -1.9569033828299005 0.5231804125536279
Ni 0.7590253277422776 6.357379311068025 3.3047627654944174 -0.2741875833258504 -0.6336051795657991 -0.5443524186455528
Ni 1.7522440910863832 5.894138130637246 10.70425872484229 -1.07623293007634 1.105194864526329 -0.13805512713492998
Ni 1.058829085216974 3.5796554451282834 10.4711729397256 1.0888094811897702 -2.1132292832495603 0.9564670881689012
Ni 2.127730233497621 3.8957873714433475 3.455252104451627 -1.8199605149225433 0.3484482417126386 0.5979066977229252
Ni 1.178818411065177 5.292394564253125 7.4970355504881905 -1.5601250865533067 -0.7204192491375657 -0.26159766247598176
Ni 5.382121625598947 9.057014739311914 12.370140173818484 -1.1139322443993267 1.4434396833434044 -0.6845400187424533
Ni 6.401491814165739 7.845639513238543 0.4706970873153325 2.32324110322845 -1.4951566521017219 0.6783596009633542
Ni 0.34370523564637456 5.646796644185236 0.9913084809350483 0.39354230583779964 1.6623670606443695 0.2136779559765675
Ni 7.666489487601886 8.877330240063461 11.795883295180314 0.018209838139807345 -0.7500126465239664 -0.21836764814275295
Ni 4.549872491534389 0.4930721800188131 8.313764676673664 -0.6577282978662479 1.0595323294922074 -0.15631124513164046
Ni 4.157513570102488 7.061962972411515 0.5196714572679366 0.30404760411007636 0.2811760988285415 -0.15385275628881892
Ni 5.750134352507312 4.779650069295308 11.984097256068049 -1.3713708904016122 0.11476504625873785 0.595169244187104
Ni 6.351490886275996 5.9146047839441245 9.648563682304141 0.10109834740492266 0.9442186098188513 -0.14730158543386243
Ni 6.214813082652577 3.7231155345841493 3.9155693456233904 0.5778325526808693 -0.399251440407435 -0.17498696716427284
Ni 5.593035970888376 5.599320643358116 1.8745694352206255 -0.8847842178116181 -0.6081615426817139 -0.1768445891983019
Ni 0.9746126311100138 8.864466013131267 11.713759581715403 -1.1601280262290987 -2.6035643671383935 3.671618618058683
P 7.90107732786897 3.8662807420472993 11.602963201990091 -1.718601457657066 -0.8145715042419585 2.9762943642165323
P 0.5247637006796345 6.769384745264565 12.508883072897136 0.05437009011044829 -0.1786793284141955 0.0895450953496845
P 7.411481069339285 4.406034584525357 8.341899183297361 -2.4664824025500103 0.15403273351010893 -3.1831838365163567
P 4.98738521810078 4.439291744266249 5.5565673619455715 0.5393017435955229 -0.36939913293269283 0.8088806245047683
P 8.271688702338137 1.3541626159833557 7.506665290562791 0.5202773799742201 -0.23624967062949637 -1.5283555074511936
P 4.604490165622577 4.2075974335526825 0.39643842949986835 0.22146916988621212 0.7190552789105036 -0.3639841325647086
P 1.1968522879321557 8.78159495811607 3.6523807165816295 -0.12923855728456454 -0.5865791885252478 -0.1823719467744343
P 7.598067650229725 5.957113866206451 2.175508488367275 2.1956115423022187 0.8298132608923773 1.246695269897382
