# total energy = -381171.23243754235 ev
CRYSTAL
PRIMVEC
9.26079968233104 0.00000000000000 0.00000000000000

0.00000000000000 9.26079968233104 0.00000000000000

0.00000000000000 0.00000000000000 13.55411643106430

PRIMCOORD
 96 1
Ni 6.423031291598722 2.9330989669965493 1.248791041994505 -1.5820056886764817 0.4098793524349264 1.221294056215458
Ni 4.601117145523934 6.48956087583633 13.24485206112036 0.4200076991181799 -0.14458290095111873 -0.8811499634931406
Ni 0.5435746708359999 7.967603011622864 3.154462637779787 -0.07362790989879578 -1.0666722829710986 1.4071781299082087
Ni 7.066138258162802 2.6982080462556457 6.172056214134006 -0.46848790610675445 -0.056811095451773125 -0.10826221214321355
Ni 4.744279846349262 1.0458406190313723 12.988801139401659 -1.3633732169081165 -0.5477879266896631 1.3874734523904297
Ni 2.4488147133604974 7.848629519320452 6.814494550967857 -0.2244637337381618 0.5832938329057568 0.9894486853012442
Ni 2.7924181604607083 2.990302926049402 7.586184941566443 1.8142565225592302 0.3064680406261109 1.953493071596771
Ni 7.745482733513317 0.8251076087000528 9.48332734093151 1.299775180441497 -0.16517666594207037 0.5888584714777277
Ni 7.2037259576363715 8.787294904724066 3.475316004613001 0.24913603967386128 -0.13945252170308886 -0.31862858724804477
Ni 5.708014216236617 3.7081538060853245 10.682243420666818 0.05145111669144042 -0.0764088150780426 0.01480261223047128
Ni 2.7671917423839765 6.902527711847965 11.7892618078541 -1.8781720902662684 2.6353210907247 1.0881039704823132
Ni 4.381321328110884 1.572530073979228 6.476712442488437 -0.12690528116569758 -0.06072637134577929 -1.6579447632069575
Ni 7.000627361879836 6.888803206859081 5.015795377299365 -0.20170612832667198 -0.5517132298859981 0.4202714943025278
Ni 0.9782367820415995 5.6792409119178195 2.178675337229118 -0.23744369093759754 0.4570583241135741 0.4840104272223858
Ni 6.342980939963161 0.7067545899700124 5.458866294530543 0.4222684701278986 -0.5026295849854698 -1.9362162867941943
Ni 3.989320942365666 3.6637575328621783 5.130179217326143 -2.5786524343880624 -0.12561998669537075 0.5684678236365177
Ni 2.3210249398506515 6.415363349540157 4.838263997044386 0.5637683612783194 -1.0493553889592055 -0.8562763401799125
Ni 8.364474577951182 7.466982707514216 9.215646707090647 1.3769419567314867 -0.04589444853926935 -0.6888489305304524
Ni 3.309994988614326 8.345119506813013 0.40326614844358216 1.7430791310834561 0.32687925729261125 -0.45809859245263035
Ni 5.089429846980609 4.06445380942019 13.168948695540145 0.2705044780473083 -0.8309620297848398 -1.933220437390664
Ni 8.250983479004653 4.416780929731957 1.6798155111220796 -0.2975314002581134 0.08411723946589385 2.0151977476954195
Ni 4.079882301533199 5.020381325255165 8.447101284032025 0.21633801930723387 -0.0071291548456135275 0.20490689465215678
Ni 8.161070375808254 4.6387252526493405 6.373849963228642 0.19417151051252365 0.3305042556397082 0.2824277118474555
Ni 4.066593054124935 7.426068494936022 8.941555747775222 -1.1419462131137494 -0.05079754226784154 -0.5585204826158188
P 8.399415574795347 8.480253094395858 1.687744607729017 -0.2832756616700476 0.25138138406461225 -1.8033187926008039
Ni 8.261364835342397 3.2063481196294576 9.77457763580287 -0.8166520409200709 -0.09326445318280066 1.1461659076220518
P 2.4003714707175523 1.1249093259106433 0.2858318010326355 0.9384431407876547 0.7986196088983923 0.35261394305455396
Ni 2.3687087969274105 8.734286087884414 4.469252620195527 0.698609609461642 0.31457112934921955 0.5342420696844282
P 4.459037958250359 1.201218314512798 3.7158884259009213 0.4046695260992127 0.044777047105374494 -0.2548469740157095
P 6.61489653745545 5.703948725217644 12.544416114708998 -0.3784108495129999 -0.29014564931700354 -0.8125634726729941
P 8.037068269329753 5.325450585271205 8.705008996068047 0.9225863762610563 -0.22940410846257267 -0.5912228579448463
Ni 5.346546686731849 8.178897415014461 6.344356168701926 -1.1072471190696673 -0.29295097997628256 0.8047930846989558
Ni 7.579519944103218 8.009193262570957 11.225112418574241 -1.8486414277970034 -0.2840647332302463 0.3000649653132445
Ni 8.996450063410917 1.1734266549502899 5.29782932442111 0.24449391291615957 -0.5281452127580711 0.03496468900064301
Ni 4.999257441395757 2.379942146827218 8.626205148056982 0.0191824864657218 -0.9980353985289909 0.6320563470214405
Ni 1.7241941888260097 6.2556979038496525 9.483245845895137 0.14020328382618436 -0.9297474127858698 -0.004310454449895802
Ni 0.7643650981247627 4.087670633986404 8.57920010759 0.19859612194278056 0.7254773803867635 -0.5841726359662842
Ni 8.737925582122356 2.069853533434677 7.831446105685586 -0.30055321780357264 1.0122502565767921 -2.220373322627931
Ni 3.1668693309873484 0.8136214389715029 8.298236708900586 -0.8954807782935158 -1.91858468975536 0.23490266968329868
Ni 6.402740879702203 6.14438309280622 9.921829905726103 -0.9684070341395966 -0.33690810228352297 2.261812563609324
Ni 6.115952438072164 8.609033773461581 9.166648742552402 -1.0245396154671065 -0.4664924729432805 -0.427465955168438
Ni 7.0614430327718685 1.925162800677388 3.487054068090335 0.5511956668196314 -0.09288881501093679 0.1647544908029872
Ni 1.600673643926066 8.493718296996287 9.561412550894572 0.7033029011722534 0.7124570568676956 0.15615003696342789
Ni 0.4561138273704092 0.0014048632974450039 7.631048885168766 1.9619779691393306 -0.013970346137163036 -0.10263046777873293
Ni 0.5173786470424423 7.425207240574371 11.375142928373762 0.05658406704263158 -0.38092204597062784 0.13882748652458024
Ni 2.224342192155689 0.14676329970500282 2.3209934531320537 0.43047903096314893 1.2990519291222273 -1.829589553371875
Ni 2.3147739001289946 2.0099917249001713 3.821488397518823 0.24893677917886162 0.21298375812302028 0.5874209677002529
Ni 6.338683928954496 0.9052913158496759 11.462675079996178 1.6472772561907825 -0.1422298273379099 -1.249504971432035
Ni 1.3341848749921346 3.475892952427311 1.611556935601461 0.914855840386018 -1.2053128502958532 0.5118796428288281
Ni 2.0903384221225365 5.273886453167225 6.908235142633827 1.8054134703463034 -0.6108326617559738 -0.07135351204232228
Ni 7.750057568509611 6.498793893025206 2.645966949701809 -0.1738338273964361 1.7963680723145838 -1.1383099019127427
Ni 1.667962613729859 -0.020818277473014953 12.148026109959236 0.652002194015748 1.239707268615323 -0.9858062034526507
Ni 5.4570650690107465 0.4362466340150448 1.6439919600772115 0.12931337638655796 1.166870744269571 1.3437798681572213
Ni 6.151699124480455 5.327450917982135 1.2754473275275684 0.9197067407204161 -0.3512687418805692 -0.08243316689525158
Ni 3.9072424756204116 4.928643844540002 1.3530722757511264 -0.7397030370678422 -0.31349820800001493 2.430851540720278
Ni 8.56622109696792 9.246639825070602 12.925489683020757 -0.033780181774238596 0.9142567733494384 0.7516010740570088
P 9.133574722905104 1.448268665112273 11.119404095601164 -0.8102435662905659 -0.5271545667100276 0.14912886845058834
Ni 0.22684606413912065 6.354779198637814 7.257402478126291 -0.5086860755921948 1.3779228325875172 0.9990617829109762
P 6.4243092819418175 0.9983419779463661 7.624827480005789 0.1435907122411785 0.2776521448356831 -0.16169796336485057
Ni 5.673434390576369 4.813976624045842 6.036678141442048 0.3669072197487746 0.36579033253551196 -0.6734485368149822
P 1.9813110285772497 4.265505768467857 3.8419417994880853 -0.5512720285835215 0.09877329881617183 0.21063891203992754
P 9.12821271994386 7.435884942498921 5.455680579472394 0.019679737817114493 1.7362227702832551 -0.02811681284087416
P 2.125307201365466 0.7823403101243721 6.128954600693211 -0.5843924652865742 1.154174379748825 0.9987090275572477
Ni 8.364178232364377 6.715496603375985 13.314113581236322 -0.9251865328880646 -0.10840953635435524 0.43210293971981706
Ni 7.83109882570105 3.17376862668014 12.168886061030395 -0.5769293241403096 -0.4014954992466053 -0.10286083862198413
Ni 1.2781940806852625 3.027216473205735 6.205318228012932 -2.52612556813394 -0.19694855903702854 -2.72089768834494
Ni 4.81167068494852 7.9129828156549635 11.067912197733968 0.6843831814496149 0.031930530160009525 1.3676677305184124
Ni 6.268727848869463 8.281432988048813 13.386655276566225 0.4578476527840889 0.5560360256310681 -1.1037416770195698
Ni 6.433505255932343 4.007425805559502 8.251827137847087 0.8100630748486436 0.5306255559777636 -0.48470025420055884
Ni 6.011499879523171 6.367438711674119 7.745418833996162 0.9420411425515584 0.9155374398340748 -0.6435440359460658
Ni 7.7060132056707955 8.484577887803287 7.172526323825611 -1.1717576400482272 -0.6013344924575514 -1.4505567540041597
Ni 3.57251087452516 5.127954773265191 11.122697235934528 1.6404916007275168 -2.274005249020774 -1.4062440481297136
Ni -0.034104746641402214 5.639734340876947 4.3609151562195185 0.61084885970589 -1.1486380233116282 0.43114828911603165
Ni 5.44920265016084 7.415390793011473 1.7393865305495335 -0.5847843014083542 -0.6526629675281985 0.8819598609889456
Ni 1.0784941983773912 7.834969839928683 0.42691267411066236 -0.7071981224616014 -0.3136033661193115 0.8175393286210307
Ni 2.8998619572765088 7.141511906006605 2.467269634778747 0.7581147068058105 -0.32020184527243567 0.26624158900589634
Ni 3.9363769511231275 2.425829408783975 1.5202565646268347 -0.9465845389478665 -0.5306060155937378 -0.3374387779760124
Ni 9.240740695733276 3.0550544367661816 3.6660903282783046 -0.160949001013968 2.0556491708422464 1.0970976893404913
Ni 5.239112150715636 3.354724650622628 3.3396526992937434 0.7519193766283759 0.16623853154768142 -0.8419429542763757
Ni 1.1803074290439066 1.7233329344643593 9.452613899099099 0.8166468987137484 0.2432664682669617 0.36613306058691136
Ni -0.00874497305060855 1.0988309142718489 2.6616491877235187 0.3003369880277086 -1.7804087207718498 0.2732136494483553
Ni 2.5259942171238903 4.051831339582237 13.129330068824263 0.5327989094799985 1.4243512992533858 0.776602995417985
Ni 1.3113940472069523 4.140133063650385 11.056025035383271 0.8502339906405745 -0.3245467525046926 -1.0960908453425315
Ni 8.747001165718244 5.442340397666397 10.755231486536845 -1.0616190368179073 0.08295818616078615 0.7123868657513924
Ni 3.585327821154454 2.5547582606431 11.792609586905032 -0.9767566916558726 1.5681402435482994 -0.5029165200982693
Ni 8.602227085764666 2.3309988210065398 0.9144641378412335 0.7778083285799959 -0.7852133627948155 -1.1190991333122469
Ni 1.0343850099414615 2.4358403331382137 12.595718166184646 -0.0851950459111049 -1.4142368365272031 0.9551411702686261
Ni 4.879237478739941 8.094040708392916 3.8509544096467763 -0.5105272425659917 1.3578468877732486 0.9136672193945554
P 3.3691992803781092 3.3766079200482215 9.652549931796456 -0.9541484673380534 -0.2506558187524973 1.7810394123773134
Ni 4.6828992666823845 5.655764784963152 3.6053543002627255 0.2920192121906326 0.6193754091196623 0.3766869248433577
P 7.235333066628987 4.807197718747689 3.767339576249933 -1.2447633429819918 -1.6322383595797891 0.9778005595393545
Ni 0.049258193006657715 4.522918953805901 13.338741751659692 1.2545561607026976 0.8385105315560591 -1.1796198164051235
P 4.08988396508785 6.457740768453198 6.628897940352003 -0.32273823854104416 -0.9661094963546717 -0.3657548513118862
P 2.2847689094650407 5.988459010149123 0.5594208250104108 0.025134847394414777 1.0507980349430033 -1.5910505724875696
P 6.875801044238035 1.5027592098859472 -0.10468130029880744 -0.12066418535199218 -1.6377484907647406 -0.8615375885788518
Ni 4.209839102146552 0.9082816280365249 10.53081638228948 -0.16958970740810148 -1.3074879757047224 -1.5704547506140887
