# total energy = -340853.1298622457 ev
CRYSTAL
PRIMVEC
9.38892080115939 0.00000000000000 0.00000000000000
0.00000000000000 9.38892080115939 0.00000000000000
0.00000000000000 0.00000000000000 13.74163463915186
PRIMCOORD
 96 1
Ni 5.977278036719236 1.0424612651519853 8.947851832570915 0.6845690722081759 -0.46102939294618017 -0.2252972853830507
Ni 2.0548779837495275 3.516704785276746 7.5722312851371125 -0.3971588195444644 2.696491234476117 -0.520123370894859
Ni 2.7988091231999292 5.9961873232069385 6.771135701406484 -1.9957162419320407 1.5186313381848942 0.5646438219047372
Ni 3.997821253742159 4.679813682686417 13.663637287511719 -0.24043234125227625 0.035128468272016926 -1.7213139714922225
Ni 4.447306448038221 3.058713228737457 9.486221001172058 0.6520117070974448 0.250895188456813 0.8349356697206073
Ni 2.466995273268502 2.707238978654466 2.5670886801146287 -1.7850081672170743 -0.7258080242533049 0.7455551249732449
Ni 4.07691352254673 4.572329317387897 5.6673798057151155 0.1474954466122234 -1.892831749160972 -2.891742094095749
Ni 3.975691567420652 8.9694519837594 3.3234141339108176 0.2953593323074591 2.067909733377155 -0.21373734845959322
Ni 9.254997231996985 4.127848417877309 0.7826397821174821 -0.2532274361344155 -2.6348600919278815 2.832805981881173
Ni 4.955059284808307 6.780256099069916 5.552156153002588 0.5445339385287395 1.4691761688775602 2.0815993150491052
Ni 4.242308751328938 2.2222918305033623 4.590392662111676 1.0500449588270626 0.9975075510499788 -1.38119944645626
Ni 0.32665276016862194 8.276643518055543 11.384202607245966 0.9625865708030777 -0.887549182151265 1.2766509357192077
Ni 5.131955941568388 0.8570648183932363 11.344475266672273 -0.019588463654888845 0.670815212957193 -1.0789732118256383
Ni 7.742141645931206 2.0170500218533243 6.112623085594523 0.75396263231065 -0.4722224334485222 0.08854313644773137
Ni 5.845326143820443 7.591289855465506 3.3708638618410816 0.9349549251287382 -0.2687905806799952 -0.9806447138563692
Ni 8.37873864281586 0.7320710546980352 13.145330364872306 0.7027755679138735 0.1765687098290959 -0.15630995958005983
Ni 1.9730817057550567 4.982709656559193 1.1755050895396173 1.5500072813930144 -0.47960741305868365 1.922728793830721
Ni 1.274949721958584 8.676329876437617 6.606208040880028 -2.862993304097831 -0.7329960573613119 0.2244133401162006
Ni 1.0520942978910035 8.843349388517924 0.52621896619611 1.0800505040502173 0.24380125772450914 -0.5562892792924549
Ni 7.383644483091113 5.878102866327179 5.140951466585204 -0.9196334642803194 0.6225270673747665 -0.018905064434619052
Ni 6.395685903173047 0.1608350299504918 1.8148990459300745 -0.640709137600432 -0.27507229992364884 2.0927067378161768
Ni 7.451648436432936 6.861113484984561 11.334525827302354 1.9378759338848046 -0.2326257007236639 2.0055190869550747
Ni 6.354618763601443 3.807207383695815 5.533275033277279 -0.042017224972050224 -0.45458697975494616 2.483076559463265
Ni 6.574188065389631 5.014322152886946 1.6091314577153333 0.2973537370296685 0.3692937177030801 -5.023730917340999
P 0.6542237567913141 6.9603825445846 3.208685277324358 1.5753041082865902 0.11053198201399672 -0.31371186667271783
P 3.1874634996440436 8.2168548704122 6.389750227444385 2.8925990427794055 -0.5786316515433971 0.6234832606404488
P 8.549513723215473 2.151565090130044 11.350548959536669 -0.9470275400225562 -0.4792669990001295 1.3437248465495697
P 6.042878426336703 2.9480272414467295 7.848740635998449 0.31999410013700375 0.6825255594155859 -1.0989491407269332
P 7.4471323655289705 5.233844510071142 10.148706069373764 1.313411283167693 -1.5798922418779051 0.5238699824214849
P 4.627104281324966 3.2729120678290387 12.055824973168543 -1.3215002308234145 0.05429038591244844 -0.39651424398193
P 7.855587975936621 0.388395242230082 7.74086850827096 0.3182568057309229 -0.22510676663879944 0.5676327293297321
P 2.3460941401492637 9.170215277188667 11.71874206088513 1.883867855099465 -3.0179313230310285 0.053577419005823856
Ni 8.219521323918908 4.983977160866958 12.995504783449858 -0.9994109387202789 1.6493462229046691 -2.535112602123899
Ni 8.08057468502541 6.332141687210401 2.862808701821292 -0.3286371205239824 -0.4577959736105471 0.9118003413891458
Ni 3.2375440031819807 1.6035901166601982 12.572455034553386 1.3424683484346494 -1.465931179577701 0.28492373879643185
Ni 5.908663803525527 0.27835615158235494 6.451587537605907 1.1184103347753385 1.113519068121308 -1.7833482630161483
Ni 2.230601025409826 6.664246593686573 11.16451500505572 -1.5149909132188295 -0.7286406086060936 -0.44719480105593307
Ni 0.8169835155054499 1.5117195266491905 7.345398714219387 -0.20489275358476972 -0.6673874182225668 -0.7653641892793722
Ni 8.226074790636096 9.085987268707447 10.016827410057198 1.049526110209115 2.562138238783123 0.14209972951794883
Ni 3.9244937823077213 8.61012859588906 0.7875952545148056 0.9497279696728547 4.533992843606217 -1.0002123515756516
Ni 6.862653267995476 7.3335827573947725 0.871670223587015 1.1620931203752696 0.08439697548984175 -0.4838826433952699
Ni 1.0748905975891871 1.2887608244528295 11.204777514114912 -0.14174774549516878 0.018066627693723723 1.4122755990357745
Ni 5.291689651109244 5.410478277048872 10.601780648091003 -0.131199023445045 -1.7396027424990814 0.5350481105254914
Ni 7.793714987876066 8.470759455559639 4.532499637577504 -1.1001488174619891 -0.3294326198420843 0.04525270119021239
Ni 4.086584110968941 3.9765365702924953 1.963240238974317 1.8193383079575118 0.9539144969503764 1.0941656032953606
Ni 0.17121260410881234 6.704881842901457 5.349398652795769 1.0848165579802929 0.5739131630218052 -0.9885184601774911
Ni 1.7661780581237259 2.719350686484226 13.701302821078112 0.7923327474484162 1.8775362564544826 0.25415766125816874
Ni 2.9297751794149054 6.892603925341937 13.448814085187053 -0.8703227909706495 -0.7940589861109034 -1.1378131647819822
Ni 4.935051494587207 8.40485862047663 7.925584258271835 -1.1717964637059624 -1.2505678654789107 -1.984454810085608
Ni 4.71174540232131 5.082673496298304 7.6211109457049515 1.2830786936224226 -0.3083158924681271 2.4907448746418006
Ni 7.0472770065725285 5.072730629172942 8.134786313714581 0.8255567996088685 -0.5296881317651587 -1.5925682946836766
Ni 2.554190180721974 4.685193534303822 3.748498461944274 2.059537707263376 2.05933484722395 0.8531601631484339
Ni 1.5471251469794423 0.5707374730531558 3.03507380395159 -0.43645478893060957 -1.2601809630886425 -0.45415811974764364
Ni 6.6857096666314035 3.421764018164707 11.768185056700863 -0.48197925572496997 0.7519797975526662 3.356385429645432
Ni 5.983512280129283 4.466412901862688 3.489261908675503 -1.7700608018786224 -0.09156778220666811 2.65460333599308
Ni 7.219526147537469 3.0181624798097575 9.826175984327659 -0.5356883152126517 0.6840875045860669 -3.6351066391755786
P 0.5592754785426358 7.094822501494933 9.22983022979724 0.021098729651828182 -0.9094760641313434 0.9642251348477652
P 2.356975899354451 3.2993606577177466 5.508966178438496 0.993105051106909 -0.5609897700919177 -1.1537866573921032
P 6.590271286717056 3.019364261671935 0.27012864028683675 0.19894964862745734 -0.24283555137713014 0.4084914709484642
P 9.046159466681212 3.4435744811790725 7.299761986895269 0.4556776417159636 -0.500326647883906 2.500149198674836
P 2.83383918669825 1.9594865484391712 8.681799861694685 0.44959595429825794 -2.8471275407101677 -0.5805826046221808
P 3.2895867911667542 1.2917840569498704 1.3569356561531796 0.12883849363266844 -1.2125728742923763 -0.67453585634189
P 4.42530820660789 6.025884479691847 3.694795712762367 -1.200404100140326 -1.184690031839179 -1.2181891920378891
P 1.3412730584775168 4.995168754458487 12.955049801514301 -0.7757254779090382 1.1483379755727061 -0.9171004134458205
Ni 0.15322155407517998 6.276521720401488 0.9527764159028134 -0.33327976150231636 3.299553251147737 -0.25221236460633983
Ni 8.460018530166426 8.626268150741277 1.8544883693680319 1.730280179546575 0.29457617428453137 0.8777234543100949
Ni 8.366983713976435 1.428683911109349 3.330381652035209 -1.3484276513418778 -0.008537348047049814 -0.5206067382891808
Ni 3.746019786853532 0.14996829301858172 9.350577384615386 -0.2949410138231178 0.7479246536466861 1.5071711600640947
Ni 1.5606921375329328 8.895739566572233 9.141182856296277 -0.49620954039173903 1.0185209200768524 0.12302857181911069
Ni 4.275770865053949 7.653463288991607 11.09503699114857 0.7770753070687134 1.3677296941045993 0.2638347793366166
Ni 0.39395442223473376 4.842392235229146 9.216047294065389 -1.247519308460574 1.222677823936862 -1.030744715836554
Ni 2.7827352907933025 7.24850035712091 4.484692191764827 -1.6504073171793319 0.009395068061654787 -0.10914050098310882
Ni 5.920935123008857 5.7054406128471165 12.829134984688789 0.0689623861023264 0.21671340036878162 0.5576355089077042
Ni 2.811061664841663 0.6895702269205364 5.33020112643956 -1.082487138516168 -0.5399797434991539 0.14423683046560964
Ni 0.27915796541852667 2.0244297136007594 1.2148953678566516 -1.8280661747488132 -2.8629693928384308 2.340130165674305
Ni 3.000257807847469 5.068796671358469 9.460263451841099 -0.1899762414842535 0.30916975582799017 -0.2547130195410065
Ni 0.772616170273256 2.195007626663609 4.676731299988346 0.25525989318341197 0.6974937506896439 0.6169930249304149
Ni 6.065693503876482 0.614972434502094 13.473988598523436 -0.4586974023788939 0.6142992801483357 -1.2182470418590179
Ni 3.03550381652415 7.163990681015741 2.0605582808324767 -1.3575614953223458 -2.5480794466972116 1.9560865433555603
Ni 9.098774978834681 4.371669302087411 5.521897539053944 0.09552548130283549 -0.15350797135489047 -1.2456143781283775
Ni 5.652308710049742 2.2901831167956055 2.581915663839246 0.8722030387124979 -0.510849658902417 -0.42941099470995076
Ni 2.383555934134335 3.7239558229776133 11.65882854059517 1.5231233125179768 0.7579779241176301 -0.3091967524111836
Ni 1.4886415593270592 2.9415019414919366 9.811376228473357 1.1025003484133011 1.9460774958589906 0.001937840452661179
Ni 4.170211228519073 2.119013701722465 6.9402123260336905 0.17304578427750197 0.3644145352339079 0.8148522687071709
Ni 9.099610592785726 1.8659541194468712 9.342318889881234 -1.430564627152949 -1.5647731268482794 -1.9878941747844603
Ni 6.680705371845929 7.894420552358239 9.320153525660695 -1.886554657903009 -2.0496369032098958 -1.3785596948405678
Ni 8.60121851005151 7.165464741581068 7.453022974437801 1.7246098686346751 0.6788594234179083 1.4398861616641914
Ni 0.6010148648433957 4.060454744387374 3.2813649132237153 -3.1127834324159234 0.15013031313190917 -1.7338869230612268
P 6.7106184735091965 6.987375691879607 6.868495054516156 -2.324425610454855 0.33318103114092296 -0.2902114695579324
P 0.10666377362075136 0.21470114635428864 4.823533648913753 1.5894027524715013 -0.391757446023235 0.5441891535948112
P 6.413374629956976 8.563268492184928 11.54621594675664 -1.1444764357347708 2.2638756167859397 0.2694706374661553
P 7.8104272668969745 3.5943417713575867 2.755101819099853 1.152105155924622 -0.5440708828493921 0.24719074302203237
P 4.932600986258861 6.76742144433869 0.7996130731365827 -1.5569420608396347 -1.8160349546158918 -0.5825762380134418
P 4.752643541318546 6.716195492463365 9.101235814975906 -1.795483098606469 -0.4182534354312345 0.3078800904822891
P 6.033799339924782 0.6206677538583206 4.194428071934034 -0.25861209748509656 -0.1968932803190609 -0.7305023444051806
P 8.658443982316925 7.892326823020227 13.373908336166426 0.19062570214279428 -0.1838855552054833 -0.18230818341603441
