# total energy = -340866.41782875423 ev
CRYSTAL
PRIMVEC
9.21971305162113 0.00000000000000 0.00000000000000
0.00000000000000 9.21971305162113 0.00000000000000
0.00000000000000 0.00000000000000 13.49398199392382
PRIMCOORD
 96 1
Ni 1.7621730056989804 0.2731607410391241 2.0514765425989454 -1.6297143076063547 -0.9794704910426099 -0.1496428319725294
Ni 2.5851153871843766 4.346172807584847 12.084980647580393 -0.5483677104525331 0.3254116716081492 -0.4532996284020902
Ni 5.7777637763963385 6.340571949638191 10.127098945612499 1.388897586431466 1.2071774143084177 -0.21529749385786143
Ni 5.502149669671813 5.1407184723808905 5.401803233056469 1.3676330206257348 -0.2943928546291317 1.9017588764472728
Ni 1.853706318456092 1.0827354603401393 5.846874746624715 -2.2591427300866447 0.9627135832992453 0.7949856116902309
Ni 4.969102730674517 4.674680408999899 2.2817379580680814 1.8744463046752493 1.8949287408993174 -2.2069454792577994
Ni 2.699449050711869 2.2396619528878206 2.5985365237053806 2.5114011174395716 0.55232078156301 -2.6528151337444053
Ni 6.693189101099562 4.7962699868243135 11.837434113783594 1.6662993058192397 -0.7982025759656317 0.6075671036308247
Ni 3.8976798584440644 7.960623076192241 6.159895073788215 -1.4340546425840786 0.5526581102977708 0.20118470860556317
Ni 5.737418311385751 4.5720004629708955 8.771304161078556 1.1763791979806386 -1.181568969711694 -1.4615407638194895
Ni 0.1311743916783924 1.3709621347370793 3.7958840829119795 0.041565482146612286 -2.091509889294598 1.3000299767647805
Ni 7.931387365600703 8.311829611532355 0.01781893972256944 1.973215746836679 1.752910772461897 0.23704748394044337
Ni 9.002164857906397 3.698727667067583 11.55391225903814 -2.3172743441220542 3.811168841681901 -1.022571178886826
Ni 6.440412223998259 6.8189275498688495 3.1758897165086375 -1.756175045035466 0.8957841684665475 -0.5152300473582997
Ni 1.263617013823396 0.03545071926695905 13.074791540439906 -0.19813820846975555 -0.48573718010550543 0.050640962085319235
Ni 2.995208230802056 4.647749626711067 3.0539848244924133 -2.3275335599562172 -0.27486121235410726 1.4014875072813346
Ni 1.0244023348552236 4.25568132242056 8.526847153178705 -0.6359621098337498 0.810161805210037 1.102056061787031
Ni 4.829673007787148 7.027846251226237 0.7369777755076258 -0.5068860462689786 -0.822862540606157 -1.1952644649209156
Ni 2.9817566692274564 6.065520245419526 9.976262593540694 0.8987249962624264 0.1607893355076521 0.315507782230876
Ni 2.237375464011535 6.90822047231573 2.792836447795678 0.1915538703840185 0.8983107915431433 -0.8022209530964055
Ni 2.682761369800268 8.917822921453732 4.224169264637267 1.4001510478580983 0.1554676661844226 0.48792184646165
Ni 2.41779603183425 2.110484551090894 8.161997286229209 -0.3237921337268553 0.613222245034073 -0.575540414212583
Ni 8.295169589760386 8.10952144454713 7.133985433651945 -0.6459181926051972 0.3977324326597473 1.0787058170968649
Ni 5.399174692820063 8.972744753050641 4.601151352200895 0.7569327706825674 0.058913229396440475 0.3759382196027913
P 9.006599539960805 1.2184588585167548 1.2310529867627475 0.18607690642984726 -0.35068895811769923 -0.2559834016129978
P 0.7155631476328329 8.345278731061242 3.950835192989779 -1.1062143069297787 -0.846470152722768 0.20398181173472613
P 8.457713133667305 1.230204773147351 11.435057248152058 0.1729416545994699 0.01022244905895659 0.3244487934742477
P 4.896432951146761 3.4274652649785686 6.995833563015596 -1.5988865235922205 1.6550512437092464 -0.16849724567487112
P 7.8367285700651195 3.760140176764916 8.170269212921964 -0.01648874168364257 -2.2216740437172255 -1.8559459318782165
P 0.018513184127344873 5.593904255545985 12.977459950044505 -0.3777467335664398 1.1745357170139965 -0.2360488674725999
P 6.271110630307805 8.473875290925887 1.4411573432390479 0.6691941324140023 0.35331122623189476 0.2848874862418577
P 4.185915752554215 1.2956370778046054 3.6527803043100953 1.607923179873192 -1.2834394193959509 -0.8101067836023854
Ni 6.640775031495999 6.996840355698219 12.370675588729638 -1.4133019834177596 0.5117030080416478 -1.3626754195101434
Ni 4.28181920937326 8.416381159343157 2.565948525390384 0.45163483910515767 -0.16819668371531676 -0.09035936372086373
Ni 5.89998029471909 8.905929491411761 7.778997491852871 1.1010438184724327 0.41916180617811677 0.15659355225874969
Ni 4.70826782422695 8.60377183035326 9.759441675990304 -0.7200595518053019 -1.37256979580572 -0.17275653517185732
Ni 7.205842034474504 3.6479178275627038 2.1914363989959367 1.1864144707294535 0.6981691794901136 0.7244792781395523
Ni 7.303432698811131 6.155993291157393 0.8706442556669052 0.6752837902515081 -1.2106095799184182 1.0337161397600518
Ni 7.691803898104096 0.6421308978225423 5.440288159941113 0.6077072287531146 -1.9148740736729921 0.9365592935013806
Ni 0.18170118598769922 2.3395206666743107 9.759427846420488 0.150781830672979 0.034220097525134614 -0.9159372463756549
Ni 8.017075380182149 7.222963041907014 4.908341132729869 0.5608031080024084 0.026290044044780532 0.41008658334972603
Ni 0.7498153041823841 6.81293473628181 8.52595652888254 -0.37167481634074695 0.19285639124552592 1.5397701770460384
Ni 0.6577601556575398 2.9444905884292853 2.4444078120459873 -1.309921010626247 2.2684879187469704 -0.7864091828751295
Ni 1.0540344931148282 5.505726918397614 4.208813832284631 -1.6419152205479206 -0.9396716138781172 0.11650054089260582
Ni 8.637940087512591 7.9278469957277435 2.2140246963624683 0.11344118524099173 0.2666190269499731 1.1098776147139786
Ni 0.24621889509443923 0.03282402297319383 9.193179798179674 -1.7454010943484133 -0.5199115119943691 -0.38448893738627976
Ni 2.083664405360592 1.0157819030030983 10.306298823406102 -0.864041328837312 -2.6418912877430505 -1.1789541577966665
Ni 7.2379911744406655 5.751736526002168 7.206285502679945 -0.08546886839778184 1.2891305562434572 0.5910037999555047
Ni 0.5494976732793788 5.85583630786564 6.478650062568852 -0.7533972467254831 -0.6820257369610319 -0.7340250128464584
Ni 4.842110400908556 4.190258237476516 10.830121439335963 -1.9861676790116567 0.7540652193267852 1.1511679888223336
Ni 5.29372883282781 2.6633723129178946 13.164702183671912 -1.8835891475167819 0.5691062285514651 -1.789920774027343
Ni 1.2995185770663644 8.082728957956462 6.175021857253223 -1.5778345880179279 0.17620464162145782 -2.005817077811468
Ni 0.7830827953610189 5.923840912508715 10.96063569954846 0.513310975958716 -4.166063610350831 -1.807613820431732
Ni 4.621915990294324 6.534305783337344 8.106793331408047 0.9635759312995406 2.5894199573172116 -1.1629922351507713
Ni 6.125079592761482 0.5593931914685617 12.975921179909616 0.4864285497455752 -0.7275985404948243 -0.38754752170694545
Ni 3.9297828998441715 0.6407590044967708 0.5962978595088685 -0.6188604171564567 1.1011114384855747 -0.07176283166559899
P 9.206178671835623 1.1319502894595452 6.961315878725573 0.21999927020890497 -0.7431010070057976 1.032382508550293
P 2.480388664822569 6.617449157072601 7.141123335619769 1.1068807368691842 -1.4304838945136849 0.36162385986264817
P 8.03376306109375 5.456060323330878 3.431884273520519 1.288977832715677 -0.3746323563071742 -0.6176023763796397
P 7.782830126634613 7.326592618396734 9.276586855712761 -0.1585283073876173 -0.12431952271639235 -0.8081779420107889
P 1.7953455338315438 7.9475403031460745 10.193137907399027 0.2584586026263678 0.6537919389263193 1.413494816154856
P 1.8889717214875135 2.983886422979158 4.327331401667196 -0.9343918535364166 1.3395056662618996 2.5040086816302423
P 5.897850540967388 4.541667606507268 0.3375051195375005 0.5480170119813336 0.37210367634804953 0.5023673324630187
P 5.93756906547964 7.571901527797264 6.192172367768007 2.7283425746587593 -1.9454604311002817 -0.3878503976593449
Ni 2.2955241952322343 8.73031239417189 8.097604043250813 1.1513618500006944 0.29727377572135255 0.8775925851591853
Ni 4.731215690408704 2.508877578644031 9.341452148007551 -0.6066913858940907 -1.1270942357025815 -1.0309213506237342
Ni 3.0819565124027473 4.929282789316945 5.601918952240158 0.0853606249546917 0.16954985530910155 -0.296596804258986
Ni 3.399999739323509 4.753343002114693 8.02144368030144 -1.0213362780384603 -2.5404311861233344 -0.5429010309110069
Ni 7.46578262874062 1.4890482215413787 8.39912646606909 0.6277291804009963 -0.07835025507512958 -0.6253087438849618
Ni 2.885862432121623 5.341846516075127 0.7680021104620657 -0.2605417104076416 -0.3383453489506818 0.3224183933077802
Ni 6.957859408242833 2.725282687128612 10.330897940223915 -0.0741794115268916 0.13852666745470982 1.0880276087184229
Ni 7.07368666531048 0.6020952151758378 3.1813145957618896 -0.3240865250388225 -1.0428697812348622 -2.3066960543855757
Ni 3.6254309470414916 8.902158628708532 11.870494161414985 -0.3446525221156322 -0.50609697470878 0.29704700442252713
Ni 3.8395680060762087 1.9341390965073653 5.598558366774811 1.2518886411728634 0.890808312518511 1.699992070085995
Ni 1.1323467371276108 3.6169672503139503 6.3449107466752075 -0.07622703808453968 -1.5103523860055539 -1.2456349469536678
Ni 7.654952704400413 2.934302805331319 13.361673980650707 -1.4327706336653323 -1.8585951965756056 -0.1912481662181416
Ni 7.094135989212099 8.805904822787477 10.72508493461027 -1.3394573295224674 1.5964236638740248 -0.5667891503825141
Ni 1.1140548261173258 2.307611239251631 12.222593164993906 1.576343091074066 -3.244668426184399 1.0968336370458271
Ni 0.36205905976058067 3.7460708944051904 0.3972497831149943 2.0999328232509704 -1.1486984442359185 -0.9519704858501282
Ni 7.8170629217864205 4.498408712122058 5.359458934221774 0.7864544342907682 -1.0740451783964018 -0.6514267811282523
Ni 8.149922227836985 5.08667251353901 9.610076790146946 -0.2260439337410881 2.001367526680547 1.6759800234421136
Ni 5.178012212318694 3.2639720906109355 3.9508490225595954 0.6018921647332344 -0.5462046413629432 2.178763874617261
Ni 8.861287640044926 7.576336209851672 11.295799011930411 -0.44524307664620094 2.5164103977287047 0.8879896121227933
Ni 0.32438546763849063 5.381306888617476 1.794470583047836 0.0836932645545978 1.9437169660466136 1.4286902929483718
Ni 6.412172242433491 2.2304606791034134 6.383409503129666 0.026957245315134215 0.7044436996449158 -0.7283207633728295
Ni 2.2435342324363687 6.762189434769407 12.32645600022786 1.7561411064737371 1.7346806226071159 1.6872028887411268
Ni 5.313790928774574 2.233217373353451 1.905836420892762 -0.16637248602238444 -1.311012186807897 0.2406549987860436
Ni 3.29293120980615 2.20006328464731 11.511405693250934 3.259082287616884 0.7556150803124084 1.6133546353014083
P 4.0974249451566775 0.7231933822861152 8.152686297857592 -0.615535723658598 0.022784344884367213 -0.589320755826127
P 2.689878988399028 3.6507298400920067 9.862913595384118 -0.037788788712999434 -0.02643042627738674 0.5896938228948296
P 4.400264864992781 6.1662732713874675 4.0224889601217 -2.10686168916032 0.7894389708403888 -1.764499248630445
P 2.7379321336538696 8.039092055329608 0.8142647874113641 0.023194435838592313 -1.4726641274261605 -0.8008068463576983
P 2.7872022810525405 2.919984590714902 0.3264221022867628 0.10140636556364471 0.10209567832118548 -0.48026458702670827
P 7.291428632210631 2.4022792545004243 4.258161425274272 -0.007278535939284239 1.9535138975323776 -0.08535471141742075
P 4.556068798542583 6.72151206008323 11.753258132168725 -1.507645785707668 0.19309164718478355 0.7041590785249615
P 5.264207311126735 1.0343043068436542 10.925335261606838 0.06368622530505161 1.1036668579175768 1.459719908560667
