# total energy = -340857.1342088136 ev
CRYSTAL
PRIMVEC
9.36810965850162 0.00000000000000 0.00000000000000
0.00000000000000 9.36810965850162 0.00000000000000
0.00000000000000 0.00000000000000 13.71117542824884
PRIMCOORD
 96 1
Ni 8.063310138703237 4.961191716675101 3.149621296625214 -1.0782594735880655 0.0943574291366633 3.0781699561071116
Ni 7.4725758680221555 7.259245270604707 3.6554814289107926 0.9587659115054069 0.040899309317523114 0.4048587592918834
Ni 2.7943104368118545 7.812919298734257 13.10462074121591 0.6453026705083854 0.11942825606236204 -0.44669035061568874
Ni 0.3054893780293489 0.43050305668282257 10.047179771855243 2.484359282830431 1.6275131861899779 -0.9753716383828879
Ni 6.596236032460266 3.8743504528693102 7.788509751719023 -0.276464295175169 -0.963140900644651 0.06672912589643347
Ni 7.799082600491433 2.7373054883977854 10.912807173808014 1.2928445147599346 0.45879433296807437 -0.8206961290824574
Ni 4.378832536196514 0.5611347908110567 10.023527168115582 -0.9094518957616273 2.033303456157195 -0.04698639605186747
Ni 4.319860284714745 4.983272351582571 10.026818185104547 -2.2787954713205654 1.343317583808822 -0.7070469415957178
Ni 6.5100119494359285 5.443274649360063 9.75768175733334 0.48058391803934003 -1.0161537053962564 -0.367795793001315
Ni 0.4889656829889589 2.8897152674854585 13.526102308116853 -0.13635768482784905 -0.38037260122506106 -0.1900196931276792
Ni 2.3868257628321063 5.613811721000115 4.661347561639066 1.6545673620942924 -0.6752454808144048 -0.4053608957392825
Ni 8.892312915212326 3.0443827610460636 2.238938907178174 -0.4426254365176958 -2.1197125769810587 -2.3514052243674923
Ni 5.741414745215075 1.776755713428489 5.889045851470207 -0.04225402357320465 0.5011671415073304 0.7764207042038499
Ni 0.1679917561948418 3.775348268014769 6.443320375440899 -1.4352440349064897 -1.6329029897469811 0.29577019459263254
Ni 6.984591026134093 8.240910765167316 1.45390535423218 4.583701266574939 0.3201771626820873 1.1848712946120497
Ni 0.7391878969807071 7.6878831366171525 0.2517960564459081 -1.837979834318099 -0.25408464192838826 1.8638559307539126
Ni 4.649814481607421 8.364822754102878 6.401075820900487 -2.410158788257617 0.21285314608242697 -0.5133338587768513
Ni 1.923947455331834 3.3276462984653254 1.9698155947607519 -1.7714378847318073 0.05689208520135363 1.1021907875926824
Ni 4.703718585662401 1.4955718963950815 13.542171426936022 -2.3332360096576332 0.03315000438940743 -0.36056610802209516
Ni 5.220913194050886 1.961270004959057 3.5912583518602337 -0.1550182373518298 0.4224060241470273 0.530604215821525
Ni 4.079006180569188 5.8929720263067455 0.5186429181707058 -2.2392637317745305 0.39315818302550354 -0.3911673778477199
Ni 9.081679887643219 2.9823190333150515 8.967684979790835 -0.3177744667778656 1.1018732563522635 -0.6623310867455819
Ni 1.5839787490135813 5.27819918576034 0.47216397797981635 0.7137870885330287 0.17892898253115636 -0.2693109719598394
Ni 2.9853355646855246 8.032114332915421 4.406949981088871 0.858914806244024 -1.1606677007826527 -0.44424034641329946
P 3.135637519057805 3.0199975711164293 10.015780678083765 -0.6024500941192334 -1.1539584070832771 1.1079413169232144
P 1.1263465830271755 7.424976501893662 5.278829659552989 1.1965878117180295 -0.08288439550005725 0.6783254052913091
P 8.04170727739792 7.0240963453554786 12.94780607687856 0.3351767214147131 -0.030219461006173762 0.6239581433943382
P 2.746148984092589 5.803918774108858 12.089335910848279 0.037002802476594335 0.5145317357396945 0.9908622778193195
P -0.14591486853130928 8.127893887982873 2.4098900492734274 -0.006439070757124394 0.7368925642022406 -0.7310921554703795
P -0.11727374629855108 5.393661139614639 8.04168666755626 0.0011120021172561494 -0.04376326112887947 -1.1876532282325611
P 8.764110331967208 5.013240934980535 10.394647650105371 0.0740966220050982 -1.1413628298064535 0.5612401955398271
P 2.540725071385324 0.554479685576323 3.2805359476708027 -1.910656178936903 0.8658215606661863 -0.10524219436996715
Ni 0.22149865239234343 1.834875466914255 3.9955325745956918 1.3830794370877921 -0.8028130781544496 1.7406604943396344
Ni 2.3385987333439178 8.253754443766443 1.9165888050476516 -1.5889895761934827 -1.5054840021696587 -0.009412551563151532
Ni 0.8257520423924611 6.6592272030660515 10.230854680743592 0.816973943035864 1.0670903443451234 1.0505432386197198
Ni 7.136569872168841 5.483482576819913 6.372927461245639 0.43484527835164466 1.523883073502137 -1.0030300235301046
Ni 1.713802015262089 4.557932060235984 9.478412781952494 -0.20495703116380187 -0.045500041314328096 -1.4658221648036625
Ni 0.6735427408554965 6.207562523051668 3.1468249158361257 1.7342355646498968 1.8026711317144761 -2.8227352279087325
Ni 9.03097030904579 5.007648173402359 12.755149961080667 -0.36052754147467586 0.3013680003953842 -1.0364615637156729
Ni 7.509280122399531 2.9471043084032216 13.297097926115741 -0.3362830671050144 -0.801566093121226 -0.43633317575108077
Ni 0.026857434118043526 5.590353973945255 5.076768898280506 -1.747543851723029 -0.15857792967863013 2.6072839820818254
Ni 2.9219790377957384 3.03585778108603 4.334061402430586 -1.1719319608425625 0.21226050680375058 -0.3485793679738642
Ni 5.429887620389857 6.97095105819804 2.568281366497893 -2.2729287281271433 -0.3740152915484655 0.005263562391784484
Ni 7.954471438510195 7.061044170588853 9.52405702355609 2.8594858051652046 1.7763304369374182 -1.6494611512159785
Ni 5.5193811737505145 3.747206466036813 0.43003184075755924 -0.5884694635694252 -0.1568169811234654 -1.3000721428566255
Ni 2.520218278932013 1.6911873980933851 11.723110266253123 0.9440520023339999 -0.37002519655246596 0.049039936146786506
Ni 5.618383358605056 5.935175361163833 11.999143496493096 -1.5200493015783434 3.312949469948985 0.5143954672721464
Ni 0.7600047738699269 1.3233860374221003 7.564263432708791 -1.4466944428352762 0.5317833237312906 -0.6585477084437498
Ni 0.34889557819068795 8.633490776381775 11.970226951830858 -0.19325311246331234 -0.39011939619917974 0.6261782909741087
Ni 1.9781794432314308 0.8310281618578356 0.25657285565648064 0.18615146842152455 -1.0998382282001058 0.644588160939864
Ni 0.908199840337799 3.1626270435246795 11.053250129378164 -1.034246044121593 0.017249016888434807 0.8230042083903439
Ni 4.078949971910111 3.3174256906231316 2.059815962864089 -0.5070143443167268 -1.09115715548634 -0.5104053722761468
Ni 1.981336496249597 5.08811086887129 7.008549967065725 0.9747700002431471 1.063972110431116 0.7159897526113024
Ni 2.6393618999558637 0.3224746979914769 8.18111599364105 0.4764961211232116 -0.39198447443237655 0.12451672632886297
Ni 6.2192820284692525 5.944112537957099 0.5747916213448332 2.51597639551508 1.48122075874692 0.003441164471065041
Ni 6.427338380043298 0.8521729225916721 8.710476966286784 1.341799861612715 0.9382006857595455 1.5695525505147936
P 7.497167156368406 4.27315088902164 1.2379816640093044 -1.4092992900162695 -0.41173800291021995 -1.296290050106374
P 7.668322523258306 2.627183357155816 6.442922230772436 0.7358412401195907 -0.11170080551111729 -0.20119653568010512
P 6.578689562718351 7.694468917839024 5.621911388773131 1.745860550483335 -1.5086963384593695 1.2099020123284325
P 3.4427241598159295 5.644763955931928 2.624743901351868 0.3861750668394511 -0.06637379943954376 0.46819454323605175
P 7.074618561755983 2.9991909991480408 3.5715553432317257 -0.019544754901146984 -1.1780277893276552 0.7216888598786086
P 6.221361748855108 4.138868402486345 11.627667026329148 0.3640579232254375 -3.709654746895798 0.2750887549838811
P 8.584298831579428 9.095113757162657 8.433607163837546 -0.015717153624940673 -0.6807831228031823 0.03967623554369941
P 5.3285621442934605 8.327209793070422 0.5289131769950844 -5.160962263023054 -0.7744381265561824 -2.3627967540338854
Ni 4.634207210603667 8.406707573225194 11.721492393682686 0.6113517674842375 -0.2833473954482475 0.6400187964016268
Ni 1.754909281267173 0.3041206971808205 5.596861063044418 -1.9009073270802554 -0.3889991665518075 0.6905849393849526
Ni 5.624809881959543 3.1821033438949096 9.710583585081618 0.780017934636805 -1.6776180732661687 1.0915011690893202
Ni 4.0221042813634265 2.968472966962382 8.161508539732974 -0.6871913403223713 -0.9136996152943878 -1.2633354495572244
Ni 5.913656812847134 1.7451851832468273 11.583036414210914 -1.2540349980919046 0.21806348663877284 -0.3683159271708431
Ni 6.252538818423229 7.862270501403987 7.827628168003759 2.8700255283542635 -0.7660607011257644 0.5642622701956024
Ni 4.209269747980467 0.11851783128612517 2.012567900854827 1.0378867261979738 0.4917355637807853 -0.05145831578029202
Ni 6.030158626894359 1.4351194835576142 1.6105832441657775 2.4734454641314048 0.3595654346717227 -0.8874607362025168
Ni 0.7135473803316837 7.459994496498721 7.474812035842441 -0.3587133710840726 0.2253636198446119 0.3506061685959059
Ni 4.2507236340498595 3.864794980826196 6.119379568258493 0.17482010256910535 0.7072523727383045 -1.3285689647447376
Ni 4.924421885528802 5.645682030696855 7.59610095402107 -0.6587320565404139 0.505993102141064 0.327860647369274
Ni 5.429644049533856 8.631064435931611 4.23272187416942 -0.15043113220177964 1.6667191669654782 -1.6706537261331937
Ni 5.651846246975649 4.611171028491885 2.7988071295380257 1.0646377690395727 0.6710455838004443 0.9113339432756885
Ni 8.86507981988945 8.719171509035032 5.278678832984466 -0.5848398372366379 -0.19872544843179324 -1.3012641062821977
Ni 6.5714386456974 0.11851689447514056 12.972088217599884 0.8792432333887309 -0.3709500223595805 0.7261193848461366
Ni 7.878102607044049 0.5851405722919198 2.917422389166551 -0.015972207058540234 -0.34589719315601075 0.7799212611579407
Ni 4.251070254114168 7.974931390414274 8.806715558736698 -0.9840863925480665 -1.490339947439369 0.8018435151523288
Ni 3.716938103123771 0.9004158778665994 4.925438325447114 1.731231487716251 0.018895808463238423 1.4033155616290087
Ni 7.606352476625756 9.36662031672495 10.802171670146473 -2.3280477805884745 -1.1681899773016269 -1.6055359105879383
Ni 4.8357339896149165 6.05593029708123 4.906434177813132 0.3193143004611597 0.3126173480569584 0.18151834052488738
Ni 7.604197811361132 0.46036297000657017 6.721245963869801 -0.2969765561959079 0.17076238755996398 -0.4183236265475376
Ni 3.756996140826082 3.7975038478010092 11.909527220893452 0.7478315797122476 -0.08718919352299823 2.6877497408380613
Ni 8.928923488491238 0.9418510277162999 0.7939707297392598 -0.3983654382580558 -1.0375457979187872 -0.43803961691922627
Ni 8.560129108176257 6.044866559352878 1.2780959103706924 0.9407044260180057 2.3582063064497256 -1.8620888115511611
P 6.103098730156799 7.6038605594066695 10.26961617204319 -1.7809519948698298 0.1445942138050284 0.4249187632665521
P 2.2021709496538455 2.883747781513435 6.523722178195829 0.5498062426712725 -0.6260296812113864 0.11258629343986415
P 2.342814382774703 9.016768254518967 11.044269859279606 0.7197250512840185 -0.3534318109701591 -0.20320148192527585
P 2.7744781482674687 6.376038610525558 9.337269091765851 0.8565540193213314 1.1174312586915207 -1.4056786625445468
P 8.49062710122737 1.136745184956447 12.283828176176025 1.1353050536481482 1.0684918526783405 1.3925716928489436
P 0.7554912185460323 3.9599749768634913 3.693393232647341 0.6975382307743341 0.6416360202900756 1.7897726784852532
P 2.533642780341604 2.877058951083255 0.053180885974854195 2.6732350921616543 0.1678668111797238 -1.7486666524735628
P 4.698294450061456 0.7792843439333871 7.6538113211065575 -1.317749762642047 0.0611194930191399 -0.7012462757535407
