# total energy = -381162.1779239842 ev
CRYSTAL
PRIMVEC
9.33879887904809 0.00000000000000 0.00000000000000
0.00000000000000 9.33879887904809 0.00000000000000
0.00000000000000 0.00000000000000 13.66827613974098
PRIMCOORD
 96 1
Ni 3.3113232339612035 2.4051609165020245 0.6622282254772304 0.6763492554015449 -0.2746159291125206 -0.5399630313286056
Ni 2.6987260542847076 0.15682271139587994 8.278205358117084 2.419752088373007 0.0329869964489819 0.8328307075624624
Ni 8.27636094536976 7.594432523991382 1.564471049113366 2.2698084373306067 0.4018325708710499 0.3367162979876911
Ni 7.17958440722401 -0.24363991982224975 9.72469095807401 0.37087160371316125 -0.11157713544905946 -0.7474320302809837
Ni 4.567541082664096 0.14961315878356143 9.989172275001067 0.8060233575616312 -1.7604441047244648 0.8370360038930617
Ni 6.222553653133615 1.8023041038911343 10.929358637839082 -0.8012249077317233 -1.1985637044974777 1.0507139598696291
Ni 3.055533537003428 1.9861943894988587 5.0318661550533115 -0.7256578718286858 2.264130670219539 0.1675654778892211
Ni 5.283238600216235 0.6729164806129797 13.224467414697834 0.7899231095656589 1.1162511223404903 0.5592203368963208
Ni 2.899267418011297 5.404418852414998 7.756651193288037 1.462111805831611 2.317929718317866 -1.805295970931833
Ni 3.718298743407094 6.2447239612963665 5.1360460580610585 1.441597745038659 -1.860357944902983 -0.23254625363598017
Ni 1.8226159911084825 2.786949685798403 11.961394887734007 -0.49876393138247643 1.395287806228526 -0.1591651696406678
Ni 4.017056253278442 2.9546371556258517 11.919419789124436 2.6284631872626023 -1.9875851281844736 -2.0771867878037065
Ni 1.5323848044690604 6.8208344543714015 5.831625001529367 -0.6215168809426974 -1.0830646082861928 0.6968777143721998
Ni 8.448829880142167 5.882742784086422 10.758915288509177 3.6603188767751482 -0.36595385469656977 0.06378392722518048
Ni 9.052004211909559 8.282543230122812 7.678823512510136 1.1791883852946596 1.313835772299621 -2.011114578764982
Ni 6.554837450411988 2.4761544643761764 1.2047097043593133 -1.3146916925420131 3.5682127055665065 -1.0911263022484048
Ni 2.976172425475601 7.977696823485619 3.880204562946607 0.8038785433044865 0.4916933976889403 -1.8923041587922764
Ni 6.277447112013418 7.9547700726264985 0.7827967863597921 -1.3011908298421009 1.1946309451019748 0.007960392497657258
Ni 3.982456004018545 6.249533442637486 10.729555973091294 -0.898740165771078 -0.852584750260938 0.6763207161564545
Ni 1.4438156374027022 4.07864563084093 6.330584876733745 -0.21809639675923728 -0.010019331909215001 -0.21165681178148066
Ni 3.3694105620034587 4.574610553295606 13.102341142188672 -3.182272894666313 2.3246240996189065 2.4046890233922973
Ni -0.139631850710963 2.65340486409354 2.0251876096769346 1.088458011387622 0.868628433987362 -0.2654147222292268
Ni 1.1758668245106791 3.7292438155076604 0.19978118551073099 1.127611541658632 0.8272902373602073 2.1622103411339535
Ni 1.8328606533050023 1.7527804542756875 7.247972430255109 -1.5312773090836789 2.586065953243314 -1.4111813375303308
P 0.031634246786227484 3.335958984986199 7.928680270640703 0.07363073811227319 -0.11826843142630598 0.10029899143207888
Ni 1.947251598833874 7.6775571714036195 12.402142294993274 -1.3672779512791613 -0.47919475100129727 -0.6518263305595161
P 6.053362636712146 8.109000333497534 11.25205242271125 -0.49449821412758715 0.21877311111128772 0.8908741327594399
Ni 1.4197121979047826 7.9076464942822495 2.0088951414289413 -0.2871600843261184 -1.2287091177326064 -0.18982197529457634
P 1.5644355616782275 5.501663763492811 11.794532967713462 -0.2437315808288383 -0.37510543928885076 0.06161982969432613
P 3.619895821287923 0.8574081848583119 11.805836649684899 -1.6621999389388857 0.009065452636377936 -0.2769985704120842
P 2.793374779318189 1.0710481476704428 3.1490616061904353 0.5024388091309023 -0.7132214458375459 -1.0783240082774137
Ni 7.602734716054014 0.7015230888539823 1.0423873743968606 0.6533972745910618 -3.0156366134595802 0.7637811610629685
Ni 9.145093357556696 5.12405877602327 1.9695031545454948 0.06412794082816052 -0.7641349448579614 0.023728453965191392
Ni 7.727491728162773 8.97038311109134 12.504927915352031 -1.0036332043317424 1.1408594078074739 -1.0755544159520767
Ni 7.269993317638331 3.7853419794224235 10.622792958357424 -0.22006020535382748 0.43193838911749477 1.9920827589445114
Ni 1.459588868441829 1.001137900447883 1.392565243903813 2.502514613583219 1.354832526426957 -1.5782585629292238
Ni 6.873841475909639 5.064197076224097 0.7144582589619127 -0.7810805715733644 -0.7221187483271757 -0.8476749716641466
Ni 7.7686945081181475 4.746659242125583 8.653864139933246 0.7602314960384972 -0.631837546142415 0.26801976395224164
Ni 7.538558491245915 2.1579535755684978 3.317194536716858 -0.3676273857442508 -1.5890386842638633 1.7468902772994301
Ni 4.564207131520835 0.34596326964433666 4.639299478153466 1.9438781742148266 -1.1275197532757744 0.12829470531405648
Ni 3.7255176348181327 7.886877005927591 6.416503692723191 0.8612578525549038 1.8438936286993728 1.9602453027189402
Ni 5.448339222798071 0.3073071801000752 7.578006510921685 0.7148929200026978 0.07824329718362008 0.10350387152262176
Ni 8.771065129997153 5.870312842989278 4.117144828566684 -0.32260556961792186 0.85881479033105 1.2045690301512932
Ni 8.192984150392068 1.7089161166849363 6.6104976246667535 0.07632422578403629 -0.32108167677422766 0.10917238266230875
Ni 6.926502961895214 6.194873453725698 2.5957835421074433 -2.040115851093338 0.8864634052862539 2.263072147048038
Ni 7.0745509380132 2.2949163976051077 8.825455227625914 -0.6843145329952085 -0.153233120426949 -0.3463790178884357
Ni 7.477800266769562 8.90090244860993 3.997875294586161 -0.9537224355442284 -0.5455649508964152 -1.193377275200532
Ni 9.331131566870164 9.673501266766806 2.701397884598677 -2.0862679241693685 -0.7865472511148905 1.9847551149348461
Ni 8.170589711060021 5.908265720989877 6.562453240768653 0.35226144481114174 -0.15917493983268072 -0.6965583833595681
Ni 0.4395725863802133 6.28637500359033 13.786779832663152 0.6213947535425364 0.4511920951407843 -1.0561009352131552
Ni 4.108520447948192 3.7206147654898074 6.5386430395505615 -1.240307106982851 0.43698135085804096 0.027122053027772645
Ni 4.530391341353471 6.5681078833939885 0.5127000497620265 -0.9365860329742579 -1.2356840063885428 0.7339211402787424
Ni 4.871108073876563 4.716728392225996 9.13796692025299 0.7035001047847239 -0.23195078614382633 -0.22859883895245794
Ni 2.379301782844628 3.3289268695495724 2.6403417524431365 -1.3693230067336482 0.057511463952907405 -0.2988267220307692
Ni 2.147195279442344 -0.12726821508473446 5.481894460481131 -0.9766988418347436 1.015152774935568 1.272706092138847
Ni 6.788821052357117 7.7174618583368275 7.160399713012242 -0.0028585524947176578 0.3651658115776356 -0.022020213024833046
P 5.090691248194497 5.780454921699474 7.065063652392922 0.0008286665488824439 0.2808176870478583 -0.5339116829282031
Ni 0.4471640958602051 8.00423768944962 9.896651862196016 -0.7508803938409003 0.5220141601596687 0.9842452867234338
P 6.783703390658217 4.104542119693208 3.002086658045449 -0.7031743460141889 -0.26424641295273843 -0.15573197558940277
Ni 2.7088960060914626 7.837409389104468 9.878349684463345 -0.02157438373666607 0.11742151004497842 0.10180540077427627
P 6.735216347700758 0.547920395256972 5.632286475077992 -1.0963911501917698 -0.2586491213706191 0.46056685148746485
P 1.907907239823903 7.732674761452717 7.774706826734483 -0.6556896701696643 -2.334625176695676 0.04197428754925674
P 2.279796882476424 5.501439632323517 1.323165828971271 0.2052388240702788 -0.0437905148223891 0.010140687978427695
Ni 4.101432299719241 8.14407686149218 12.418681307527493 1.6399231298185564 -0.24651737110409155 -1.276219504608744
Ni 1.7962805787163345 1.8889868336159272 9.696794098535776 0.5647520653478274 -0.4561101012676919 -0.1292627256542806
Ni 6.323216564543175 6.133816387690286 10.474150100760935 -1.178777780119802 0.47346864715079745 -1.6079584039865018
Ni 0.24082613976772702 8.859550247875026 0.06859347660295237 0.9328389072269999 -0.06253334264753102 -0.36852495785785566
Ni 4.861731919961061 7.408020762729091 8.470914271356689 -0.38196308564063247 -0.45775612151154715 1.3288204186339114
Ni 8.752415548952076 1.8178251873648044 10.956353369420905 -1.441543494761956 0.6239951672798608 -0.15855144731606885
Ni 4.746631225729422 4.437171452524244 1.914747909886757 -0.40565631549251424 -0.3543190986711188 0.3667190149973685
Ni 2.6388643544855346 4.135509576250783 9.438956403018567 0.8224473074456095 -0.7563064499524781 1.6876320058587453
Ni 4.223070153055314 2.212090591751931 9.28358867646336 0.20434896526615776 1.3141165367648335 -1.3728559595875711
Ni 7.362148583413407 6.66169198537332 12.560120215790896 -0.3966284009622911 -0.07940517870220519 1.3129063185068164
Ni 0.7245292195022291 5.7814821895587425 8.367486141645951 -0.4489994583648397 0.09801893714865055 0.23252259948689633
Ni 5.234676846869012 2.616675368725342 3.9450877348178572 0.1638034397436276 0.2789772914050099 -0.22508105560718655
Ni 6.206182738976368 3.895418399942369 7.322040310668089 0.8693606841676964 -0.47607446020476074 -1.2955698841108978
Ni 0.6197535011361074 3.8085022002495603 10.175839919348304 -2.4895544538781254 1.2472123187431166 0.23489521348413095
Ni 5.27879333202522 4.977364925719775 12.235991057555367 2.5165806047579817 0.6759679608027261 0.04162461751932186
Ni 3.334726263555077 8.745336739521845 0.9020074859083759 0.39299131843033613 0.24240540581824707 0.35983128673859965
Ni 9.042796156371027 1.2042380950239222 8.723763180597341 1.4819339827638607 -0.640881144401922 0.14579723297419409
Ni 6.1749444572558945 6.972515223191708 4.9993223092716965 0.06457788388138556 2.3953731453080103 -0.5057480760097934
Ni 8.25616112373706 3.5820830252681337 5.298588783673318 -0.2689199071690078 0.9269479956638617 -0.15313927516156206
Ni 0.7145273660724454 1.6341216777314924 4.837011185867708 -1.1064423637801846 0.7940214480047486 -0.6075984710893922
Ni 8.944365217855694 2.0348588696320085 13.442325712892067 0.5313166685075172 -1.0053620140973913 -1.0960983015416994
Ni 1.9287327609708849 5.9028865729268 3.4926817712357683 -0.6343556845785786 -0.8253742512844172 -0.5072750541772811
Ni 1.1714028787222228 0.7770693011044361 11.665340026212407 1.2124448333549442 -3.701262666177361 1.158602847833824
Ni 3.5898435670049684 4.251245308795425 4.32518898318542 -0.0971290783445295 -0.6978174525776498 -0.5668981651565527
Ni 0.16705616703393508 8.251099494830484 4.741757306677131 -0.3995368328583377 0.014725993356264962 -0.5064456162974504
P 8.124250591808305 6.837037270151676 8.795234874965988 -1.0914687731894879 0.2414661818334293 0.8149592265986804
Ni 5.931239165842601 4.856109963131248 5.026057422249086 0.15271735713279505 -2.1637157220348864 -0.4171602023670557
P 0.7204462967015742 4.117261563550692 4.258077573939429 0.7209378406451971 -0.5586996885061604 -1.0669779871369753
Ni 8.520523837920365 4.277272540829792 13.063618747173495 -1.1142562033976489 0.47323904763849467 -1.9393859427714275
P 4.940317911195076 7.496954142945554 2.756371657147477 0.288319137631226 0.09007191438743198 -0.3726898878688227
P 6.158620237092252 3.097334000076922 12.74051405515762 0.8669024524351908 -0.26103433377334395 0.2393794745077297
P 4.082016937179073 1.6712900966395594 6.8625956944902695 -0.7458294616805542 -0.35699304595885617 0.9248168082534718
Ni 4.904737088069515 1.0602805127455681 1.9953361395664733 -0.6241967417677057 -0.9582856294348786 0.9699697506410263
