# total energy = -340870.19668397197 ev
CRYSTAL
PRIMVEC
9.25394588959553 0.00000000000000 0.00000000000000

0.00000000000000 9.25394588959553 0.00000000000000

0.00000000000000 0.00000000000000 13.54408521260509

PRIMCOORD
 96 1
Ni 0.1360922268136118 0.976790982775117 7.2385547648717825 1.3617984162218288 1.839739754431999 -1.2628423119708896
Ni 1.7859467394766486 2.8099420991880812 6.723256202590426 0.9660999832729749 -1.4510162101390818 1.481004786081372
Ni 6.475392969011042 1.566110005797151 0.3206344116526647 -0.917377064145975 0.17609896928152896 -0.8847963019964763
Ni 3.7652176582468813 1.803640283625293 10.846577498566258 -0.6745895923979608 -1.8778077649483145 -0.04485135198673566
Ni 6.7298579674417045 8.178313307806917 10.217413761610743 -0.3931237302431423 -0.7523950307132139 -0.1465917038510314
Ni 0.3394976545358221 4.719808425325033 10.89486181096395 1.6416354845239727 -1.2311125849677764 -0.031055583754223934
Ni 4.214626276465904 6.861893264467259 0.7696349308670043 -0.059459331707897606 -0.36352776175358037 -1.1796568402906458
Ni 0.3541124109552542 3.483684868689239 5.199695839050319 -1.873165895300929 -0.18380379412495443 -0.5282495995464194
Ni 6.1324880116742095 5.771250987936507 2.6270239818166474 0.7488484510125362 1.3275911742125008 0.5338106385739646
Ni 0.20239026988062747 6.654382786439432 9.562489816053457 -0.6223308922035604 0.3414201312212636 -1.5621094639731872
Ni 7.758628363126307 6.972616724581553 7.5693018883684 0.2298990458211202 0.25419751335716867 0.4727893616955858
Ni -0.06004330117890435 8.17612937662539 0.08339285692987707 1.136370775908501 -2.166827528190991 0.51356705783358
Ni 2.806314552479782 6.141251498237372 11.822685540149866 -1.4268236720532783 0.13497186022391597 0.042757959792816685
Ni 0.04435508706007743 1.6713551300662588 10.527655066865217 -0.3476175182812271 -0.243175194104736 -1.2270170747421643
Ni 2.65720572566644 3.35862704670975 4.439223239805477 -0.45626591011926576 -0.14963820398683905 0.5642892667787959
Ni 1.6420201222465918 0.23539076558590008 11.773209319548021 1.5460940623815373 0.6392693198301119 0.8178452898972238
Ni 6.844597639983045 2.946613623001539 4.297064126201148 2.0856624293748856 0.4437274113326229 0.0001344686953352523
Ni 1.626242144854626 2.9211837802607046 9.381134690108125 1.1793123124670333 0.7784999553303819 -0.502127962758703
Ni 4.721020692209694 3.0805737407294562 12.550843361064652 0.6353039074244607 -0.5250416341320829 0.4867052004457295
Ni 8.530823860764194 2.6022187804095123 1.0551293345721544 -0.4681505773719938 1.5931334231585272 2.8260254686242297
Ni 1.2995038306285063 7.0875414760365825 7.257232003446681 0.21086285512527556 -0.22452235489023914 0.5526395983550095
Ni 0.616539504252807 4.316021759330286 1.9409623598203667 -0.4138187966986486 0.7955890496021847 -0.432944461784506
Ni 9.30215874145343 8.441449253343897 5.523345186206974 -1.651021296614247 0.3297002716811741 0.7988857180755855
Ni 3.767716223581679 1.0007772099891792 3.3641747871475705 -0.5614515402196847 0.01988799717317865 1.6593861236391743
P 7.914214951918755 2.6857541481029297 6.64900809478591 1.3153375536561283 0.22392457340524016 0.10909962044284437
P 6.104448556250364 8.193943222067931 2.9604121814116033 -0.5444740318250817 -0.7055302478408753 1.83494207593304
P 8.944688073609294 2.1073177652057944 3.5827492826357106 -0.4625782254905388 0.8397171502696507 0.3251558468436013
P 3.485767006468237 1.7968201256558627 5.669526990000328 -0.18891746120243594 -0.7787922897598201 -0.1670450866093768
P 1.7583607273913402 5.154947459298653 8.86047254090807 -0.5119878862719183 -0.33515743814100346 -0.24573292752958323
P 2.024902124940194 3.038968000932225 11.608418756377832 -0.6448822951415152 -0.06108529734709481 -0.382885854565218
P 1.507874925604986 8.176675359420772 2.7613949747329536 -1.4353180826775345 -1.5092326705788137 2.956748323763805
P 4.578509928669356 5.235095882871566 12.467383875725847 0.8663959451124176 -0.14249670784605137 0.7794270951303416
Ni 6.197450710378961 1.2726211184152154 2.7269656698140037 -0.7146687198070337 0.8507564388029476 0.05081631132091893
Ni 2.5125387927816285 5.093251403420508 6.314970268203907 -0.9355910160508404 1.0529456774136252 -0.08668448597243782
Ni 7.913807778308639 0.11443614312289116 8.496041980514669 -2.9490980063073984 -0.1493327569312783 1.188930552283088
Ni 6.117801999873007 1.9894780208601672 7.712774136865351 0.8211967228679599 -0.9418531949104683 0.009101448080635939
Ni 1.3649477345088483 0.7480288184829795 4.142350184486742 0.4332187984918152 -0.4161343322057027 1.3834278215661464
Ni 2.0614089406653 7.8454396275920155 10.203449557572927 1.3699907222246341 -0.44866701472608533 0.2897836379918945
Ni 7.00656019735207 4.209129432729348 13.13188380427739 1.1066434240473975 -1.2706826339509147 -0.4832282976407226
Ni 4.734374135832337 3.997982154047538 3.678682161362569 1.1182943780227645 -1.7156176924383937 -2.507351115739914
Ni 8.721871569419408 8.965574229019069 11.512865289424035 -2.0077595462498197 -0.9380924423164555 -0.838568124266872
Ni 9.216791092514494 2.806194251185884 12.551127457197163 1.079474062721457 1.3254432746315625 -1.1300391772635183
Ni 5.085940786329803 4.539763658088616 0.9320564839419777 -0.9528863127961781 -0.07358008737999584 0.8449102644348159
Ni 4.261053321964727 2.469507945348994 1.690125833492572 -0.5745389695312622 0.24180428189913838 -0.9913286759327765
Ni 4.739445298067409 8.991466769044125 7.880517634103445 0.7510698841438872 -0.1787456628757567 -0.724138864080998
Ni 7.321222112459999 5.20649193676097 10.831231680437757 -1.4214881187729775 -0.07889738582785122 -0.9878512589071374
Ni 4.028770031339661 8.276784543835017 12.268610973213265 -1.7218945265860408 1.4240594790445797 -0.4930715089833895
Ni 6.213043608857238 1.0269103526020307 11.296620012064666 -0.013247866148841702 0.9128298110949247 -0.12741333115036765
Ni 7.7486063399500615 0.3550516864422247 4.0559655269170864 0.12568015050934483 -0.5952474057232071 1.071470218580374
Ni 6.652633790705074 4.345699163140277 7.482294440254182 -0.23855852126833113 0.5398457890244509 0.060281827609192956
Ni 6.163026032432854 8.251752620758612 12.690645494703155 1.4804113754717472 2.36093296135227 -1.0037694727992905
Ni 8.490994878538375 3.3050374472511725 8.890336874420887 -1.0366124874712406 -1.7116671924310778 1.091966795871829
Ni 8.964676596287678 4.967980740690278 7.598692419862173 2.2117863522898684 0.8982801954155241 -1.6573575232449198
Ni 6.413049136934987 6.424551791420742 0.1341738838732279 1.481144654093346 -1.6799490353921906 0.8608415909530918
Ni 4.80647162665979 3.824776052671921 6.060964265479192 -0.4342603523824521 -0.8439705262293657 -1.1419143314345495
Ni 3.648331070306751 3.8958833713111387 7.897962247113177 -1.602196304691744 1.450450824553915 1.1715102999241116
P 6.3751357214658455 4.9215444412457705 5.06216925065562 -0.5928344254063403 1.1360756132655854 -0.12330959339463926
P 3.5469818571707914 7.283604823252761 6.630790777311526 -1.4683331041509744 0.4522287639354147 -0.46803410639878745
P 6.749642903315032 3.4211096879710725 2.019518179340988 -1.5969934203345657 -0.005607833105080665 -0.09099802574612714
P 6.135125386194274 5.954654937456374 8.881845453860848 0.1280285961368634 0.593207749585359 0.6212759685764849
P 2.0432341913410648 7.757166239708165 13.2134193943084 0.46241238933663587 -0.962489383103581 -0.469022952674618
P 8.604235411878838 6.767216146169779 11.479803717677246 0.05392297527070068 0.3546685115907376 1.4845431382519336
P 8.560158868583862 0.9065248477986146 13.41165094099844 -0.6086400249800291 -0.9434801889909299 -0.9075605922761855
P 8.382159223343706 5.831049984949342 1.4658222202311963 -0.8909726060105172 1.0161593618232112 0.44720354280668145
Ni 5.203354849173946 6.5358212343304185 10.887399429164018 -0.5392390086783875 -0.09059487677043752 -0.6454453667338368
Ni 2.0653511215268705 6.3322251753271095 1.5695025022850657 -0.8201711098169229 -0.09706120122107155 0.07468283352587138
Ni 2.693564478260595 0.43830851037054047 8.849095740083623 -0.6009246586136425 1.6639032947832377 0.6931444725820126
Ni 4.460966310585631 8.535848753270844 4.9654238754976685 0.6325636256751621 -0.20703268274590797 0.9168132212227049
Ni 8.279236839441392 5.076076080230192 3.8763445903930176 -0.7119225245204642 0.3474362555083565 -0.2723243048648665
Ni 4.113897077690802 5.815734704841598 4.7081808425725375 -0.30384602962223156 2.050910884826313 0.7674606667970847
Ni 0.28665114691570476 5.5242446697275005 13.188715060909225 -0.41508377945400127 0.7074369779452848 -0.1090361141947606
Ni 2.2128960315195423 0.1382937404919395 6.593423344637769 1.3632359199993038 0.1724050653697095 -1.035317679919217
Ni 1.5604743528753287 2.3078137524048175 2.4638176941476337 1.6884205631983116 0.5406315181505399 -0.811481295352409
Ni 6.929336020615439 7.096869453286496 5.042462973320609 0.8920092748051476 1.0034408858152783 -1.5476799188114183
Ni 0.03830485737159219 0.6064018067555057 2.040673624570181 0.706301578789261 -1.7502034008330631 -0.24244037282124054
Ni 5.589901414358586 1.4496768611955582 5.462939130357239 -0.06297043018494962 -1.4197708789715546 0.11189260980694923
Ni 3.778543340032471 4.170762573921671 10.4819433513678 -0.29295817906513416 0.859464765210223 -0.19436768568372975
Ni 2.3111636807425837 4.1918523161365036 13.451118093947999 0.7795235114988898 0.9413454020361143 0.45683232414569713
Ni 5.515657008132344 6.46990537922017 6.695775685485921 -0.5917856724268519 -0.5129062843211295 1.692890426044207
Ni 4.776118684814835 9.136494605810629 1.4490679515695224 0.7833158886617864 -0.7330114839802795 -0.602145161284305
Ni 3.7761465681002018 7.46144715141628 2.9478425469884324 0.13041509409116894 0.35605922129067713 0.2083632286318734
Ni 7.38989564338421 8.684689215659338 1.3447759837059117 -1.7797790576076509 -0.02487722285765393 -0.47926365656601977
Ni 2.039393803882023 7.639095146720428 4.880232051526736 1.1267967590668206 -0.7096972347343713 -0.5058599189973094
Ni 1.3617181074649798 5.432991511333262 4.02775394810351 0.8524307411815771 0.5573249196458208 -0.1307580792528845
Ni 8.612045742036504 7.53122190187694 3.071906495201412 0.5343040332706154 -1.056864038631425 -0.14606385637201943
Ni 3.568034583602887 6.4043041582631925 8.733307595496235 0.6277793169126414 -0.11695845436563083 -0.2529659549429127
Ni 2.454146395512828 -0.03356313560288641 1.3993613077201348 0.9313448391799767 0.6001705540564374 -1.7757496247332836
Ni 2.1385220700537175 1.8768204860978248 0.06976364572583751 -0.5989253687954266 -0.03424863677022489 -0.35536579476807834
P 4.231301886589261 8.674870779288149 10.05902970503789 0.7309263193164767 -0.410956387549189 0.18485357554570744
P 4.137309560272429 1.1033849597382221 13.394774520253732 0.6098155333453692 0.2654121511260655 -1.2136401392146259
P 4.597554548887929 2.5507205726756177 8.987204401661874 -0.08628493654117397 -1.59601023048569 1.84464361949152
P 0.577259281006075 9.089586355136216 9.214420231630141 0.8258529906930487 -0.05958942952785867 0.4847167092607911
P 2.8000681391427866 4.264810423912609 2.4534569765593375 0.46474772233803185 0.20613665329419986 -0.9453879475366042
P 9.176869570831832 6.292525748340872 5.562907654797081 0.2959756257352193 -0.4560519943362468 0.5915079932854329
P 7.503635889791631 2.987608602383597 11.111675280588342 0.04666012306070028 -0.016267626811771983 0.011345506919806266
P 6.701494623918903 8.736279962850077 6.785234503811947 -0.3514952560690785 0.32804319569372536 -1.2755844421279063
