# total energy = -340889.52865204087 ev
CRYSTAL
PRIMVEC
9.11838690222040 0.00000000000000 0.00000000000000

0.00000000000000 9.11838690222040 0.00000000000000

0.00000000000000 0.00000000000000 13.34568093207187

PRIMCOORD
 96 1
Ni 6.293930075998532 2.1021437948073958 11.243589259720943 1.2814090192294834 -0.1026644063404619 1.4126985455058056
Ni 4.785393267609753 0.20369929204915582 6.045246134075374 -0.8623148330645084 -0.7090896830573595 0.5363323765545537
Ni 2.896865922431066 1.600441029834451 4.69790690461139 0.04689692166185472 0.14377891699258463 0.16167302366418607
Ni 3.1663872020710273 4.027153805925574 4.734674064221792 1.027132315894947 0.699671475067253 -0.23612317235396107
Ni 4.850252353545169 4.491690025942416 2.5379744210616506 0.7211563844139064 0.35166983397372986 0.42409858135810186
Ni 7.353149252086793 6.225688068527612 2.892369645856519 -0.45785510898325665 -0.049122468558263785 -1.5455366472161705
Ni 5.074747038731442 4.348704601149324 11.731107462050682 0.44874491915187237 0.7946752795386636 -0.20026733899761637
Ni 5.557966833482106 7.797807388687466 12.771749748531713 -0.09220001647402831 0.9188865588119659 0.030982821534759543
Ni 1.481090463855445 6.656623032861618 0.5438926292657297 0.6184793796679542 0.780727816219636 0.3675355973613928
Ni 2.5724793088851015 1.6806828344501779 0.14989989757037733 1.2980959929668612 -1.3823811254691871 -0.22050320642851703
Ni 0.5516569357009901 9.014774657940736 4.831963604963605 0.22684097572108675 0.6280132873003185 -0.267310653700359
Ni 8.589547803798713 2.475851763031368 1.4801959501017177 0.49540889886731454 -1.0914037242795076 0.03239589983220227
Ni 6.823753946134534 0.7746288502769414 5.008727182145163 0.9040145267961399 -0.43308150158300246 -1.9237204683200289
Ni 0.7538161322047373 7.408434031789651 2.9837340587984125 1.7355198306789594 -0.7625395753463835 -1.2570239055168997
Ni 7.617272446688968 3.5426209634630172 3.67142364929028 0.2668686810669339 0.9983508728868806 0.22332653480992506
Ni 7.523416890449233 4.079110374414258 12.606023066839573 0.8529254214298084 -1.272910494840169 0.41617469852533484
Ni 8.089522822013187 8.84029432483597 6.832908806570237 0.3919855028736411 0.9621847073789688 1.1267983017287175
Ni 6.912421140234913 0.6336075260195565 0.37604501078340513 -0.6732248508399503 0.23492298139827283 0.16722892048540877
Ni 1.8739196893838694 6.822331477779983 9.444965561904668 0.4200323817085282 0.1192837600646978 -0.28211095193798513
Ni 0.36423487608587224 4.6935893484198505 1.4359015621151476 -1.8180977506821916 1.5304496709760609 -0.0687708389168106
Ni 6.820781352008997 2.1223227849908732 6.94772115139501 -1.5553875718683212 -0.6092012968001379 1.257019020420893
Ni 3.130579296761259 4.4050197585705435 0.46382225032349994 1.4130957809442244 1.1976257660642406 -0.7990713517238303
Ni 6.005013987447474 5.5919966533486845 4.678007848905379 0.14051541574996446 0.05673730479104422 0.47455853778086654
Ni 5.241686465879707 2.985223091377247 9.40428752615794 -0.6490397689533145 0.8831829347627693 -1.0839387833610301
P 0.08152111429613454 5.645813372762551 12.573593523871864 -0.4806283981240303 0.7515833334451959 0.6647774914035454
P 4.052885893723936 6.157318403640257 12.681372856889807 -0.10499254025300628 -0.8665748938924431 1.0629166725834083
P 2.6047766352429322 8.600033948720085 1.4762458649017707 -1.0637239989760519 -0.27890118675143577 0.22309899218015125
P 6.659987717623346 7.721413543338539 5.71574136996909 -1.9811146899687815 -0.21962157515451206 0.023364128647237182
P 4.842483487916465 1.0801458739965666 12.484644571616641 -0.5096273564595417 -0.2545307283268713 1.2967829305823926
P 4.246387181877384 6.165844095380678 8.439168279078018 0.16575824947715323 -0.21043039557354726 -0.6999635523863751
P 4.902218040420741 0.972713039680374 3.8952435738468294 -1.3493270232276955 -0.3523316359274448 -0.6908039973742941
P 9.145742048815244 5.412665338419423 3.626008611555156 1.677298485143221 -1.2205162975091688 0.3363350033888724
Ni 1.41159011899396 0.985114045848259 2.646008157073772 0.46169993665064357 0.4540254508245212 -0.011728601290837864
Ni 1.7652649912246645 6.289161159656029 4.84489621308707 1.3653336830685971 0.38460103748411184 0.36662131307723955
Ni 6.515661889957695 5.909726844466299 9.179118992180632 -2.2053768492190984 0.23330961416456594 1.2796632401829704
Ni 8.562320300550693 2.600664242756376 10.058586495704088 -0.11936243582143315 0.3684815062144299 0.20552164541802023
Ni 2.3970415451570806 5.319812804737383 6.9991689138953355 0.13064520782410402 -0.4989235968887923 1.1295887199896613
Ni 0.8912110739967046 9.14656270363518 8.92871441065168 -0.4147855314872921 0.1333476943569316 0.8789133608531379
Ni 1.1590655125135119 1.5397216915462548 11.438396300876775 0.607103790841161 -2.0846594420316675 -0.5670038374964816
Ni 3.9376477202314857 6.651790287810899 1.462206284610085 0.23760361355422951 1.2238304494840664 0.5313958584848848
Ni 5.956330919851637 8.068204033468689 7.999775099066563 0.7300326038576137 -0.4896380578218084 -0.33163296992751273
Ni 5.420881005005647 2.9155677339386634 4.607422416004203 -0.3720751371029592 0.7535653968722312 0.601763352464854
Ni 0.8930675775671321 7.531979055737207 6.920189094024928 -0.09523983174161663 -0.9405861552725866 0.5928714492918629
Ni 5.292339105043385 4.388159861214352 7.131557861285708 -0.12958642754228653 0.9474566571401747 0.8437036457212244
Ni 8.385715383300989 7.450032112773395 9.561112838569866 0.038204278983863235 0.47432559583445405 -0.3796025558282559
Ni 4.593369158132186 0.34619961865979876 10.417157941693729 0.9280373720732986 -0.300325932284115 0.3092121790301513
Ni 8.51135763623282 6.943870456612144 5.015827670014967 -0.3227567504838054 -0.11495916454741492 0.19324231383003493
Ni 7.653381258766046 6.26035617547636 7.278280912864253 0.11819052700051903 1.0434829893388287 -2.0839194785418496
Ni 2.294167904284963 5.211048685935521 2.7160063658593505 0.03259901698194386 -0.05519335734269205 -0.15886409346048122
Ni 2.1318879728365436 5.578419375272228 11.671078385649919 0.2144266612171339 -0.22325711502457035 -0.5227317550519837
Ni 0.9598469957811933 3.2172039721986914 3.7296235772812802 0.3141713228076396 0.5684130591391823 -0.3199041115263587
Ni 3.5474263533530728 2.5895580475266082 2.3591564713141913 -0.3102200514693754 -0.8436766491380308 1.45711101018291
Ni 1.0518879930301874 3.311679578746822 8.179287869894898 0.4306667214939229 0.8010865823816461 0.024305409514583945
Ni 4.0599982354966935 2.499039820887935 6.852312733868223 -0.3741417898240008 -0.5835427156917692 -0.16221475510026903
Ni 4.413390437733865 6.482033279114195 6.2431224242577565 -0.4326410716114743 1.707248494538092 -0.18669885628456234
Ni 0.8629212786762168 7.75439474871298 11.53068167089437 -0.612620606894332 0.33878655025315846 0.03433708271897312
P 0.404531763260677 5.733596083334778 8.188015989824235 0.34610468118112653 -0.5359572526033222 -0.036379567070298637
P 8.772818261863655 1.6807466631583947 7.94723313013966 -1.0912564000683658 -0.7005924442196256 0.5084688173750662
P 1.5414085931205626 3.49443028875914 10.43347985422352 -0.40156260503911484 0.06458405452897265 -0.35641454774756676
P 3.9574802117132135 6.003527690384706 3.9301697311445136 -0.3647955727224104 0.8208781631862765 -0.14378457341953949
P 6.879376106152254 4.151227696312642 10.367499206700861 0.009468344501751434 -0.42719059001986426 0.5483862223952942
P 6.32594473236283 7.846235141450435 10.382792565189668 0.7017584395032689 0.5778436084244629 -0.0761614749539269
P 2.7466222616750056 8.29853448626338 6.432418312378389 0.6163139965855192 0.11229678722390338 -2.047326767019481
P 6.791985486216216 3.6857066905118794 1.5832246035509334 -0.5933548166861845 2.7046254335474775 -1.3091111131304423
Ni 4.954129016974984 2.832590413256491 0.44248157765047186 0.979652525146429 0.053076310999689236 -0.6932527160251029
Ni 1.47352220273828 0.9924725840669967 6.8376330428169885 0.7469450633422362 0.4746390133098148 -0.17039343425631945
Ni 7.168246602768871 0.6689275976308087 9.272405561078548 -0.03955513658480284 0.022771232258244654 -0.2734540475939355
Ni 2.99615603725614 1.8043008054928382 8.973248612213409 -0.24773324578906364 -0.3846087507935957 0.6367059299783099
Ni 6.2827600520605476 1.903873590311445 2.3886234503819397 0.1929317245681516 -1.7022207023061973 1.3783084980617102
Ni 4.308866368834993 6.591873367568859 10.647291437331635 0.4685771233864511 1.1685373333387166 -1.115490332915066
Ni 8.113148562440385 7.439536849465133 0.27068113845213393 0.36262453321302063 -0.3722504863385589 0.1433469716614886
Ni 7.677517628858981 4.10444125318954 8.132697472089891 0.8466370173179354 -1.034092292152548 0.4175589804673712
Ni 3.0294472677847786 8.232572075514497 12.59592080600619 0.5905250605468733 0.5992752959356776 -0.29453066575857656
Ni 8.91677023566689 5.2233402714607475 10.414195377793769 0.6959639443086788 -0.974156020808232 -0.6752565365579984
Ni 8.760399018921992 2.3305229128080205 5.655299230642294 0.41978067070903835 -0.4948522550328962 -0.03305333091054308
Ni 3.390608335650655 2.823481144755229 11.282091648356161 0.15564378675097068 -0.7082831279956641 0.6217343962701422
Ni 1.109561790097741 3.5228614190763943 12.708918591840222 -1.458380620923953 0.5203069476605748 -0.7964539687056412
Ni 3.7104357557525445 8.395900621455052 8.360108217402994 -1.397245444175529 0.12667799564623988 0.4599685557818336
Ni 5.431358031540132 7.89236506071759 3.588880363823984 -0.08529506182407891 -0.05372834276139133 0.6178520304966004
Ni 2.887483102323159 8.500297032937493 3.952217078801373 0.6013784583216095 -1.1503609195400057 -0.05673601923946357
Ni 3.1224639324308052 4.594709561004744 9.418100058616112 0.5816781516792047 -0.6562738248079084 -0.13272085940621012
Ni 7.137845900883776 6.3120665475190645 11.71337037587585 -0.042958248729080856 -0.40273862762508705 -0.6495789292862362
Ni 0.6585946416091562 0.1240647720001797 0.5375462319915767 -0.5117767987023767 -0.23808878072076414 -0.9687387064474026
Ni 4.618189407241732 0.45208050352762813 1.508048974690263 -0.3517675358938587 -1.3520302810914715 -0.27242894876353085
Ni 6.025776554391794 5.507669811407066 0.5703505406603879 0.03523696882542319 0.5812423496933666 0.25330765455304766
Ni 7.892401534265143 0.15326184681603852 11.577952300361234 0.4787700047590528 -1.1471652954208438 -0.6671868721759865
Ni 0.296193473126491 4.619438626245409 5.978344529477011 -0.8030712169118427 0.4053410982449406 -0.03296668473400774
Ni 8.149749767409423 8.687242200918359 2.594347024320265 -0.9452028281089915 1.3791633898628377 -0.10595130462184978
P 8.560040703828655 1.4497505681208709 3.56044102695853 -0.07857239838826469 0.4092144651574178 0.8008994060715044
P 1.7560554204676324 3.1663142549759224 1.3903260407707922 -0.6643260056884236 -1.3542445151339708 2.443090505988631
P 5.204355789959617 1.1082578607727356 8.357745643360275 -0.5958233328313352 0.08871668591111818 -1.388039866416861
P 8.500762070668788 1.8386497689005021 12.708291246822316 0.002051483212390015 0.33695283947852933 -0.5693890498992065
P 6.434034090534969 7.887267882447114 1.6078342179233636 -1.0921501155272288 -0.619906599032784 -0.9431415747045885
P 1.9828570575366071 3.057559254560948 6.156990141712284 -0.6320882287006404 0.17033429888360987 0.16620150766215894
P 6.989298260088912 4.061730729005442 5.899591757440119 1.2326076814560643 -0.3066547027156203 -0.1638810870590984
P 2.517914881746407 9.0001031734377 10.370367851215871 -1.4222867034148732 -0.534723380196221 0.2890902114692957
