# total energy = -340860.19623264135 ev
CRYSTAL
PRIMVEC
9.41481372431927 0.00000000000000 0.00000000000000

0.00000000000000 9.41481372431927 0.00000000000000

0.00000000000000 0.00000000000000 13.77953154949293

PRIMCOORD
 96 1
Ni 8.252827749604924 0.5882827347774858 13.119436139949613 0.2901590190534422 -0.031160998983836657 0.3802414749638355
Ni 3.221928040304465 1.1332328492203165 1.941853287356346 0.42610069938979517 -1.1636064716960024 0.013079201781461344
Ni 4.209730266331496 0.10100117709297926 6.987917436663113 0.050349913207461676 -1.522115954299385 0.5907621162583439
Ni 0.8177292701383281 1.4350811828902807 2.580478912555217 -0.12943653222798354 0.05167557399742068 0.26609760722886433
Ni 3.7349506394127276 8.493733995883801 4.806685927249052 -0.6102467073455168 -1.270988852337424 1.6063607204820785
Ni 3.4763539586818424 7.221689137317862 2.611386803594334 0.3670568579527614 -1.0521190677472718 0.9383202420565454
Ni 7.0873115051020426 4.7947667734351915 11.99805842381177 0.9499161744242608 -0.2667984899506308 0.6341559098629466
Ni 8.556832075552435 5.925005711981884 3.0982446946740825 0.25942405186343065 2.363125083907582 -0.510149804621915
Ni 8.971046207617677 3.0364750451817004 13.052371599379098 -3.1155501965277823 -0.793748139738704 -1.9253076103014906
Ni 6.025122838092935 5.661475669008927 8.184807605470343 -0.507474571782597 0.9551607106526518 -0.41955724184432264
Ni 1.3654492226949326 2.468243980066742 11.893279082085694 0.7427603358369272 -0.4201462815785732 -1.4508578301843464
Ni 9.163353186924084 3.3707856555895717 1.4181618216589313 -0.9418768490595522 1.0526104055613936 1.7908674542113288
Ni 1.3312734499111152 7.9477030608581645 9.43229580614316 0.7779962762210859 -0.13028268227836273 1.0039077981493676
Ni 1.652836402922488 7.759209080994581 7.10744037623477 0.20828918086082837 0.6916028391265058 -0.6880187213196731
Ni 8.1672000213766 8.873132147851369 6.622842040380399 0.14282580905069595 -0.45644177357549776 0.06815994480568907
Ni 3.6765882109039443 2.4715015055166596 8.790197056266617 -0.0144763392393041 0.6178944536987617 -2.4225237375808732
Ni 4.185609514300603 6.423284713244565 12.26584961134725 0.36619116751835645 0.5019127614241032 -1.8724123049643557
Ni 3.1409324002881616 0.5196412129559277 12.859003570598109 0.6367326694511872 0.555815682090146 0.21742816704761908
Ni 7.584649025020818 1.9674700532427067 6.517277503213503 1.1117666042065757 0.33511270094599704 -0.8996325956783604
Ni -0.12732687843130164 1.9881261539280222 4.874991340230834 1.8197052043786275 -0.9151713147439078 0.8380801288868599
Ni 2.1040319221763903 0.6167230032142229 8.285370052257063 -0.0859766612721358 -0.6600289209749665 -0.8962004300683599
Ni 2.8809894012354897 5.5565946472977075 0.7435433646825027 -0.6680397070945849 -0.21549341191875143 -0.09568848924326101
Ni 6.4753862908163695 5.289468145591027 3.8622370341462413 1.6353216264908028 -0.5469554034860387 1.2482132492038052
Ni 7.618740064483684 5.2940060856686575 0.7867658316999206 -0.4755157594878133 0.3008429811298496 -0.5764518702832588
P 8.926278769714909 0.7275796070152187 11.039347029830116 -0.9020676874824142 1.2985564775430474 -1.1528196654931435
P 9.351847166787667 6.7081769679107675 5.071666792972968 -1.3296424003145746 -0.4330313650713575 1.0077508260445416
P 8.53799303386086 0.004648093394867948 2.076864536516615 -0.7319462759405587 1.3812611529321308 -0.8961358953790115
P 7.459187221131796 3.658935435705691 5.0991288622933855 -1.2656815811918978 -0.24251184948912427 1.7938666460489687
P 2.3190097722440726 7.098665770109559 12.551016778565872 -2.5501011051129305 0.23288435370168922 -0.5700644786996764
P 3.340093363778209 3.2505396583457933 13.387793157772778 -0.4944866441633613 0.6425230508807191 -1.1323002053835531
P 4.201765334162044 6.922175677380787 6.584672503735729 -0.20496217337012443 -0.4867399103384069 0.466135603824494
P 6.204418545226548 0.28920235625860774 5.882330245625275 0.6515494227490456 -0.9866302420158428 -0.6395056042106341
Ni 7.5590124880262355 9.03529289452588 9.409063812500916 -0.986464920082572 1.023178730563838 0.22501729224878667
Ni 2.9716634694671553 8.05191563081521 0.5575367785295209 -0.7215160817461702 0.33740072564922535 0.08522898447283386
Ni 2.0311424365311246 6.486109763323468 5.033042520839191 1.4483255506807962 0.47606314735085103 0.0374530026401355
Ni -0.38448497566869705 3.4134630049088677 7.760039467539906 1.3505223290873773 0.43323705332426027 -0.7521147804686337
Ni 1.1548869201301732 9.61977392763667 0.45845057449004817 -0.7740943700635184 -0.4126034362343088 0.13255990834831363
Ni 7.370574997043286 2.3187273278409006 10.960101603632136 0.1899325327305116 -0.4184249280120923 0.5081415159426346
Ni 6.289283673566309 1.1369987745959438 8.008139572767574 -1.393102368541433 -0.1781154854909255 1.9390637835453186
Ni 8.997972574053414 1.0499588243517588 8.31177201358424 1.0001136212142583 0.309161528297874 0.18466382813240456
Ni 1.193807758887281 9.217469534571848 11.773630925495295 0.545692220502899 -0.8284166376551668 0.30749931010410264
Ni 7.312843361034921 6.173500297892649 10.136126546258328 1.4363051291811522 0.8181594787035328 -0.21122229534722334
Ni 4.525870286801965 6.109046485088788 4.602748828901364 -0.8261617801827191 1.3354160695735582 -0.1474118857594816
Ni 5.434493931806433 -0.21957886939535484 3.5758016915573756 1.1538216243950967 0.5803285796298457 -0.6330883878303807
Ni 3.6166346789239583 5.180472850406935 8.343616678560545 1.0325115779289895 -0.7663543211067834 -2.015588555375935
Ni 5.5274087256365965 8.461827193138797 11.759631097911402 -0.28713231641197645 -0.027639358983823366 0.9510387180644783
Ni 7.795305475719968 8.636980382359223 4.073036590009665 -0.3919471934365379 -0.6658370430163114 0.2265177880537131
Ni 6.527290157305952 3.514540441990703 2.1976010455405692 0.8350878790277554 2.601063197983095 -0.7880024955041783
Ni 0.4576286612768175 5.048241795655223 13.461940462493503 0.8940054792995701 0.8864847454424926 -0.1915466712951669
Ni 7.480963684616361 3.952122141011713 9.22992909867711 -0.5988346088538332 0.20954979274080685 0.4958171900493268
Ni 4.838799855889712 1.7069527505702518 0.2114661246549098 1.816108745276621 0.8581285628973028 1.1220456175350806
Ni 0.36242700926230426 6.788946652404533 11.58405235912353 0.9222960987141471 -1.4002338373798917 -0.728019687192643
Ni 1.436625212294288 4.97067314773074 9.178201289198839 -1.3687383378747717 0.8553643698886043 0.4008779202672645
Ni 5.25871936489903 0.9440610027891202 10.383510184183283 1.2222469070470305 -0.9663043859742971 -0.6716400228513335
Ni 5.141589670903583 6.708741856717112 0.4872909724979457 -0.6089904663409125 0.40900054937439884 2.5572968515304217
Ni 3.0834549642426503 1.164659496479926 10.600717462073339 -1.4198752657599032 -1.0484855847597425 0.13103395862209047
P 2.0439654124351354 3.8885533206711242 7.3887220499470905 -0.14437618425695134 -0.045669219902340706 0.639293488199828
P 1.5691575410760503 3.1936365259200654 4.259749287170577 0.4200102702213412 0.09735919207746459 -0.5139599223966246
P 2.4227986755963595 8.9215054593013 3.2194359391871434 -1.06466785094656 0.4899928700580657 -1.0354045832060685
P 4.865453192735714 9.03263791713606 14.181204906279339 -1.4884370739897013 0.49307382297623464 -0.8458790561059883
P 3.5873828535687733 8.487661441215602 9.124681840723111 0.028917454365298582 0.5805566364802517 0.3003102485548312
P 0.8216109977192558 0.772991959638564 6.292864127117186 0.12979802933246032 -1.571672425071274 2.5808162748086003
P 6.749555072975473 3.2091521384676494 13.657747869436555 0.5005873577444605 -0.31457421467301305 -0.19875810144194156
P 4.99098090031881 5.459829194770965 2.4349673219663557 -2.265440390169899 -1.04111860287171 -1.5005192019652158
Ni 5.667567053304004 7.584159454721987 9.387415390479122 -1.858692384275102 1.3386682579622686 0.45634972808232377
Ni 1.3959438034240743 2.491357347059654 9.484616748868094 -1.3150354490346772 0.8318606303397093 -0.3116886655951019
Ni 3.3099753755866304 6.40152707938688 10.12438627389981 -1.0166517280785976 1.8660593661631346 0.6054767967606991
Ni 8.989659293786715 7.3637775017402785 0.06801731969054789 -0.208360400418396 0.42902764322860304 0.0006754288004698045
Ni 8.892658470923996 3.8511953409449022 3.732957523407677 1.1893393576857323 0.109986651033488 -1.9388539815273578
Ni 6.159867648032878 3.896066341795501 6.8404899315394 -0.40961632858152686 -0.8085039578916399 -0.6628483927016326
Ni 6.720378566127801 8.269689680474295 0.9008686631747072 2.663195962758097 2.2408956109509988 0.8328556472631269
Ni 6.463090544464946 6.94913028825684 5.902517488601326 -0.192378680278159 0.3300401715190961 0.509087939016304
Ni 2.367674942910616 1.0874486114661281 4.66088530188761 0.1290979179416422 1.4941181835348785 0.8825692124381703
Ni 3.0135217300172523 3.9438935940659676 10.703140275995617 0.10786549092542713 -0.1931286710703061 0.15732554532876777
Ni 3.7777597961201703 3.437254238469393 1.704555739068665 0.9508625974979303 0.5659363154639157 0.9852040510922774
Ni 5.046019899683603 4.700863424193925 13.271396877744236 0.44850606366818885 -2.1071545378103904 1.2869273779445514
Ni 3.8244572707779487 4.171769738545173 5.480519188784661 -1.0384901641099276 -1.763461037173918 1.3255448332064335
Ni 8.308723496992672 6.00829856647732 7.406029301492129 0.3403994032662331 -0.1624070736167332 -0.4772273428622814
Ni 2.5872566367500025 4.825647361515334 3.3909907867111557 0.17080892452718324 0.6140863928065812 -0.9033208431632249
Ni 0.5214648623190752 8.02190120557146 2.3304214676135673 1.9522131764430832 -1.9527160842214308 -0.15870237107163634
Ni 7.213771279215606 1.5710969926444982 4.200497158791801 -1.9100290868758651 -0.13905374360277342 -1.477818160823274
Ni 7.962135969860255 8.232237552613682 11.522912560650223 -0.11212040954703917 -0.8059796488078893 0.556957251893757
Ni 0.6176051712334636 4.672656643130477 5.842038610031439 0.10778013030047243 -0.46740675722743374 -0.12636509239151142
Ni 0.5864317824553651 8.686530545489038 4.6551111968054295 1.3983394485706562 0.7290524993325315 0.9748350491531276
Ni 5.176565702829722 4.962868267389752 10.478396439947588 0.5666030025136372 -0.2103740884143151 -0.5464077585126849
Ni 7.2304637434430745 1.4909675154645894 1.4011850300656037 -0.5001078470048806 -0.20311175042494697 -0.03434736713161827
Ni 4.8751881098317105 2.821082943322699 11.956581463205957 0.7839725484091788 -0.5645245227180535 -1.8460759810626721
Ni 1.541242619229213 2.5033894786347832 0.35035815991476277 1.0507476413210421 -0.16181906232374713 1.5028846168735988
P 0.7890244454439531 5.708841595420879 1.7331202830427979 0.4592201076515833 -0.12953217726558336 -0.5603009715550092
P 5.540570634824413 2.9425246218732393 9.588542167015248 1.3015255874737004 0.6007053435139849 0.549553246120202
P 8.77945475413264 7.448576726385967 8.949557837424349 0.03092625726521125 -1.066117438908893 -0.4490567939653363
P 0.11726903323434512 4.251607356508471 10.83932366942905 -0.48350186301708337 -0.31673496976975773 0.6410780909040765
P 5.421303778178298 2.0997952561288096 3.0432235834548247 -2.337002418678601 -2.290741073718216 -0.2959087770530259
P 4.246033786952542 2.0721345342448276 6.375485705414417 -0.3475846081607627 2.0214393577297574 0.053930945690500665
P 6.822435143807299 6.993558792875802 12.968302964256283 1.4541205600960183 -1.7723447128167928 -1.6792586941933856
P 6.680478586773029 7.286962038890922 2.8100045323489478 -0.3711184296166447 -0.5518430705956432 0.8396045359511862
