# total energy = -340863.5246907478 ev
CRYSTAL
PRIMVEC
9.40252689423169 0.00000000000000 0.00000000000000

0.00000000000000 9.40252689423169 0.00000000000000

0.00000000000000 0.00000000000000 13.76154853169002

PRIMCOORD
 96 1
Ni 8.832602230906302 5.914828856499634 1.9407774791212726 0.33888039551854543 -0.08061848228401598 -0.9330589936576059
Ni 3.285054884183971 7.334375370723904 12.054497520455408 -0.5175962335976312 -1.4424786049817158 -2.2643402151271843
Ni 7.357486782096403 3.512906321039057 9.942306332559724 -0.08292013383399913 -0.39664485602252336 0.22626993370896512
Ni 0.5933257809424818 6.138214093028465 6.495175389167666 0.7165780210146045 -1.280884257074265 -1.3083670358755661
Ni 1.939327609457465 0.18739518392080773 5.936828889180422 -0.7912024904987147 -0.5358294687762062 0.6102006845989297
Ni 3.0115917888390555 5.192207046238386 13.240371493357253 1.5397596355230772 0.009529793867306168 -1.293640528298669
Ni 6.031091102887335 1.4838597989223579 10.301124627781947 -0.0006821136686891477 -0.47761275122615815 0.5907407761021052
Ni 3.9750029131110294 3.1432835820380958 11.450750918835896 0.2511715820466513 -0.19711773762504115 -0.17889658663132416
Ni 4.048201585826617 8.793863819655407 5.116323952063543 -0.3247722382519374 2.0569336939816254 0.30143742018073894
Ni 2.5650657814834634 7.060131865637768 5.087025677923302 -0.15624053979470512 0.18563261980357706 0.015324803282528448
Ni 6.086490791986917 0.6513083442096902 0.2559809768888985 -1.2237977964739182 -0.8060156442521473 -1.1419441562312205
Ni 0.3671799624856749 2.510202036423032 1.9839473013485152 2.1069149109957586 0.9258488490624119 0.21052784038336
Ni 5.3262870812960985 5.109088707535008 11.827803534674347 0.02936302654314943 1.0510523170456543 -1.1053115926098513
Ni 2.6915297696690335 8.517504745993676 3.0945869544386992 0.09973489139849276 -0.13799702020348492 -0.5446691785550232
Ni 9.017098615752195 5.084209621086011 10.132765800030693 0.4612389378538251 -0.25379899236716935 -0.5016692779547296
Ni 3.3272722304258453 5.463855453871791 7.036610504087952 -0.09367711524018706 0.683255495603075 -0.5522958418623456
Ni 9.45395882534907 0.9103771109662572 3.6104932682941056 0.19709151237279604 0.08730129362083029 1.147392066719669
Ni 9.217504076286561 8.229016412498535 6.951302316845657 -0.051137956326395805 0.299613993818755 1.153124341217756
Ni 1.579869002146362 8.746145995116985 8.903584728007367 0.25693882354773173 -0.08240359920889678 -1.872088345966034
Ni 7.681394434810507 2.4321046471390657 3.3928548562692917 -0.4227762630022525 1.2874313141641633 -0.44416706997320277
Ni 5.063655697058229 3.4618600019417003 8.978336698183792 -0.4557774005186215 0.5680474482696475 -0.46082858978928376
Ni 9.051831550499964 7.724542631225644 10.055563531317377 0.850997094058844 -2.0790444098377354 -0.4383442926438386
Ni 3.84366841593809 8.565890149949286 -0.04100159950043232 0.9893347854311995 1.702413535043294 1.3839315006754422
Ni 1.738630670586016 0.4320395340026176 0.6812582134712141 -0.6716541639187208 0.37121047510981875 0.2814144400915928
P 5.841564366095028 5.945067383340139 9.512478272908128 0.2824912180955393 -0.599743750931664 -0.7613455550382823
P 7.553717520641596 8.994767614120914 11.032839621907453 -1.3442429238365687 -1.548998637622842 -0.2128328343674528
P 3.850447637906996 4.334837621502238 1.324142833739235 -0.43228780203711353 0.8711023494491514 -0.055724804366129845
P 9.59226999755797 2.931181377912439 10.380983110373508 -0.7275270638269405 -0.3506858727939058 -0.39063927325839176
P 5.505743711668573 7.277170396439813 12.704468825325321 0.1380867517038138 -0.4468896111106884 -0.31613256029906844
P 9.183147242618897 0.7557450323861646 6.058563406283662 0.24020402729155407 0.5314246548402913 -0.19019838479738857
P 2.2537763200069083 5.053115464288265 4.667573306819125 -1.3825605884698449 -0.7891497217347442 0.30618521927836945
P 2.790397341101841 7.647526532546982 7.1684047848313215 -0.6829510769887787 0.17799335809076444 0.659741728751851
Ni 1.6086877474094676 4.892087786840973 1.1624033849978435 -1.301393175660894 -1.087364006992495 0.049097271747283185
Ni 2.9639209769356474 2.316350137209508 5.228562857146812 0.6613409549181707 -0.3217247096748653 0.022428761317161372
Ni 0.29872204388482004 2.9960494117036838 5.932974793362038 0.37282615633637084 -1.3787054763898128 -2.3763292413026815
Ni 7.557271675848597 6.306340678362753 5.66152854005919 -0.07985897841017214 -0.1809701813309012 -0.4456539389313744
Ni 1.7757612497194595 1.256704149065467 11.934606838897386 -0.1562647081644212 0.493812243804156 0.3461566174649845
Ni 4.812786874100668 3.025469918694959 2.7533006110656073 0.8242167406412062 0.0017797176082420963 -0.07099818558543255
Ni 8.037740805683734 6.446344305432131 11.830831148369198 -2.6950349616455647 -0.01748941503401504 -0.783228985374935
Ni 1.5268105422704383 6.282571090100067 2.9232005129925938 0.21468634263642383 0.7442430910300407 1.8899834810789
Ni 4.801607269494524 8.433568387441069 10.429203029853872 1.558002640893665 0.13392799234043387 0.8254264446785913
Ni 5.547688384627371 7.147199265682257 4.235928678950619 0.5778996584733789 -0.18180501852737077 -1.1275164108416647
Ni 2.961993458900105 1.3375188686531971 8.031708144358838 -0.7745594826253951 0.34995259417230695 -0.36380569800531537
Ni 6.912935305411367 7.036409290010096 1.394250895829054 -1.13460159982322 0.7261708069093623 0.31685504028738976
Ni 0.047335141689413725 4.387134476690948 3.668002884453081 0.24613144851958255 -0.24810194198239208 0.6842844510882216
Ni 5.055955027443063 1.6037608232600817 7.243996400669083 0.17110768671452467 0.46883860457795384 -1.9527878179996303
Ni 5.4761069465562375 6.318836636749268 7.1444321019853785 -0.15235637424895052 0.9775431921129099 -0.009712085081441337
Ni 6.953328561414728 7.784540156029519 8.512123679790063 -0.2912774489286015 -1.164937017581968 0.1561135272985376
Ni 0.3509248738035029 8.231630315005269 4.4969851399155445 -0.3387891213563198 -1.5284514095991095 0.2193030154728288
Ni 9.065248956532738 8.466674685017379 2.1190992244845286 -0.13457642455771016 -1.015483161691793 0.25073398028860044
Ni 8.447549945094 0.947586671326523 0.8814671611912258 -0.8306851219743693 0.018407555972910234 -0.6033774910295092
Ni 0.5510153496832814 1.7582725494945406 8.114414652379502 1.4143131982910933 -1.6018101249969188 0.37741043327294355
Ni 2.2111640676309228 3.4094221088479513 9.691281427653918 -0.3097801357184794 -1.0453920334360833 -0.5874675046674722
Ni 0.11739619114421944 8.569829808763393 12.241998952931345 1.0575782910896303 -0.06886237018935237 0.9286750056572974
Ni 7.221366398679118 4.866973637216909 7.573145021934461 0.28910255276446983 -0.8129488810368709 0.6448334441814508
Ni 8.342147617394355 1.2650818006248232 11.88228553713847 0.24067865293512744 2.5240470883383566 0.7690899748703915
P 6.642819509679393 2.9936235597370016 12.034570744978705 -0.23959853249707122 0.8720708840100079 -0.36188328417162197
P 5.122731774215845 8.276348733429847 1.8872310280939122 -0.7145165104998856 -0.08178242068513011 0.28853922406183213
P 8.750781440929288 6.28972641314908 8.273071952769426 0.1271150831836585 0.06603132849846048 -0.26480048568399556
P 6.4697848052497235 2.2998863124278777 1.3679924586687686 2.1803574443566256 1.2708554120833533 2.073963909991035
P 1.9622321652359072 8.717101589205816 10.932697067813086 0.2366222234775667 -0.49416757026104574 0.9604893219544168
P 6.39393461991939 0.5684777228325929 8.310021063131718 1.5291078122361859 -0.7201924778387403 1.4540377705742247
P 2.0970832075078363 1.122727541804784 2.777479209252908 -0.16806015813745248 1.3594561412418973 -0.06694946943735566
P 5.084162608450996 1.5222033040391427 4.317878283547568 -0.15027660890178632 -1.1089268207649352 0.036718952687588374
Ni 2.780769153451133 2.5062717801359264 0.19853059665003972 -1.140127671847772 1.0483899397221428 0.051542905074298324
Ni 4.463830889451519 5.005096758885758 4.794936176586147 -2.5098962507592706 2.5380238622334224 -0.04028173033818224
Ni 4.573041240587236 8.634199508623498 7.925344878399522 0.170182603797094 0.15201878840387367 -0.38021910636633227
Ni 7.759811510012563 2.286403088706085 7.508534617383088 -1.3750036020581933 -0.49249609609589373 -0.3295192660186196
Ni 3.79752081340911 6.616360798693951 9.422023142384585 -0.5822473939191134 -0.7566265522960582 -0.12233283130366673
Ni 2.1144026622467074 3.548052966974943 7.299565335254713 2.007144024153008 -1.1156710814673043 -0.5893940322662237
Ni 1.5980628918964792 5.772164314288507 8.665371706395366 0.04699488069229971 0.5079887924148542 0.8078814938162926
Ni 4.20984042752908 1.0001561997983088 1.5995184030764886 -1.0796704950029794 -0.7481084875227181 1.1906120537505687
Ni 5.730793195476871 5.267446067313549 2.393050310980881 -0.594623398985963 -0.2976807813517841 0.17832811572236387
Ni 3.5770973728861124 1.0253831797464044 10.236665603915315 -0.6939993643831402 -0.04952613175458567 -0.4446458093818342
Ni 7.355117345291737 8.441071603989178 13.354028299512521 1.0506761646531582 -1.4159167953327871 -1.4048088583450837
Ni 8.415665976028032 0.15606502369529562 9.052704105005809 -0.11529520773059498 2.7707935447341185 -0.8218973484794103
Ni 7.085039159667773 0.9313456864348549 5.382141852702608 0.04284923395504233 1.2463545987285116 -0.7972103872556916
Ni 1.6306990631226586 7.553614092844567 0.8261483338238667 -1.9636412157743666 -0.5770455380031998 -1.3295164162596715
Ni 1.0577560802165098 3.9969296060811965 12.387760687537144 -0.3532346073576884 -0.9324653259376651 -0.34668189384083525
Ni 5.0461669968333105 2.8160286297110506 13.639992994760153 0.38484246407095657 0.9111711924455791 -0.51041180003405
Ni 6.622143352800577 0.33557806922978634 2.8390902076904365 -0.4090825675652438 -0.4497581909077351 -0.050987546791460565
Ni 1.0539010441454255 6.163967614488708 11.545306491385292 1.1919495416150698 1.6860487205320254 0.38615089846973494
Ni 6.591265454123892 4.717623898306902 13.75695196839875 -1.685928135793761 1.1476692316404558 -0.3863146777411089
Ni 0.14124288012832667 3.914450639213998 7.916220666196156 -3.220120561641706 2.7389020953421603 2.9356138557780347
Ni 3.4922207616332397 6.695802749339295 1.583211600495802 2.1753545918253954 -0.997054265562644 0.43806661350241977
Ni 2.5272112077708164 3.6159110043530296 3.14130717086214 -0.6212746830249042 -0.45836238763697834 -0.6803995142115186
Ni 8.40577451762125 3.9170739442477363 0.6792827425479584 1.960551006884817 -1.1203075517980512 0.2563587826745456
Ni 5.849471891304252 3.503879895116519 4.846226021132874 2.346750242093984 -2.38500748580297 1.239255525789885
P 4.192680815749254 3.4534823503823437 6.719062720638437 0.4598945080107886 1.1420184611125814 0.05785419200430682
P 7.895536987295739 3.902020498516502 5.31747597324192 -0.027879757129403597 0.9766733879134469 0.12237576872646022
P 2.825421754186692 4.940539008485601 10.989147019178862 0.5043717644875572 1.726633583932923 0.18944890822587374
P 0.4308595168637857 2.234820825569577 13.50313451297316 0.3054100316752417 -0.3865720451675536 0.5129350806765359
P 4.221471353431352 1.1185340147616045 12.318677500890612 -0.49339315398886635 -0.6898583456315731 1.1116161946716405
P 9.245899707834548 6.395655282360874 13.40187681917628 1.6701744725039303 -0.2336166038820235 2.6173583355986922
P 5.986711175434852 8.614999548484098 5.791327604572598 0.7153266651060068 -1.9612914845952676 1.3925614084362985
P 7.814346166627902 6.962890931376418 3.576474925598537 0.4665063569003514 0.22377956318694364 -0.45276483894454284
