# total energy = -340889.31815103383 ev
CRYSTAL
PRIMVEC
9.11169181719627 0.00000000000000 0.00000000000000

0.00000000000000 9.11169181719627 0.00000000000000

0.00000000000000 0.00000000000000 13.33588199838882

PRIMCOORD
 96 1
Ni 6.673366582225327 2.019551803601809 11.527509193064601 -1.9627482716464524 0.5602420932926158 0.30461221836429475
Ni 4.7293233680572415 0.36833740500560375 6.044755525058939 -0.43910328229705026 -1.7344381675790064 1.8330574573158174
Ni 2.7871389390037304 1.6451797251580542 5.1159105804451075 -0.49352350891914354 -1.7655338605425461 0.03371590419520645
Ni 3.4165472691972036 4.443571603458352 5.095427497417835 0.5153598880679447 -1.356285971044032 -0.20648323800034116
Ni 4.858080684008484 4.338213111890577 2.613245946858583 0.5495542745614663 0.37412662031534927 -0.06872764438370099
Ni 7.413536637187274 6.177171185243032 2.921678534531978 0.10036069790794974 -0.5230608562566282 -2.8050118424870405
Ni 5.199805570954588 4.337201714107647 11.788345947774799 0.00808740499382478 0.3682573060187658 -0.6465920787437702
Ni 5.62574071294431 8.024275111009358 12.32672938867372 0.18041276616553445 0.40900851979419883 -0.12859835259740432
Ni 1.9401160750289597 6.769850286040181 0.2252473979503133 0.9351225610548539 0.7395600837320747 1.680291249222958
Ni 2.818774732718451 1.4961671184729917 0.19279793016337962 0.6082425324312943 -0.24883933436904887 0.5382468199684473
Ni 0.3287835511704652 0.026204314269632573 4.956667366276494 0.8319704164446962 -0.2430003590897686 -0.30714758319163876
Ni 8.551422924826014 2.6263995850517197 1.2440630091245974 0.4855137512407896 -0.2515847583246699 0.9817495168847736
Ni 6.989022919108696 0.8067227625862812 4.835043593787018 -0.40260261626785504 -1.109368022067412 0.0031575717923752068
Ni 0.9516068617448057 7.3706114574090345 2.769596198900346 -0.11858647688735706 -0.2530752268272674 -0.18354514114692905
Ni 7.742040459421379 3.7794932862013675 3.5383696765665698 0.5986299490421948 0.07062666117862675 0.2982397391790476
Ni 7.965377135614211 4.131988192781918 12.33806433319593 -0.08219816806631006 -0.9967094806287158 2.2975362422631784
Ni 8.0491500294544 8.828236119829818 6.834279058320361 -1.0962805927558346 1.011652217981477 0.9310357925799901
Ni 6.829094505721377 0.8484752676378259 0.6416043295849343 -0.7348392812176376 -0.6301177352378309 -0.9684656552916739
Ni 1.9449634950336347 6.541447509240959 9.223042989334633 0.11810773747872563 0.4728464401857663 0.6266390326606112
Ni 0.438584903629742 5.039357791138197 1.3477112361531278 -1.56833744716077 -0.2893655766178694 -0.9255408309036899
Ni 6.451506000094069 2.0505588905865997 6.756451543339289 0.3682367371934755 0.2675356252269715 2.185888915697816
Ni 3.4927027887443334 4.412099820194917 0.1010322603305191 -0.9961106707024521 0.6387802960088353 0.911285092315624
Ni 6.021005900543553 5.41107836728616 4.638366816450725 0.059439019992923434 0.7879886115471074 0.6977971408626756
Ni 5.191468373014216 2.9837874700956357 9.208612803128988 0.6598497150846249 0.05468093648264777 0.3766964379250545
P 0.08551049345464752 5.989825691415739 12.65355119261297 -1.3975282655232706 -0.25600448465892045 0.3086041131325072
P 4.035659387726612 6.440663086925717 12.530927867539823 -0.37233430430161685 -0.9817634008418445 0.28121029450058665
P 2.637433843746572 8.383266653799181 1.6808674881887125 -1.0851258616905957 0.20107492250057632 -1.321375532320092
P 6.469866058946362 7.758860642369931 5.770663081208135 0.023634865810120587 -0.3017809195630867 0.6288851483823105
P 4.8998213438607685 1.0683823030604325 12.62366575488114 -0.15146985787893916 -0.03640862053602117 0.6473664950159496
P 4.047887278039156 6.096259362608609 8.178816692241107 -0.5372649156711521 -0.5350146861843947 -0.1020249729842501
P 4.926901291706433 0.9860855032818165 4.135603712063601 -0.5391065968655812 0.5441562434743467 -2.3946905174186885
P 0.521744580615957 5.304799594852837 3.5539725374989106 -1.189640690976235 0.9118353083921393 0.5196821695923823
Ni 1.400266562929377 0.9660762282249254 2.6172468907007875 0.22856335772883218 0.0015683729283843956 -0.13380252250616312
Ni 2.086367839117375 6.355322982106572 5.046137800960525 -1.2269491976187064 1.7436530013090554 -1.3160824022419526
Ni 5.9686592315081075 5.710096755055739 9.273639302387188 0.37966863317950095 -1.0899235401895553 -0.20630531766158017
Ni 8.598703493255071 2.477049845772347 10.29187358762858 0.8134782711777796 -0.019391774263050474 0.09282813697633044
Ni 2.122122117497721 5.214420724502517 7.121854072436047 2.0856354327916917 0.41420626194505433 -0.2962031683649931
Ni 0.38124776102933283 0.29672041911322744 9.470142957580457 0.47736463977109406 -1.1103329570838427 -1.5856630829234113
Ni 1.5077116319051782 0.9259392261185478 11.379334862019444 -1.8300829480685257 2.3708281089787944 1.6684001542123266
Ni 4.096880844514978 6.688792676337949 1.6057598131914659 0.2835371428615504 0.7089004498646888 0.3781318848200004
Ni 5.719345122169921 7.7634347116224625 7.986672981544523 -0.10235355996826243 0.7698564207227709 -0.6251197678026074
Ni 5.369401489276043 3.0409268889853283 4.914672490224716 0.07000316866201492 -0.23130466791939522 -0.5683330978308664
Ni 0.7416042352415254 7.577455971555885 7.330894504291783 1.104365426646498 -0.37644292715335165 -0.6856553632938192
Ni 5.28332333742611 4.530597371249047 7.038144960438025 -1.2436731952416065 0.059548548987594214 0.7151695707028521
Ni 8.369298430364658 7.014572102742359 9.199984942222171 -0.21920068556700958 2.100833994909001 1.793585110252808
Ni 4.812631565618788 0.7138983141734522 10.460172001046528 -0.2021948950376324 -0.9762566120910025 -0.5053775800442523
Ni 8.338491800598106 7.080558974309756 4.697764112553122 0.1766576699984764 0.35111858945595015 1.44127558581255
Ni 7.524216356730104 6.154975104168995 7.244064637873458 -0.6272432419035133 -0.3262225975452188 -1.4935417422061181
Ni 2.3834363248549977 5.056405766380201 2.481567422536102 1.705465177385424 -0.2722805961111246 0.815202452957738
Ni 1.9286444551306783 5.524200020214805 11.703103338057252 2.2064579980984194 -1.455625683886635 -1.734763669239225
Ni 1.1950530416036473 3.0692278035239 3.8261442367313205 -0.5296359383709845 0.925685069791038 -0.7004206945284518
Ni 3.5163111820377777 2.291198669390103 3.0793882509810673 0.42743870147492835 1.1682830512360654 -1.4890605665063128
Ni 1.0547512122202187 3.448711541032735 8.148357217929776 -0.9165247434480087 -0.9257359776336315 0.9579156476899696
Ni 3.679036884788697 2.554471890471074 7.046999702469121 0.03022588876407697 1.0709338864609297 0.5531635891792795
Ni 4.213710955981033 6.785303715228017 6.056837628303673 0.8081895119750145 0.7306548108226448 0.1965253554566809
Ni 0.6835946497908436 7.49149627169855 11.157225530703736 0.20279781872895394 0.6703303029009745 0.5966936512514305
P 9.442263914369361 5.547653514748702 8.222224791681466 -0.4720406564550193 -1.057322209214766 -1.0833991088074761
P 8.357854145541591 1.6359313580438721 8.182750209564448 2.0441977344721955 0.8802886439341099 -2.2708957568575148
P 1.5299077129792158 3.3094757795826646 10.509888124677182 1.43011031322435 -0.15024267034005737 0.5575357501050462
P 4.091842078983802 6.1804058358100615 3.9024127412560023 -0.8667641270851137 -0.526295561143842 -1.1489555545520471
P 6.922790031864369 4.131022353457678 10.49356544009753 -0.345549837118921 -0.6411423684831087 -0.743757409642874
P 6.520554400085472 7.710705351534016 10.081659569876976 -0.7252698923616477 0.919300763531249 1.0779306294937372
P 2.133985540140741 8.559805681225077 5.913997281602008 1.3855736642645557 -0.03402340813329624 0.46946621085962376
P 6.774023440856236 3.9089704257999207 1.4533713247174334 0.21112253654456542 0.9433945712556592 0.35076711965380236
Ni 5.127057824117512 2.816815718994757 0.6001515991915733 -0.15593740673198953 -0.6440824249480391 -0.19318215001606084
Ni 1.3658334798510563 1.1715084301523693 7.331347355371167 -0.259700702563585 -0.5407464464618493 -1.1673523118916798
Ni 6.8886667463051445 0.6355760343310002 9.128918302510776 -1.859699485383378 -0.7239701997136176 0.5362786404984828
Ni 2.7334801863579967 1.819559281642017 9.309712489978368 0.15460840350792085 -0.494172198246736 -0.6367578662621679
Ni 6.356689735867289 1.9200885765885924 2.7460051178212037 0.18228324371536994 0.44151034907664605 -0.3271114279080754
Ni 4.054065005037596 6.782324192029654 10.301889159187112 0.4129716182070049 1.106814402407623 1.0504185401163972
Ni 7.934716292915469 7.680299636203941 0.15844594114152846 0.4966178315737512 -0.27917320946589985 -0.06472957896790144
Ni 7.558904567177091 3.684312554305063 8.386535928794816 -0.006848133270084981 0.8159282753801691 -0.4467494859883983
Ni 3.1675702924533287 8.627268646854048 12.000680256193862 1.2396998124161553 -1.6188727369061602 2.394463489009547
Ni 9.194790366762273 4.912623270752814 10.343363757640644 -0.6516550950889745 0.18537448104618395 -0.5433214062778772
Ni 8.715160025359864 2.3490852470023205 5.686420024074259 0.1755857770905363 0.8293648605010491 0.9152366207642045
Ni 3.5561201632415833 2.567328487513548 11.44877415358641 -0.28856802041723856 0.7953147128948754 0.5579756658559423
Ni 1.0973392594041482 3.391581233834781 12.83751989348212 0.7273051776241216 -0.9105806100494318 -0.5430370422682389
Ni 3.285366243243624 8.230900944554493 7.983912138947875 -0.5803242087544715 0.9090227786440087 -0.020369050574655243
Ni 5.6773766700241834 7.844765672076839 3.6872109834469557 -0.3030536156279232 0.3499052858741393 0.42987482172024677
Ni 3.1015105273520263 8.408706497131986 3.7578511959850065 0.6362253907974655 0.014289934260110874 1.5794813795927314
Ni 3.3235989017767364 4.360053836986829 9.616238000570977 -0.317717131177369 0.3924243901832725 -0.20096127974084743
Ni 7.094481639285589 6.152642511084038 11.51594736741811 0.4979108393535619 0.7821864030430336 -0.43208108534294615
Ni 0.9448186513999132 9.00415555221752 0.45499870512677465 -0.9158968800560225 0.21550703876550625 -0.9045475164814745
Ni 4.517567652063549 0.35208943629820477 1.8839598076778097 0.7413698832473038 -0.3638113544322702 -0.3537305731575005
Ni 6.00428594620412 5.8104438161675525 0.36778523648627426 0.23722154762446246 -0.06723923276363258 0.4852327296652611
Ni 8.027327527741624 9.151327597171486 11.220064312775616 -0.5105053881891208 -0.818441785830642 1.1920472435351988
Ni 0.09564633934412187 5.040906778733675 5.722320089522414 -0.4523015261548791 -1.1176415749301138 0.09463562249871443
Ni 8.150226025905262 8.891835728161832 2.626822367548368 -0.7163013703144502 -1.2237144927314925 -0.8242748475726513
P 8.653109404623331 1.5096524222453958 3.6356415417167707 -0.5574131084842529 2.3337278616923878 -0.7120793618133027
P 1.9754876623563054 2.9770721532846482 1.564419156606484 -0.09283636450644657 0.762870476323241 -0.11609122126932911
P 4.731428168848745 1.0791705460783556 8.240574827672846 0.7976986397460198 -0.43915084770553403 -0.5612656494611237
P 8.475030501293695 1.6408243365072372 12.637735118093957 1.1145719348658545 -0.07757738146484704 0.025029689275118183
P 6.270711812626477 7.890861720579941 1.546308758107815 0.3732596443293636 -0.5059841032799997 -0.28907144241621835
P 1.6685512144663084 3.2686554005959287 5.956671889857448 0.3371718974678709 0.35823077502069917 1.411887105348104
P 7.137707504891186 4.258977840535967 6.149067994415177 0.6489790909187081 -1.5696826483347546 -1.133835153970841
P 2.58545164238065 8.824099411780715 10.069577466632241 -0.7438139739124222 -1.4344940441143423 -2.3067608461852402
