# total energy = -340884.4957260474 ev
CRYSTAL
PRIMVEC
9.12041529611417 0.00000000000000 0.00000000000000

0.00000000000000 9.12041529611417 0.00000000000000

0.00000000000000 0.00000000000000 13.34864969157233

PRIMCOORD
 96 1
Ni 6.872643290263273 1.8991623030052642 11.425082132770342 -0.14559308738318796 0.8998580814256051 0.10063220640178153
Ni 4.7795627187570195 0.5115960113893435 5.7929001328857535 -0.2336561988707073 0.2205975659145362 0.4151184893466786
Ni 2.981828553462201 2.189793454545689 4.763572806785619 -0.3413741084746766 -1.9059248348995048 -0.15396794171044448
Ni 3.7733620295413717 4.3484680523457575 4.334359682035148 -2.2033965855642763 0.9706426083383347 1.85489306513367
Ni 3.951711749254326 3.1037320233514034 2.48283513182992 0.1668067453463256 -1.2116848152604682 -0.7314436252725274
Ni 5.398027195538158 4.937874886221989 2.8225851916028217 0.06457736966075331 0.1149995308670471 -1.1781650862364677
Ni 5.599706937395103 3.23731874514305 0.6141942983730786 0.37691163925965415 -0.8551926201974304 -1.2756754591798158
Ni 5.519675293801077 8.613165090855489 12.558115876303976 1.5126681786229237 -1.225241213788664 -0.06574619315787386
Ni 2.139676772887664 5.545531670962224 11.976382047756024 0.5352358010562652 0.32236671413423834 -1.1107669592974676
Ni 0.6738691751862651 -0.028569700690402964 -0.003637221591486896 0.5270946600063696 0.9134797859740977 0.7216796039072281
Ni 7.760543073603353 0.1908392163212347 7.081352136133655 0.45354516875399303 -0.2380430150844933 -0.421665546436577
Ni 8.823764598801889 2.7454182704307772 1.3221957154951023 -0.8342458427424341 0.2168686949997233 1.0093397677982165
Ni 0.5977273886854417 0.6620135474360799 4.838404901660219 1.3659211801409508 -0.6434090530300983 0.37421095249903935
Ni 1.8549647708278683 6.893510800296678 0.49101944260159636 0.7934956574082657 0.30290269187235574 0.06187462601760956
Ni 7.401435844558205 4.288948222591387 3.903612503443936 1.9831044667053006 -0.10080986963022638 0.966350151610568
Ni 7.777744176716553 4.313664547849484 12.463834495963363 0.2869603096104864 -1.396421148502021 1.0779195737501437
Ni 8.071667798152982 7.5535005275944656 9.296172922096593 -1.2551580559527546 0.03285689862902083 0.5093445351118002
Ni 7.075517806514613 1.07110156395241 0.28851247908379896 -0.31121301151026404 0.22994609700897173 -0.31937009339975964
Ni 2.324109809555287 6.451571960183617 9.584343385609479 0.5328552166392306 0.4708852026943374 0.30000557283021884
Ni 0.20033539265287 5.199950017694847 1.852311642039093 0.5767963981068711 -0.8717662082853954 -1.8348063216861241
Ni 6.499180527654935 2.405463913356849 7.198752857026577 0.030173952480219004 -0.6216971152743035 -0.7961528925254547
Ni 3.7600644641442105 4.575730558907118 0.29139270621166147 -1.2597898982978109 -0.42239059752805963 0.3381926254229014
Ni 5.8865531166174065 6.063762784427311 5.0625956523740046 1.926731744342527 0.4424570292606315 -0.8180674332103588
Ni 5.508676073040463 2.912787010213566 9.412119848802748 0.27538854561248705 -0.026211882508677436 0.984689059129072
P 9.240622297047876 5.858544321463303 12.80490610390228 -0.20192441498506514 0.0676287548925674 0.14388510355314574
P 4.063026417068011 6.513198605854822 12.907583738498467 -0.504333455050454 1.2214143838434062 -1.2888418213584447
P 2.2650460005621342 8.83309478357644 1.730558659001093 0.7847600773074808 0.1703301851185518 -0.750499613462714
P 6.435939568489012 8.178066562160721 5.552264361480869 0.42005372186476686 -0.7325648833611642 1.8127372577012264
P 4.998343239159698 1.5571649729210726 12.560198067099703 -1.1277593800904062 1.1623751703920626 0.691191719731016
P 4.246693338856786 6.622069002388371 8.237358381534483 0.08637903891687704 -0.48713663155619336 0.5714212498378869
P 4.916961774112462 1.493540956315725 3.795661444765006 -0.10911633261339272 -0.9571427740796871 -0.9188533915811853
P 0.18516084580252923 6.156654213487728 3.801454732515539 0.06126681723028157 -0.06285910141806593 1.1070949097625193
Ni 0.49370631692670175 7.667651644542937 2.2041152425725494 -0.0510425683991121 0.27459793139039157 0.9165571393478408
Ni 1.9973800545567246 6.813360591304734 4.9407487290591945 -0.3637473339635542 -0.2681416342420866 -1.081761316093737
Ni 6.073658434945775 5.507253288265457 8.84075684440645 0.3740494872205107 0.20402372071625507 0.8883166564449089
Ni 9.044159432699283 2.835263480806247 10.556886094481037 0.5469263500203162 2.772832429541018 -0.9032658215555734
Ni 2.46874135418367 5.827434585132907 7.191891568653268 -1.116839647854109 -0.7472955047031195 -0.25527711957459265
Ni 1.0946504760617861 8.483007645188215 8.890574376445116 0.507450403412881 0.7060843205721323 -0.3842891626706479
Ni 2.010823546597476 1.437103826907197 11.773348836279782 -0.3329624873722137 -0.564641507911892 -0.3062924342801951
Ni 4.183005479344867 7.182947177442708 1.8187138564354839 0.6001494710105147 1.3450924163210576 -1.0448526159928457
Ni 5.869753311774079 8.189275552471496 7.941192049994376 -1.1500176772679742 -0.5321278515549029 0.10819073547532981
Ni 7.044590478488705 1.110702406856713 4.810146207128969 -0.12223230117006044 0.7577290413316176 -0.27707673194818727
Ni 0.500875875334595 7.996424372551762 6.3935095727821025 0.30939858400934456 -0.8933243940721454 0.7092421494748237
Ni 4.771819486231512 4.949494295217862 6.6207036762292795 -0.3428879740160417 -0.8783867989257066 1.706546583375061
Ni 0.3949513729185248 7.593384103370725 11.453088191799878 0.3788219689084895 -0.7061969348905967 -0.09213599600531229
Ni 4.2332863284769315 0.7893692015464228 10.502930630055063 0.24044673942997943 -0.04113533658772916 0.18255758042267914
Ni 8.096694217528709 8.19133676631221 4.164004006266372 0.6193419847785656 -1.2796436997989444 0.028381122245854346
Ni 7.480646650782035 6.602733722112663 7.16600874228797 0.5955325410637937 -0.61116896204947 -1.2686221518774603
Ni 2.5841875700940036 5.789603102782136 2.6524967440001204 -2.2556113198946184 -1.0900184138962066 -0.40480836566992223
Ni 3.914600779706282 4.482839129846702 9.298775888601636 -1.3436649398459117 1.0880090967756615 -0.9110464939422568
Ni 1.0885033162005469 3.8620489471833443 3.685001622764432 0.3126402308750938 0.16788892266691086 0.7198749465983215
Ni 1.895888073939708 1.6969079749891824 2.6053761187433073 -1.421798708034861 0.0007150237891536072 0.7008302712620447
Ni 1.1866572248454366 3.985138071051717 8.211542134200323 0.5176466272195923 -0.01073641258089764 -0.796869458976505
Ni 5.432757736712637 3.139730302242072 5.06977706732169 1.8539258161243943 -0.4184118153859697 0.5314416241211558
Ni 3.9754704309138633 7.23189644595201 6.093592014460203 1.1554007959567585 1.6894847427967679 -0.2939963905216614
Ni 8.012202690889957 7.546222436245402 0.3780393869679377 0.0682969846041856 -0.36726151776439975 -1.2099400646552194
P 0.4714424713224423 6.427247812780166 8.181373624721086 -0.017681733550479226 -0.0977109189899285 -1.3629590121888335
P 8.84574479949267 1.6815491957513091 8.344948271770527 1.2747274934442498 0.07149517982650912 0.7178273200406734
P 1.822040071867819 4.265016253042585 10.284347110621233 0.37319356697811856 -0.28445348402823273 -0.19237970871942353
P 4.1240511153344075 6.3367185712628675 3.9080705624056185 -0.1470097652250565 2.75908422671699 0.8411821648509513
P 7.131991417584039 4.02421905028823 10.355388760928578 -0.2901695605764035 0.9792007823209912 0.485952381440105
P 7.180466424501674 8.500400277021127 11.172980175345355 1.1064192238517332 -0.5583618455507674 -0.6414673559226952
P 2.4968869555661386 9.036270273530185 5.9324205968223875 -0.14200357025971674 -1.0053036500556298 0.35123017533314993
P 7.182026015505045 4.374826052344246 1.6758425519454079 0.4476442298885258 -0.4960557884226941 -1.082330815443962
Ni 3.0084510455021967 1.818401026193287 0.5959571160903876 -0.351914088774052 1.8073711082933066 -1.4738098109948294
Ni 1.8458717168491512 1.5813705549266046 7.123960891978962 -0.8887321467157727 0.016245001103952668 0.6326862672959555
Ni 7.104393041115032 0.7434150773968093 9.403202818837862 -0.9235651952345579 -0.03342099866260696 -0.9682769363196357
Ni 2.4944609251164507 2.3742447320437607 9.595249578134805 -0.3416613006977922 -1.4974477621287436 -1.717197635331004
Ni 6.571158844605824 2.358439052459892 2.591600643588388 0.39910257353439654 -0.3999659499759563 0.47335089062601055
Ni 4.724876709071575 7.179007158065771 10.726881513848449 -0.7640087036927422 -0.3735314099335116 -0.17388524945966186
Ni 7.012751108940358 6.275082805176438 11.458640700588488 0.3017343825958675 0.9629791782558061 -0.49758148103860117
Ni 7.9738331040409465 3.8107830932070454 8.321721310318571 -0.2772595373829548 0.5811143087559347 0.15899393417012617
Ni 3.3028124468693973 8.835000950358337 12.96276681081364 -1.1286242991938626 -1.0638366132945163 -0.06106472852180452
Ni 0.009426861175929929 5.42611807442928 10.087240344957799 -0.8669351054453391 -0.55687934746797 0.562895728865379
Ni 8.737239219568098 2.3919656988247513 6.250638268292026 0.5057506471129548 0.7861716129430266 -0.3228271987104247
Ni 3.416525783887097 3.377700176276867 11.407195174432267 -0.12069580992087602 -1.3320283840482479 1.6616417524425706
Ni 1.1027402843658203 3.542861775575353 13.06130651302252 1.2327843162432446 1.388419875464099 -1.426237460532505
Ni 3.3822239022281644 8.816431784961479 8.185151300707027 0.6267354490291593 0.11007998207824267 -0.21382296619486402
Ni 5.596587755388361 8.248713298488848 3.517182334469559 0.20171152764331066 0.3261004701450578 0.017953242044311014
Ni 3.091610991518188 8.878952231324675 3.8266307267009463 0.5796025000970986 -0.14313845519510832 -0.4490925322992782
Ni 4.0850887014958115 2.602711133414741 7.142354945403514 -0.2791120172106612 0.5447236859420425 0.6509588403528982
Ni 5.227028530496062 4.573313648872655 11.504533717956098 1.642250235289836 1.01825275401713 0.005175116443036249
Ni 8.279202846583987 0.5465344980309383 2.095004067077077 0.5157640654848988 -0.777644549308622 1.6755161964318177
Ni 4.672899462707774 0.6046598162975009 1.5643819574881326 0.7685405301248248 0.029538889999381382 0.9691343992239243
Ni 5.861289566445844 5.760107679946457 0.43884063506133636 1.458261321737269 0.8402948771499915 0.006722920546130358
Ni 9.167750179404997 0.6651281692352093 10.571823510535543 -0.5014594759367687 -1.649692293390178 0.2951621286949885
Ni 0.16760222241253284 5.199858813542603 5.883791454887461 0.24747047904598024 -0.2050724736957436 0.0030135900153431972
Ni 7.436576804417781 6.407438270912791 2.5110947384026936 -1.2025905662686838 1.1057440521615796 0.38786710982989325
P 8.88708764170483 2.115544154203927 3.67119878636384 -1.3620012762612543 0.6464565816071706 -1.25959603711945
P 2.154707217177459 3.9068757880112233 1.5591887930593646 -1.1445800511921707 -1.067795083721632 1.110681341562197
P 5.181234925654398 1.1456427175813528 8.3243644066506 -1.2684249482649894 -2.0760351906977665 0.4200876604264958
P 9.020473714361541 1.8648148192702099 12.543912653675033 -1.0191683238528642 -0.7585237693187711 0.3439112730742335
P 6.269674398948373 8.238361627209166 1.3053047064995313 0.2029849950390956 -0.4253275686691965 1.554407210232923
P 2.360281376335219 3.5755675845700168 6.1765540474658245 -1.0562351467981745 2.0763210973693016 0.951118422262478
P 7.302251328992959 4.132195646129788 6.12940606096334 -0.8751063284022219 1.5084423134670344 0.08539070686167874
P 2.608876534106429 8.278710344161869 10.925256017228076 -0.728127673525417 0.6451093235506568 -1.1585943631933917
