# total energy = -340887.962717309 ev
CRYSTAL
PRIMVEC
9.08198828391995 0.00000000000000 0.00000000000000
0.00000000000000 9.08198828391995 0.00000000000000
0.00000000000000 0.00000000000000 13.29240787496373
PRIMCOORD
 96 1
Ni 6.31448863092274 2.1344670994205526 11.059934785576397 0.076589563630281 -0.24224651164287958 0.5380560441138799
Ni 4.201936369733935 0.4707630570969716 5.920797144568519 1.1301870156952925 -0.27903796943961623 -0.4295660322305763
Ni 2.8062890341561797 2.11713866537738 4.784774797620405 -0.4334201158693438 -1.513730301338851 -1.5050065483126083
Ni 3.5417575442453444 4.4010771314030315 4.848711996605694 0.48004090105167646 0.7529943548601097 -0.3482806057865227
Ni 3.7260583367181397 2.9431909286880336 2.460198974086276 -0.08242828179924513 -0.800902234284982 0.5517026883630369
Ni 5.1043227463217695 4.828829707398507 2.3462699694455145 -0.14776027023783583 -0.22984196733093964 0.19668656362489353
Ni 5.078293767303042 4.557877662721359 11.655754099614809 1.2761683396558343 -0.3911164700051264 -0.9277607213731441
Ni 6.13921533501122 8.160239316175344 12.100105825977531 -0.5416216499779511 0.12124242645296539 1.2493183093425257
Ni 1.994486410789833 6.646925737692276 0.1180640340012735 0.24167238430696444 1.1186785008350606 0.8074840012675576
Ni 2.9108590496557 1.7791615456275847 0.035919264486764156 0.32079731276458945 -0.7039497907276329 1.1425486225844388
Ni 8.260286501405735 8.86701782461756 6.5508310338537035 -0.7665980616864733 1.5459930180272987 0.39704157724030975
Ni 8.71355038307588 2.7787161170937735 1.0278186278528534 1.013373828658274 -0.46630015442681627 2.7167960074717405
Ni 6.785925571565834 0.8519086845480282 4.462049061145608 0.46383729470862056 -0.9868942943105069 1.8976600237875512
Ni 1.1904034776418806 7.656897349959051 2.3616621235421436 -0.4084089385369869 -0.1198738282402129 0.06715721457278756
Ni 7.80205477203034 4.071782392651807 3.5791671630436834 0.09850693252866262 -0.2341573068768419 -0.535743079709987
Ni 7.566204612875655 3.667897282413908 12.450812260798033 -0.004817218882985252 0.8340375833863701 -0.12857161312452695
Ni 8.376218084509034 6.836012738100476 8.92213005538495 -0.7481133726187245 0.7432845837715135 1.0552496429564535
Ni 7.284063558376082 0.8952615566156814 0.5099136930892707 -0.6111913306469733 -0.03152506719147474 -0.9556312225311672
Ni 1.852743816391621 6.630696224256663 9.338169590821998 0.5090974520980006 -1.052961104032593 -1.06833115873076
Ni 0.2365449312743403 5.1564079503247005 1.352768543309396 0.004326909510128032 0.06711196315714894 0.30625515328435643
Ni 6.55952976243156 1.9269799903270977 6.781055809336301 0.06542480526271313 0.19803947810836217 -0.1678416143687432
Ni 3.5558527903852832 4.364431307836889 0.3182573981366196 -1.224949136469542 -0.2859246692571205 0.5719660665977634
Ni 5.937204664978579 5.5651337604289575 4.5078277323395355 0.19265455964736497 0.8190390530950089 1.0123577286889338
Ni 5.592634021583424 3.1836002460658173 8.976987990474559 -0.5701755503562439 -1.112821527833651 -0.5277857725361234
P 0.26940174924152493 5.692245271366189 12.431339569271847 -0.6210419981888079 0.42921996174506727 -0.4981005867668647
P 4.088874694994181 6.097420023969984 12.635617103632148 -0.39945918554286686 3.115801650416956 -0.7081962247088126
P 2.726685405021796 8.876136141063757 1.2673696973181212 0.5910896748010916 -0.7106737397150277 -0.8368822519240168
P 6.324124620712994 7.775789661310815 5.77201600908883 -0.8577362125548905 1.3552467311462402 -0.4223227204046017
P 4.792211129797842 1.111235783955124 12.256371428173665 0.42067695727106263 -0.6701220435449105 0.9541461533452084
P 4.159614303360149 6.189511387281182 8.228532236841508 0.0659811919868154 1.2341032921649842 0.14108465798987316
P 4.621760369775695 1.4003881335706985 3.8811569033930233 0.7430724677607073 -1.4758291554177034 -0.6456963064023783
P 0.09823896132158767 5.99723660891221 3.48905748962149 0.9943813467161713 -0.06730171057045184 -1.8574914219884655
Ni 0.6509424431919935 0.343248305870685 4.549339685339814 0.5647996307563112 -0.1338107500362792 0.4277374636622698
Ni 2.028734589394027 6.489789172799736 4.762005344271539 -0.4154871855400071 -0.2275050916676469 -0.991189322141435
Ni 6.217992503192811 5.587756993763099 9.046467018837806 -0.13199169454966944 0.8595339278852617 0.8734677643575345
Ni 8.939292289038715 2.55896832353581 10.1806420893266 -0.16069034803594262 -1.4399452970369007 0.4043759061181939
Ni 2.592771484703885 5.31664147329309 6.978514586736638 -1.1093893622236508 -0.29212771274403887 0.23131135278761453
Ni 0.27645300510689125 0.027693707509352704 9.107293636764506 1.4371196546626477 -0.893821388313222 -0.18761571167187688
Ni 1.5974127919211059 0.9984647328471212 11.411173424922545 0.21427676590283096 0.6498293547341453 -1.1713917720683762
Ni 4.114940001966876 7.198338668997936 1.6019347139913866 0.4072779102563373 0.5450296472182355 -0.5388376594749107
Ni 5.7911753720120345 7.945186910667863 7.861688924868012 -0.22027155003368518 0.19910520036871518 0.7403627821390281
Ni 5.6542099035607345 3.1874782551519987 4.369333765224994 -0.6413272308004052 0.8595570678137132 1.917282168893853
Ni 0.6003285213248033 7.135464062666237 6.967521747865644 0.6758928845904166 -0.15701675583909733 -0.6917023408188474
Ni 5.177941345039774 4.818576142390781 7.036189754656535 -0.3024707465412597 -1.29080331596019 -1.308690480653256
Ni 0.8667404799546866 7.640204655110335 11.323616698465516 -0.28900485084434097 -0.1955071986048117 0.16567134619030177
Ni 5.005483465560845 0.011739378325054704 10.190771231091984 -1.423094544028149 1.0153286383917997 -0.988972002775142
Ni 7.998225723462479 7.352986769043604 4.614273178462701 0.9325422019221876 0.2518318413384695 0.16816505914643295
Ni 7.186305034245733 6.118908008742597 6.808929340217801 1.2521372668485597 -0.08139238433556305 -0.11893743246887259
Ni 2.5401867713338815 5.764065636362732 2.3365259039922024 -0.923717661652022 -2.7228093035453558 0.45099026354262334
Ni 2.358029328145252 5.353559756514 11.483830241059223 0.5263212721754548 -0.3028787806129558 -1.5373566825085394
Ni 1.218584887933266 3.7440588379097366 3.6172897179386623 0.10561114767361167 -0.35994724349117363 -0.9745686828656182
Ni 1.567896329321363 1.1745917356769107 2.3332563881349997 -1.0006856916676443 2.2223623280335016 1.1032495678745
Ni 1.4371792689527165 3.379371590004297 8.329528489869336 -1.492291928959417 -0.5133438860791805 -3.007689847808678
Ni 3.8575201201431493 2.7895600113534944 6.992470878452645 0.07076678630091683 0.5936584639695325 -0.015281608749418845
Ni 4.1738003693850105 6.8715051491281045 5.841495037452076 0.9330127138007028 0.834913044012788 0.4038318606892658
Ni 0.832159900571677 9.2253930905209 0.29511649145842106 -0.39191454042638957 0.16956785303123054 -0.6048499618099777
P 0.5647443822134025 5.310847164635049 8.025132022569554 -0.7495871289507736 0.17436064643418359 -0.09656240720778209
P 8.799929175625467 1.7787982660878958 8.094571090183436 -0.3708479495640774 -0.2885765050576708 -2.2955899171700853
P 2.069676193516994 3.079584231864323 10.201856706245598 -2.052839983528226 1.0119756627591667 3.44368492349405
P 4.005175089049802 6.3961447894563666 3.7414141628607998 0.2697087216188903 -0.6740576311538907 -0.7267554757682387
P 7.252885091882261 3.9671851311868096 10.104170838023187 -1.5131638873124198 0.7800163919749082 1.5914601492211624
P 6.861469551844192 8.042618483212491 10.050762388296938 -0.015210389191851224 -2.745431668930562 -0.0720641649561017
P 2.0528200228754176 8.262284538874026 5.8430898346313125 0.6397714562775111 2.0622885305356355 0.07564391188756005
P 7.080935803758897 4.242096922846569 1.3558791243679844 -1.1225652374839763 0.06221066920078963 -0.18634892914431134
Ni 5.271376842647822 2.9407842017375927 13.789145891597881 1.6485118999288317 -1.1084347116198652 -0.6609550323336617
Ni 2.030042395736908 1.259853443641953 6.902162309482471 -2.09608491025979 -0.5120310808050278 0.0041420471928315765
Ni 7.052418359893299 0.8010858769455169 9.05224952091081 -0.861850234723264 1.507703892639113 -1.5717899244857447
Ni 3.0595856932044354 1.5574611245437922 9.1427706084117 0.2251623024670832 -1.7148713011906727 -0.5586225554113218
Ni 6.376591268232599 2.0492144734440028 2.591248435233738 0.9140518564274839 0.7812726329795125 -2.5808736104090975
Ni 4.276553987186085 6.678549221622215 10.30398275864186 0.03327110334830399 0.05417211516702929 0.5215025106305728
Ni 8.295043271365493 7.581907370978719 0.002947105265728184 -0.31433844451312315 -1.03504385743254 0.11958432202425212
Ni 7.69397910897282 3.832926095306194 7.8661808763762675 2.0133856341873453 -0.12211094510084776 0.6915164500602865
Ni 3.4890638470134343 8.284707968461339 12.053927547289945 -0.4135012654582298 0.19655158070892603 0.5225798028551516
Ni 0.16837461745282312 4.8494276572988815 10.245589205432227 0.811733520572531 1.1574059993122454 0.28963374267759145
Ni 8.80878411440539 2.520596922156144 5.458341382345388 -0.2236270967694794 0.08060202722378376 1.0600102975698906
Ni 3.7727034296142263 2.710637531356028 11.213967126802292 1.1210349168823788 0.08113038892342803 0.7704588301934602
Ni 1.2961541516453907 3.5861684679723425 12.599461707444586 -0.7524811626691169 -0.46578670512550746 -0.42206252476467954
Ni 3.3028285909917945 8.240696652227998 7.673999642488766 -0.7564388617652843 -0.148138479512861 2.0015516176668946
Ni 5.632367721236925 7.887316479995383 3.5572741215843173 -0.003492586534290759 0.5783544866226104 0.2791117601003451
Ni 3.163556297463469 8.767897002213378 3.5680944026739585 0.08974975516132286 -0.22085827577509062 0.6138992164964395
Ni 3.505066310736741 4.299404270232532 9.20321124182748 0.6585176265367627 0.9000036058645339 0.09220155913592508
Ni 7.1422664720469164 5.917315110180598 11.482739494241306 0.7785968859195623 0.6061218865438658 -0.7799467150792374
Ni 8.299012100336599 8.79093800701816 2.7283201629503973 -1.107840786789608 1.028232233827345 -0.8774408900726695
Ni 4.861288734269732 0.413850776210421 1.5385033817651144 -0.19341046397678302 1.0803544084438812 -0.386914773218953
Ni 5.890813867760275 6.118662795053306 0.48413628515177826 1.284299196293085 -0.15656629856524001 -1.5216413286558117
Ni 8.131422166689504 9.393319057742207 11.11067222248708 0.7080334738787032 -0.30967369204760214 1.6742838666866133
Ni 0.2120626148958396 5.063535536003171 5.337818854059268 -1.1001591018746344 -0.29455791945208626 2.78481377027261
Ni 7.1753884840780735 6.182245796487399 2.481944887332068 0.9086265716468546 0.9224364809467531 -0.16135909196819306
P 8.52376406955378 1.9890281357060036 3.341951072819768 0.25911063438806986 -1.5275731207592145 -0.2754962748349449
P 1.9084345698259668 3.5067918885502647 1.4887095634587724 -0.6123349573331132 -0.18544621482438384 -0.13442498658151045
P 4.905963035663005 1.1542026715118574 8.056701014568542 0.8233111981078014 -0.6421579542318167 -0.14122401178121485
P 8.82654848389619 1.864141711949368 12.396061493172633 0.29165154443856867 -0.9593796338300059 0.15089675898428853
P 6.606483642936382 8.151220901602562 1.425065712701782 -0.28808902389829094 -1.1198103004466584 -0.20340485618533358
P 1.7582911360724434 3.5007886941569013 5.902214487914569 0.2956308408012909 0.20589316982482603 0.4869707954022903
P 6.999661088741943 4.12974364320921 5.889201814802904 0.24738306153849657 -0.7224059405502914 -1.5858407461518558
P 2.3658670842140452 8.572107494297912 9.844650292261207 0.6387430150129968 1.1324359596304692 1.273706251268587
