# total energy = -381162.22789197625 ev
CRYSTAL
PRIMVEC
9.34659558163090 0.00000000000000 0.00000000000000

0.00000000000000 9.34659558163090 0.00000000000000

0.00000000000000 0.00000000000000 13.67968740207604

PRIMCOORD
 96 1
Ni 4.529762139904236 3.4218914681579635 11.354085464144303 -0.2909478335033247 -0.35100340403432456 -0.6529969538288496
Ni 6.861326496290175 4.418117055251912 5.439522370939697 -0.5048523036684015 0.4509033602557719 -0.1925928531714941
Ni 4.887063797174142 8.732580365104555 8.969306265609514 0.3325017456857112 0.6323167997716789 -0.2276624431811176
Ni 7.809996604881737 5.344560959464802 9.944900177537155 -0.46190871022734 0.0002550534335995607 -0.32219702132559347
Ni 9.060290700649116 7.877796809491864 10.222652959505602 -0.04880622286942562 -0.2740533717408313 -0.7476755137503575
Ni 2.072196327997327 9.277131718977614 9.928853942180847 1.2686679175137312 1.4624036260404167 -2.858746870116651
Ni 6.57001180408058 0.7969374753353182 3.1979554490961393 0.3070228846883164 0.4425652727037217 -1.0324118191263316
Ni 5.104876861446871 5.2843314973049385 9.886583963500216 1.2199293146574475 -1.1367119612980037 2.7009063328246774
Ni 7.921426717834857 8.21588186617197 7.626398623186385 0.47059081138237024 -1.3348190594195077 -0.7591346634298927
Ni 8.00677982901485 1.5635078615090294 12.963377624286185 -1.1864062431993374 0.18743984821564494 -1.9333276523924894
Ni 0.2637814908392473 7.9556913373690055 3.2491579692085173 1.6312860229688486 1.3347108159764174 -1.3350789979491138
Ni 1.6443185272188652 5.057087718054044 13.51910189856053 -0.4041434783924136 0.6640231297360242 -0.43451720558826457
Ni 0.2698184569486601 3.57196975398989 3.865455660361456 -0.7492986511760773 0.0292979776331689 0.14873266145343417
Ni 2.2981970100310805 3.6846896971382384 10.007101771372335 3.1858410716335457 -1.616736407289448 0.6723599317364937
Ni 3.8812766427633805 1.4520964417471458 5.944507716244298 -0.13862771180894834 0.2739718677706185 0.46307136307687347
Ni 5.878363728377613 3.0898256190555977 9.030947063707638 0.9459227369941514 0.7141025628909186 0.7632234887872855
Ni 3.318181643184989 5.682889027630965 11.745584445459913 0.03973871335051866 -0.4882576325345139 0.24770316388207658
Ni 1.5555258688515923 5.788729876404755 2.9640054874896102 1.9461859964123966 -1.1804160870541736 -0.07619335663312685
Ni 4.308546914826698 4.399863154010725 13.63052266491803 0.7088068617096179 1.56858118774046 -0.2737767210406769
Ni 6.828744263967195 4.08611663231887 11.687254211529547 -1.1431255781338312 1.0474301469120346 1.2900060168698753
Ni 4.955406104330089 6.26593900885295 1.789891753963105 -0.7517558544673182 -0.4946365394776643 -1.5323034363553483
Ni 0.5136047757831593 9.395197914819235 11.65357562354062 -0.07405137058945956 2.0265404264017484 2.9454555244588048
Ni 7.224161338165706 7.156295707386256 1.6422734920977329 0.19579927592393373 -0.32263616574554116 -0.7332261710942469
Ni 8.221106613122211 2.702773747934846 7.738038099881337 -0.13301087984280316 -0.034590336380359785 -0.1180534872020225
P 3.9440016459531457 5.501649192009935 5.831309227400328 0.1679475438189882 1.0814468701771118 0.3882034101233895
Ni 5.6113782245606485 6.427074317300505 12.30861308420942 0.29310756015880485 -0.13166182201407647 0.0348495035790174
P 6.984421160574069 7.709847832839071 3.659590349266715 0.2745665639318239 0.2618252051057556 1.1398129688208305
Ni 2.9783581197200086 7.705613825024295 7.885081546116227 -0.6318748271382537 0.17814968116297059 -0.056639602870915365
P 2.618981518222993 6.378154235837948 1.2399997553541455 1.3266041277088831 0.1327833372130294 0.14018965697942953
P 5.441877713035335 0.8445191243054355 7.481147853990952 -0.9164661222959313 0.7392014148410753 -1.1835592606688454
P 5.216905156519517 8.265231891032936 0.030633467136709152 0.5888713269935342 -0.601519611885164 -0.7868210736015675
Ni 3.8910344885881627 0.29872280389611183 3.9452494164680965 1.320589803194003 1.2656358155556267 0.2119046661262286
Ni 6.6702727352706574 5.100568080867155 3.0751664184889416 -0.5338152665596548 -0.29038501902131925 -0.3245382678642604
Ni 3.0831147634021554 7.931399535358843 2.9297651691040665 -3.0824971227275557 -2.459957971167931 -2.33901610667452
Ni 2.3464441366091715 6.055444328948807 9.58123909660903 0.30130989346393916 -0.08006698065592018 -2.0686682088097346
Ni 3.1038361658863916 2.5482090962064685 3.656963021238605 -0.9493153076154682 -1.914327714251219 -0.38573669375045183
Ni 7.384866703214851 8.559070164059285 12.276561738517518 -0.07854257359159376 -0.5088593679452655 0.791063136707373
Ni 5.109746437763644 8.555471724746507 2.074442314924238 0.553756228457956 1.0694920118080808 0.4148539228313823
Ni 6.634802404901836 5.094894697327266 0.28322988700036533 1.1056340089462764 -0.6816323581773551 0.7661059525414031
Ni 7.409111772246927 2.0344454282978095 5.326569697560469 1.3744379593627103 0.21926650580793852 0.020937007262983295
Ni 9.161065694598161 5.190529063686628 1.5014006682895882 -0.6216719184633228 0.6534052450108618 -0.8774000095324049
Ni 1.4835570825960134 2.327797678352044 8.103231087831189 -0.5319512167677226 3.160775129803853 -1.206951928561173
Ni 7.994292777269725 3.060496002007545 2.440483973756169 -1.482206519698957 0.49483939951708966 -1.2055313940645624
Ni 4.911514491309804 8.589446599816512 11.649197678153332 -0.6336236915085603 0.7975875680894522 -0.6083489761021716
Ni 2.026407356066667 4.038906977854334 5.041210656078413 1.0243074448516423 0.6358975751444016 1.7405522508965443
Ni 8.365324583501897 9.128633007805064 4.63504780089834 -0.6958850114416273 0.05361804243577218 1.9483418664131347
Ni 3.6260398096377497 3.8709673477971593 8.20466595143084 -0.07406242633305309 -0.5711721099415582 -0.9194380604400616
Ni 8.21805962295087 6.144723010288196 12.147015119278791 0.6670295206625158 0.014293533804536676 0.5847763309885541
Ni 5.693413294296391 1.2330870132353628 10.57142958691269 1.5884923248420901 0.005598577133700036 1.0275627185641465
Ni 1.4073636351212755 2.9111654438250274 1.7910544704579352 -0.09570880095823515 -0.11926241990845911 -0.33921206782635127
Ni 0.3709869425732073 4.1952568293456745 9.20268141158556 -1.4202105376121346 0.5784958972964812 -1.3270255315170176
Ni 1.8638794048720873 0.44760939878679323 2.6188254300761797 0.25747001346085335 0.9343756555865005 -0.5430295860690713
Ni 1.5389917412040444 7.8784978041631835 13.661411294115101 1.0224230833447359 -0.7396228186492101 -0.3427231663034033
Ni 2.67486481342067 2.968600273895226 13.15969538795754 -1.1102319127296043 -1.1014474816687547 -0.22510522397690264
Ni 6.871551671895839 7.445582188346831 10.029659779895432 -1.7868213091664131 0.4481898179793507 0.205897026479568
Ni 1.8685713958721262 7.659086472039843 11.177603980352195 0.7001885239129877 -3.0963088317996674 2.5419998161620345
P 4.232260001395784 7.178839696015927 10.208262006233173 -1.0305254007368962 -1.0018434594211716 0.49838983587250935
Ni 0.15841264514414719 1.2993917625466718 9.512471519352482 0.39737196399653496 -0.8172004572243733 -0.545774238693744
P 0.390163352801853 2.586305819943837 6.092713878974017 0.5781390281776946 -0.4009108303877289 -0.7668816543651631
Ni 1.6534875375197384 0.6247133658470323 5.12965001313134 -0.7039145666143232 0.9371020533787281 -0.005548954842687218
P 7.964907080647968 0.6223140947519924 10.713383811833792 -1.574637678347185 -0.26060136000098344 1.0997587811124223
P 7.606745536581241 4.816571773026145 7.883166428674179 -0.091461595646107 0.15616623491334397 -0.8222513893847194
P 5.801983348990522 2.8584319513504846 13.144264158592868 2.081155285533151 1.0225603802535483 0.7566005841541292
Ni 9.073198349197032 4.70594546729614 6.163424613459467 0.5257008649826366 0.15893428457678435 0.5033055280065719
Ni 5.978101250213103 0.17244095050661454 5.367854545063005 -0.17405622781988733 -0.040709047683587955 0.5978802153603638
Ni 0.7944624968157759 3.051055940433761 11.577133556622453 -0.2007856733949316 -1.2333859543829855 1.2421601010311898
Ni 8.797623324007487 5.990812620253051 3.5062136498413343 -2.8578323287221816 -1.0916546639480489 2.7178229060743577
Ni 1.174596017860374 6.406362261411887 5.133630728204879 -1.3919422867950608 0.9095722233895756 -0.46787675488531677
Ni 6.1735759509597505 0.7958738327540346 0.6771244007727674 0.08774943690184242 0.8115890245748669 -0.09378073069758688
Ni 7.433898943824823 6.886337986162894 5.7092314727196305 0.12172887917108069 -0.0894155117503557 -0.5739738410564116
Ni 4.450362810132659 1.396988913985731 12.860233268348074 -1.1714609347434146 -1.7434308579959201 -1.623258781788998
Ni 4.312827655619562 4.311949075631507 4.100937528989711 2.9570319164424945 0.9800901269044798 3.985140223097466
Ni 2.88103201955386 7.907902193976177 5.2689226997697505 0.2729853354876331 -0.04494648280370324 1.2901201738502361
Ni 7.180746401521918 0.5579048350319343 8.66932447528371 -0.16450586512729087 1.3801892600241907 0.8339856471025121
Ni 0.10579131181701597 6.51898873860406 8.415346628587772 -0.1018064292155408 -0.347895197422646 -1.1086301154601228
Ni 2.537376391885661 0.6254825906663615 7.736574423007621 1.4584806368369267 -2.265061666674241 -1.555286784624399
Ni 5.532212559679512 2.9841062760248374 6.812155926065065 0.008017470987837805 -0.2780648068930695 -0.7670865712871177
Ni 2.5714073465293703 0.5161255526212281 0.16623294169739952 -1.9719070553275844 0.218659725461875 -0.5408842575912943
Ni 0.7947036389827101 8.392448403984195 6.794782474131057 0.2600758265148166 -0.4904960349467294 -0.15421759582740538
Ni 9.001781012082892 3.589373115029875 13.648169037444074 -0.4166187280412889 -0.20942278024463934 -0.281450949756483
Ni 9.09813506630481 1.1708573796133308 2.995879247864776 0.4998594784395004 0.1819600560479963 0.18933552257646102
Ni 4.860257760942844 7.178559298147397 3.9488198159940224 1.5561596741476555 -1.1865749075667176 2.3238509688983076
Ni 5.129402328347474 7.694220324966431 6.348414303242282 -0.7051816062522048 -0.9095701665070465 0.87228325713113
Ni 2.127948770856357 5.684449909099105 6.984479109466898 0.11804243145842896 -0.8392237555729999 1.4713050422951048
Ni 5.541325490406679 3.1606915070282993 1.7083053208170074 1.865403734857007 0.1966333417894549 0.41260317912399264
Ni 4.502376614744645 5.907216669049166 7.982631029917636 0.15333853565656172 1.3696821898452798 -2.698074262692521
Ni 8.147745184119609 2.871788236488046 10.50282650973901 -0.968763903258383 -0.7564751143198585 -0.9192655394179394
Ni 3.9139429944469195 1.5942581610909585 1.6127120794783631 -0.10268831759986184 -0.3692844617316995 0.5786779314003001
P 8.976292845833676 7.27071673093701 0.3042802896503414 -1.6969157451535164 -0.7748844700649816 -0.1832299238993554
Ni 8.320685242832202 9.30335826628062 1.0785616172085788 1.223767200346299 -0.3148444376152642 0.21277601298758841
P 1.145696344210731 5.12961730004668 11.09352854879313 -0.9284664891909171 1.3449345505869548 1.5052361478249108
Ni 3.870686949928631 1.836577999073055 9.397261643131602 -1.1497965623961037 -0.4795819591373869 -0.03676548965480765
P 0.5005597322796642 1.5661716412600475 0.2227789105243642 1.225253040863206 -0.24817598975343708 1.067272892669575
P 2.4491445292554443 1.2586312590582847 11.484699464602562 1.1118036280920982 1.2650436904975826 0.7571384589354702
P 5.8545486027439475 2.676734132544191 3.981267457340109 0.019046989329122035 1.0111107436557103 -0.10786497670479488
Ni 3.7008125745786113 4.388189256084333 2.1767669744266835 -3.4050530700544646 0.22009234414334355 -2.882408989620281
