# total energy = -340895.83750825893 ev
CRYSTAL
PRIMVEC
9.04437340021147 0.00000000000000 0.00000000000000

0.00000000000000 9.04437340021147 0.00000000000000

0.00000000000000 0.00000000000000 13.23735469048992

PRIMCOORD
 96 1
Ni 6.463299247738377 1.767876558424224 11.488528635132322 -1.275627636661016 0.3633596116068323 0.4308325576478257
Ni 4.764883477931659 0.2880940474152167 5.9590998439237035 -0.9543762670781434 0.2681462622277769 0.2286911415559481
Ni 2.950898703313158 1.5991989923153065 4.827146754103617 -0.4918445785548239 -0.07011732564237602 0.014363467810523651
Ni 3.4577001733889325 4.216667821517401 4.617282015431514 0.09134486756258461 0.23706393900067563 1.4560542867836215
Ni 5.18046339670585 4.515701943139874 2.6219231831596614 -0.6445357104353738 -0.062029406427918966 0.4945000138997999
Ni 7.135052002033692 5.999160087546557 2.4373546527797862 1.2516418152693798 0.08086685084939621 -0.09046452184016032
Ni 5.019102728772917 4.68365595936736 11.327389554350578 -0.14057095157824823 -0.8015272694634905 0.15937779987210615
Ni 5.560933057483535 8.038286452146254 12.332872455957753 -0.11292002263019908 -0.45132476406390665 0.44758869406024204
Ni 1.830599288770891 6.3505701762112166 0.5680282610425802 0.7206367644650106 0.9027495440407872 -1.0816070499040598
Ni 2.808730195985219 1.6034408034952037 0.4760243714316974 -0.3261927727485479 -0.0038512554252901413 -0.2452081653743648
Ni 0.4474188268692693 9.180581783084065 4.858294672061928 0.18182918689708685 -0.42718081982785144 -0.20718823448716578
Ni 8.583481287805533 2.196742661896216 1.4585978749180197 0.6053420709550478 1.3372518372307163 -0.3545078176431572
Ni 6.967134163300279 0.6581889073305139 4.809435157443504 -0.37536974869383094 -0.5023123108553672 -0.6996856161346401
Ni 1.0272780329106204 7.5880213609309 2.8974319848247148 -0.2908437038252927 -0.06195741553940296 -0.9602970034379527
Ni 7.7919267618920545 3.937468011019691 3.70709515539574 -0.9330520516790706 -0.3864378335825345 0.08593295251839393
Ni 7.387263401953975 3.7480878739282897 12.622294217405397 1.1098159082381078 0.10647015323979729 -0.08516650666601462
Ni 7.880127492438659 8.610451609635923 7.177161700695704 -0.9884492975024526 1.4621336602084818 -0.3647004419054429
Ni 7.027306380314897 0.7031765256459224 0.4174774283382467 -0.6041038276725725 -0.3506012834998994 -0.402572534360868
Ni 1.8401139697117266 6.509733061379299 9.153683816241816 0.348700981153393 0.035182204328087795 -0.39883157926119694
Ni 0.18268096962668892 4.884721427043893 1.4965489706364983 -1.1411825954748473 -0.3573689412410362 -0.11455832956457043
Ni 6.5798088673960216 1.9240005340902901 6.774785662820301 -0.9147869348212955 -1.0416688189482253 2.3768334346326094
Ni 3.471700863594649 4.309942445607549 0.6108615095860237 -0.28742336528983403 0.18423496812510207 -0.5468492169254776
Ni 6.112431821484792 5.586193992719043 4.799137233756018 -0.48902664949005453 0.031203422185997875 -0.41606002732434155
Ni 5.435071555608377 2.7613286343778816 9.37191460041798 -0.9231353067859908 0.24973947758581505 -0.4417448336849554
P 0.1455908982671147 5.524637986556184 12.39998622964736 0.2988776298733627 0.7170665306152489 1.1914726019786512
P 4.031547584352932 6.165341406564534 12.583932507129205 -0.8552214165528368 0.4870618124541999 0.0201456217099395
P 2.579229217968394 8.369500454745431 1.3221426983413402 -0.9455589258968295 0.7202948077445595 0.8729239760389226
P 6.27947235598697 7.828511252771978 5.858350045121008 0.6060493814347175 -1.1775511068015527 0.18130930983787485
P 4.630276066864688 1.0503592741283123 12.449891273844454 0.2858107693870755 0.13981684702104308 0.5647528366787757
P 3.930187290337778 6.199122141653907 8.08169673172014 -1.0105271032380985 -0.13762960956173717 1.5967944169498822
P 4.8326348799542815 0.9516761146744571 3.782600298835262 -0.21758500434045752 0.22621054122593942 0.08621243143202571
P 0.3351148408974501 5.648772013089422 3.6647747228307614 -0.4269805308915872 -0.004981255264675292 -0.7191326691156583
Ni 1.6039111109181345 1.2003240314286856 2.64338095933089 -0.2667691793745922 -0.9532843195655455 -0.1364654140503069
Ni 2.021869699927534 6.496627764151855 4.886754602210718 -0.13159703021441208 -0.6964773936099876 -0.4631862913881829
Ni 5.822306407777455 5.517646685826845 9.248331376231983 0.44537086047331687 0.8184518131329711 -0.15074712078030167
Ni 8.325544799448416 2.2406802284461955 10.244362003075596 1.8669530816219975 0.7883783907863584 -0.7965426717647056
Ni 2.123673168245066 5.234024176678879 6.895443936610609 1.010722507078356 0.22600485297303657 0.9783001248835925
Ni 0.44030271378538205 -0.007349457920649134 9.163797234709538 -0.7246512849410424 0.556381839006261 -0.3316345125894095
Ni 1.3794026270831932 1.204466354499886 11.481909962591919 0.11814656113646103 0.36818582935088207 -0.7216605777438346
Ni 4.332716178125632 6.86635270919027 1.6173139680343174 -0.9420162028508938 -0.13264012676694575 -0.7185348876306592
Ni 5.624316027097009 7.832119957805622 8.101234387393516 -1.1344244508154078 0.014008398463950068 -0.6977688587279014
Ni 5.4633804447194185 2.805980706435776 4.860373069096343 -1.3033320445548198 0.15353239683492267 -0.9841740671658662
Ni 0.7426714959239074 7.513866542457602 7.024044979224341 0.948938898112656 -1.0724662639450562 -0.3459223899669913
Ni 5.009633269699671 4.520884369165634 7.183541601775233 0.5020629138487225 0.03134200464639118 -0.7173079572020937
Ni 8.128006637443864 7.088690543380914 9.143398554677255 0.16259296437529416 -0.25595306259569467 0.06210602530212529
Ni 4.636362930242237 0.3998119579830758 10.271340464842151 -0.842737425153213 -0.08054443451297097 0.28400456941627217
Ni 8.042564440820222 7.193560054321017 4.82124349150848 0.6214947694555103 0.03332278252184584 -0.6465028614640738
Ni 7.059974657461567 5.9469197861071414 7.007153707242303 0.42639534781207855 0.8432770997067671 0.2155155234059385
Ni 2.4257009775019664 5.208121090923601 2.698620375028843 -0.34444580542146486 0.5034191707663007 -0.20174572331535578
Ni 2.4641033874589886 5.230098918572109 11.289888868433291 -0.4555537145435896 0.10007684811894377 0.7022754883490034
Ni 1.0257495337860945 3.3344163179663773 3.736733567413913 0.8807527280547219 0.2419832306791639 0.6016337688655251
Ni 3.5339442421448672 2.8135870245643333 2.7194296696188376 0.10225868626161098 -0.8686490028126523 -0.6418774468769204
Ni 0.984715211135362 3.4448933404875803 8.209436749974966 0.2145891549369272 -0.45076066403032045 0.19757976486312423
Ni 3.5101304066722245 2.8573979698850627 7.177307315109342 0.3080680381233791 -1.3561674431882966 0.25772249579129164
Ni 4.21861236182375 6.814935445740983 6.058472184639623 0.09482742679454637 0.46057070814220685 -0.6478508908515359
Ni 0.6747699573008881 7.312900562889765 11.233457404305678 0.5314241406196589 0.2761557627958147 0.5157008163471312
P 0.03244668999548212 5.553290561860906 7.941287355041433 1.0033095024437366 0.03441858668918588 -0.09344083085966488
P 8.498364688628532 1.640586045533237 8.044181574805224 0.06285730164585303 -0.25067278803336185 -0.44199088825749044
P 1.705425159283094 3.293011176001411 10.393865497326555 0.5098530993171025 -0.427274150872606 -0.632489320793801
P 4.183429748839101 6.182100630693211 3.845584411576596 -0.572913003892065 -0.2844257161140908 -0.4742422920920285
P 6.922057005687043 3.93699770359676 10.396644833308606 0.10320845176938999 0.7142825401122086 0.5016430527024844
P 6.347567444203272 7.668923282048554 10.125120078178192 -1.3041707384060313 -0.09331921768013607 1.338354583376592
P 2.269142871907041 8.424191781408199 5.696655639805265 1.2772978252745872 1.150809319931334 0.6792672003792882
P 6.92785444911202 3.8635664350048935 1.545924918982794 0.47702885369823006 0.6561483549736377 0.14701490743137907
Ni 5.239731176368677 2.6850031662602865 0.5666788405137089 -0.1697383171708238 0.26296214692367614 -0.7358929192931327
Ni 1.6652771852371162 1.1164103339295683 6.966210732764101 -1.2491643002631647 0.5147135127331974 -0.17687030022991473
Ni 6.71309579992938 0.6826503199470383 9.222954673015446 1.1468966151404896 -0.12143834451385539 -0.9738233200591615
Ni 2.563528185541312 1.5075885329524525 9.177722856615055 0.4615739525957405 0.8305460252933439 0.4568662627074261
Ni 6.344094404772396 1.994691357506231 2.581455942728502 0.7808406876484165 0.025834187454284542 0.7549167686938031
Ni 4.016307814975264 7.081138491493464 10.385009246777823 0.20087797599842175 -0.5188691867727837 -0.2839701166339109
Ni 8.178401886685629 7.318679917567707 0.2753143476344178 0.31216534812120433 -0.8417521784218085 0.009694087359312337
Ni 7.602890310994334 3.833674780528219 8.18448422787642 -0.14110522681516344 -0.37025788138856236 0.37198232027883676
Ni 3.0331663248320173 8.580198180218533 12.299686840645858 -0.13328855898422207 -1.083509152022779 0.06589814535470587
Ni 0.10846284053876522 5.0314482986248565 10.245686099358617 -0.2370402848515918 -1.3418073178118826 -0.46813720763555505
Ni 8.708926748498866 2.2407978053019284 5.825773116146867 1.0470097715451645 1.3431628033985126 -0.06353401599790348
Ni 3.5660427237599097 2.706302665894951 11.50608105081852 0.021408547582763133 0.37256056137981 -0.33829212711524315
Ni 1.1072755166764847 3.506232281686008 12.61959356747295 -0.38156456465063315 0.06641159465601465 0.06789717806260565
Ni 3.029557619798373 8.448421658062665 7.89906098396104 1.0030415934943306 -0.7656179571613911 0.2522262485634108
Ni 5.8191680101667425 7.757069746354051 3.2627830708298706 -0.48273413161312345 0.9896641437461601 2.9204849705563958
Ni 3.2767674811632546 8.315595988578721 3.664536855807241 0.48775703874901166 0.2142176305301214 -0.05828742288698348
Ni 3.5258676165933784 4.243638143347791 9.215647723650331 -0.8706711754490037 0.4712258738632078 0.10983726993981728
Ni 7.222149319011112 6.115832505927525 11.56763434366932 -0.26052371268551255 -0.4590298460176481 -0.8924592178583727
Ni 0.6454209652352882 0.04663912091977774 0.31813041186817737 0.5300971942781193 0.21956912465002185 0.29628775765899934
Ni 4.666372161574644 0.41454886019314924 1.641882104258353 -0.32326454335815935 -0.5883838458341545 -0.5618917130808968
Ni 5.831269381933698 5.437359782108407 0.3257023613773669 0.5625054354054958 0.501386199496672 0.11554948983324614
Ni 7.808269944838909 8.733274202009065 11.295566926127831 0.728675575609087 0.5367854049315723 0.5108684279554944
Ni -0.014033249950380503 4.93156223749312 5.703778083950613 -0.3903996464437599 -0.6549635906369172 0.3980214246550758
Ni 8.04948338656142 -0.13357454361122686 2.552175687901638 0.028261565948854553 -0.6822679348788251 -0.16018641181633056
P 8.573469166321212 1.667474968001967 3.594444769918185 -0.37344244976413105 0.34275967596829354 0.6358415250954856
P 1.6371310948493976 3.2701650884951845 1.5402061616074232 1.6776931494784784 -0.6853074930360972 0.3087702063967263
P 4.7104996599685 1.0765517798361635 8.083880947924714 -0.16435828380583306 0.0815654195783176 -0.062122737472673654
P 8.578371216767916 1.770038163695003 12.455119826175155 -0.4429247129256695 -1.045539100536909 -0.01182810298317963
P 6.406455360178348 7.846789931651664 1.306218269888366 0.02196981940287184 -0.46543086444798554 -1.1204438202655993
P 1.8457847919074528 3.297858960207008 5.980597415338411 -1.0178295504367825 -0.6292389321773033 -1.2297509287335597
P 6.799071614590579 3.8818722470051323 6.067711916625515 1.5249827343242188 1.4180662375756223 -0.7333958639028918
P 2.234783296912522 8.584865076953772 10.11762771915596 1.3060162762552023 -0.6984455730799519 0.8794990581532788
