# total energy = -381166.29167568963 ev
CRYSTAL
PRIMVEC
9.24214054657751 0.00000000000000 0.00000000000000
0.00000000000000 9.24214054657751 0.00000000000000
0.00000000000000 0.00000000000000 13.52680689980322
PRIMCOORD
 96 1
Ni 4.1890924988238725 7.5624736974090405 6.444238495495246 -0.5768827871730903 0.001258297887133317 0.8393937054919608
Ni 2.3339638931087823 5.61139319140981 11.358986879766004 -2.8666720385009987 1.100694405552814 0.25096872200722586
Ni 3.141107729317107 8.342639726168954 1.790664677331168 -0.10935930186213424 -0.20599652817190975 0.939243268091447
Ni 3.8269207480596066 4.059018616662536 11.474695703305528 -0.12442442372537281 -2.614765892281168 1.227112719779764
Ni 6.7393317163931785 6.987122739174732 1.9267986308676062 0.013768257428685964 -0.18095141227782383 0.7969306512317436
Ni 0.2708224363346334 3.4556639734098358 2.6724230845820616 1.104907415192897 -0.9549295684784523 -0.7238958948322566
Ni 5.097909120143528 7.187196591741778 9.181400924241277 0.44398092210432566 -0.5037937804969002 0.06306273278843978
Ni 6.337612847413171 0.5644627927821076 3.1087306635229055 3.0887518453880163 -1.123916095084916 0.6760391803602938
Ni 8.556807842647897 4.01618129651064 4.8861532022750795 -0.3227922317074312 -0.40399204041621395 0.5995529750770964
Ni 8.92840657648766 9.14315694780362 6.7055489210638966 0.43460025222037413 3.1651724875406004 -0.3333334975583872
Ni 2.8455163570586155 3.951375408936724 0.4674156988759609 -1.4218177341982547 0.12041915922072165 -2.9583994862139824
Ni 3.0305624895464844 0.07806188936331482 13.288396415259912 -1.183406794251381 -0.030051053749109533 -0.8798654403537621
Ni 0.41453494489255066 4.963417494933085 0.4938620832588416 0.22937531210716625 0.37257907332257123 0.7430357009855009
Ni 3.948196112683811 0.032612740371088994 4.811539555446537 -1.2261300441515206 -2.0268980668514835 -0.5588272152229602
Ni 5.295413657715486 5.920468846322373 5.1895458651355595 -1.057113692748386 -0.5778088985317855 0.11910789660846582
Ni 0.7659386780281272 6.478204285201876 5.582120560532333 1.0103180725510859 -0.5634873397027909 0.41262066262548935
Ni 2.37597866277664 6.975283557488739 3.589987391667363 0.18286868390519473 0.5519574846863204 1.3455205049974117
Ni 1.5276888180858466 7.911022533415184 11.819007017997832 1.327633597414662 -0.7987039410820825 -1.1833368602453942
Ni 2.066219089484091 1.9775684800133266 1.4326103000572303 0.4106393705294024 -0.7905746271067287 -0.09256099935787285
Ni 5.663232356184781 3.649998456869152 6.21149644971549 -0.9085484101107514 -2.9586653382808596 0.2632033164002047
Ni 7.712224096205412 2.03065533372476 12.090868270898824 0.2210534225050322 -0.9126372354681442 -0.21724664716443232
Ni 1.610221130697807 8.660939037071072 5.38241084829193 0.29725063579290095 -0.59653295730385 1.4249758202112621
Ni 8.565208948153414 8.616391920969207 11.549768684505494 1.3728487604987196 0.5917723026904131 0.4124252587852316
Ni 0.23352115820452451 5.655829401828433 3.5308885257102314 -0.4360164158416103 0.9535519714046351 -1.7864551840762461
P 8.518111001337004 3.4008026287665443 7.144304742962288 0.6131703087502149 0.7605022332013807 0.8469640616400509
Ni 7.379562499323564 8.814922336111149 0.5696208312668485 0.8204606160328839 0.10324881808902218 -0.8845921564054701
P 8.77480220519866 6.832178257546567 1.4296620573110697 0.8739624446057658 -0.07713772282426715 -0.4337240202630079
Ni 0.5673047509151623 4.2268558839674855 9.865424664627488 0.02110592874067978 -1.4492701739822524 0.9090045238115635
P 6.814359411105822 5.466347042010917 3.7160169132465044 1.0627580355183568 0.8448483008486288 0.24110648450116542
P 5.018362018838808 2.035627605190072 8.61029950210316 1.1277457532436512 0.8043464840798406 1.323868731055591
P 3.987650809496852 8.052787723018191 11.40165044768082 -1.4893572718111252 1.0628637078582857 -0.3850406961246917
Ni 4.540968505327251 6.157640649933585 2.587177279586801 -0.5814943178031727 0.2469971389539875 -0.10610814191468823
Ni 5.171476556693494 5.241495011379744 7.732382128348519 0.9166309300085698 1.0979338120885413 1.217183376481194
Ni 8.169700797434912 0.2599028476055146 4.4474112435870925 1.6560133505121997 1.242918319353453 -0.37349387182735677
Ni 8.769497216683625 0.6129137889340608 9.021554411413854 1.9441859352632322 -0.14482689864112477 1.0819202102691046
Ni 7.506263000286314 7.724599322027071 9.300423055067634 -0.17969799948669696 -1.2082343948180223 -0.04867586793914843
Ni 5.224674316088168 0.0409103339055815 12.53335699325231 2.2575360477211572 0.6355232225241184 -1.1340884076322275
Ni 7.503323999680425 2.682041379961151 9.512631837809316 -0.24975207599130533 -1.2663757790454448 0.7778738917106087
Ni 5.460616915043459 3.777068643442707 3.9647478616935263 -0.5365419214621985 -0.006594622498382191 -0.8657783661330768
Ni 2.7417548482462433 2.9602760127924013 3.505147316629959 -1.1632076935956872 0.6855226943706968 0.1276573288403737
Ni 2.932549591982112 5.020922091693624 9.240702193070325 0.6261973171375022 -0.26076591060330573 -0.5127216791141492
Ni 2.968427580510627 1.9192136063479384 5.789243393483382 -0.9533102877074743 -0.7381868575336319 -0.28748558598633717
Ni 1.8613578082571351 0.5543648303230004 3.5319707803358593 0.43027848491656867 1.6210556034900923 -0.8848688071056245
Ni 6.831309496361178 7.2708379611861504 11.854460792287949 -1.118983433669989 0.29824231028220893 -0.49804505093858087
Ni 5.032308408506383 7.28329636627024 0.3114481123198959 -0.8284752588072442 -1.2917050018388527 -0.8455867216765501
Ni 2.3133446781661973 5.094776034591964 2.268986101725843 -0.6075311081865666 -0.07996259386757196 0.4988078972465345
Ni 4.6109315071718795 0.6448342929989196 7.045572806884903 -1.3529949589975858 1.48355249220389 0.9898546624904114
Ni 4.653630195219725 6.1360325259821 11.315985049517298 0.882284848428532 -0.1657955304729919 0.8536836397520716
Ni 1.2640197983202677 2.128289303538058 7.867163956763442 -1.5096995829129032 1.8917655126799873 -0.5534451249754404
Ni 2.2245554365913813 0.528716966859456 10.545755245761766 -1.1928728247602876 -0.4611039549378575 -0.28914291908410206
Ni 6.282039857969082 2.1705998216945592 1.159294334277725 0.5330745317388884 -0.11588990389180041 -0.187212048475555
Ni 5.597493012443585 4.465580367144074 10.013151034704707 0.35288930820312775 -0.5746824370876619 -1.0717535541487477
Ni 7.527251900839703 1.7878827931098693 6.152789450505812 -0.28068630367631664 0.705145867918263 -0.2703013608975667
Ni 6.120912384500222 3.624647266108278 12.273290559764014 0.34545573474321795 1.0597806980575877 0.7241118674978045
Ni 9.152436056634796 0.8105994724553137 1.8611258305363556 -0.9211784401699361 3.2796182027867067 -0.9812612643944455
Ni 5.541652000931663 7.7970946703057065 3.8011268587797944 -0.32957454473658726 0.3813833018777625 0.23353998500781714
P 3.3178636619826998 4.879674461945742 4.301470455010055 0.10498868359826435 1.170105706267101 0.6194466286772299
Ni 0.26171800395456146 8.251262685318512 2.8936679078658174 0.37636630827914536 -3.1250748481887665 1.158666611192224
P 0.2513418530733243 2.003141482140683 10.673136892462423 -0.5549769882389345 -0.027154448927604845 -0.9033367840028249
Ni 0.7394941420733003 5.566670474642814 8.1414466504152 1.1744876373848805 -0.4534379537521675 -1.9420817444360357
P 1.4164504177949668 7.759784150035328 7.599806398816068 0.8673945615802611 0.24663049964318814 -0.16310641367660297
P 6.198500152067681 7.460153962478804 7.323926663325637 0.7972785214894657 -0.6474243448370784 0.3172545897186536
P 5.154341628632735 1.796413288579168 4.976985881063613 1.8130146797323292 0.8940466169501505 3.5485584216706885
Ni 2.3638160061811937 6.560727355673567 -0.0017412192268861527 0.5478365205394113 -0.314226087304975 1.4092674083370695
Ni 0.8851086830988035 3.5264864942995846 12.18224161489316 0.7921782241484228 2.1433399865920117 -0.7361199477022743
Ni 0.7019359324436829 1.4898422536798022 12.902449258650824 0.20115591225015678 -2.2090149601923184 0.5123478407144982
Ni 7.410495942807576 5.622086347702312 13.390794708382444 -0.23159211725282697 0.2562590238718877 0.5446473241781523
Ni 7.768222224101925 5.014341687821316 11.090925994944074 0.1841832889515602 -0.11300075526946346 -0.45398996960089555
Ni 6.093518680739656 9.073711505814115 5.77478314081679 2.983677544054481 -1.310550673790446 -1.5579717876557297
Ni 7.1731115699701515 5.1359959801965935 6.468018522410203 1.7954175354758564 2.340707121223698 -0.11466914411082188
Ni 0.6570690382884731 8.467343924833363 0.21819399278059673 -0.517653826308444 -0.4029548574009512 2.183526071892594
Ni 4.459933419439046 1.5125871608845092 3.1897971726880283 -2.872867882899065 1.190478356386182 -4.482097440288507
Ni 3.642068700517409 3.3057841846496836 7.521689056611133 0.15741296283625147 -0.7374605208905687 -0.17231867630349032
Ni 3.162799032531023 5.349332304051228 6.8464037598503 -1.594916226090563 1.8721865621067948 -1.556374875482255
Ni 0.5814932846578142 7.214035767086138 9.748363715966446 -2.1655358059627607 0.16905363239897336 0.29508910936520794
Ni 4.538907508047019 4.0057469201457 1.8261591170384732 1.0793190252008316 -1.2835641178992734 -0.3879712395079254
Ni 2.6262743055713895 0.4398778177271818 8.099581603419717 -0.9480284704832446 -1.5968723213756693 -0.3205260613810738
Ni 7.847676904003944 7.245773276773649 4.649177332037593 -0.3311992248242038 -0.9500007637182672 0.3020706828893636
Ni 3.0324294018810436 2.6180210743101937 9.587935872516034 -0.2478286337163474 -0.6272890075397842 1.0266805730695092
Ni 5.284970039210276 0.11135577547230992 1.321309053212514 -2.2075136930564434 -0.5169190050249485 -0.36448549768115934
Ni 6.812982332205577 0.2650109785327968 10.510531600764375 -1.1491090494107759 0.9265255634144625 0.639933435776672
Ni 8.604044421568359 7.196984018287811 7.241440561415028 -2.9028289480375298 -2.750983709097043 0.8071096486472745
Ni 4.301366018825003 2.1076238778941225 13.403577512590013 0.38746267530262307 0.5134935242831672 0.46848482078296094
Ni 4.450450983521927 0.13073007412051288 9.584256576474509 0.1850993730079264 0.06601538765886049 0.580966984544793
Ni 6.709387181918068 0.5317677973626148 8.178726671622687 -0.8688328366886843 -0.054737757862512185 -0.8372861722306547
Ni 5.267243614172232 2.0954797055792156 10.918012944202788 -0.4103496072031256 -0.7302915139459552 -0.8785120116496612
Ni 7.470939540174006 2.517217050384253 3.273689928347747 0.37252148061175844 -1.1010497320097037 1.009546227382068
Ni 2.7358029099123016 7.420643812824142 9.427345367396867 1.4692011085782244 0.44118998962274986 -0.30981098895641485
P 0.6020884700356969 2.132383571677711 4.74650261436587 0.2039728128736616 -0.473127718871611 -0.9437115882754457
Ni 7.0886291657612 4.297706131278044 1.9281378169927432 0.23841299682940228 0.8353984682896387 -0.8805249283146319
P 2.858972913291875 2.01433371400777 11.868501451786281 -0.11715745775031436 1.1372621773745188 0.6683554385627909
Ni 1.7130029726415485 3.8810149950604806 5.744983707943917 -0.952344067139463 0.3307806492295464 -0.07701893785821574
P 8.315929940788376 2.689333428634257 0.5794812707210143 1.0124047798767855 0.27118093528904264 0.6893163570851741
P 5.221624409799037 5.042825964133752 13.516715172706398 -0.9998379989553683 0.810221711913695 0.5817090049171401
P 0.0680267734580442 6.187982596440311 12.095061429939367 0.5388096344504527 0.027402560382668934 -0.5448972354054293
Ni 7.592408989743882 4.738861212790554 8.688457509725284 0.7167525989192559 1.8044392793584922 -0.3276883834574679
