# total energy = -381163.90354178334 ev
CRYSTAL
PRIMVEC
9.32494358697555 0.00000000000000 0.00000000000000
0.00000000000000 9.32494358697555 0.00000000000000
0.00000000000000 0.00000000000000 13.64799751928284
PRIMCOORD
 96 1
Ni 0.12931272569303828 7.137284011947043 5.821853354428762 -0.7623832522741772 0.5885813065569412 0.8520545887890809
Ni 7.816223845296078 6.335525343769343 8.585559683870919 0.8589690565207272 -0.755448472827557 -0.17100792791186678
Ni 3.5137227494460435 6.41398542092737 0.8022799325362845 1.5417316716477836 -0.32414900284564174 -0.8779551107049267
Ni 8.275757075905489 7.957552693573599 3.674054900699597 1.080577837308597 -0.0012852944703268187 -0.6301874121335018
Ni 4.794363906624276 8.903176594743222 12.938424801200691 0.9597912674461276 0.4427966719882374 -3.782322092653538
Ni 0.404350078172308 1.0782246020475814 9.14837599204181 0.19289367224136458 0.17087731587127344 0.07700762500430608
Ni 3.7939559606123168 0.34418274327252935 7.886345557705507 -0.11694277063634698 2.2091615130725115 -0.4457074178771292
Ni 7.412808126492826 8.365239236638603 1.397514407838134 0.9728352451142793 -0.729187482248499 -0.7800071360035276
Ni 7.969870944337297 2.0038278488722687 4.149359408762937 1.0289290027840539 1.0908455377831923 0.5626381043286182
Ni 6.044409923185026 2.8104075129960937 3.0093421341107227 -0.5674653505139324 0.3040139226586635 -0.9614719975826603
Ni 3.457232239887768 2.3802851551411908 2.5862545138607653 0.8951557908539294 -0.9173595806444782 -3.706413614250681
Ni 5.514454716975732 7.946633184380344 3.345752536723493 -1.1355482800072056 -2.2072709809180178 -0.45103885739237154
Ni 2.3343225071364473 4.807260303903756 2.635087379568058 -0.7549705047498739 -0.48635964418085265 -0.5213752410240892
Ni -0.015634200780027113 0.6209470753441055 11.639845249628722 -0.43400169940442673 -0.3567822154996307 -0.21859981875821707
Ni 0.48148321582717524 4.063111138540686 4.9739175645388505 -2.213578411193285 0.7865842750004131 0.4011923661838897
Ni 6.669376981802584 0.4451289899169917 3.0873275716291797 0.5935959861627131 1.9376633036533664 0.7951067106491274
Ni 4.913378164381335 3.8800904665201728 6.9978332073514355 -0.1496690572247745 -0.7680800455486385 1.072261861243734
Ni 8.112794358005122 4.559972119193307 2.776344425778295 1.3321733942665444 -1.0150743562891487 -0.0765527968550746
Ni 4.876871009392783 5.806959554186689 5.706063662238763 -0.8974489577634802 -0.3270795462288754 -0.1364103924426554
Ni 2.5666161822117513 5.836584900648663 11.207394453306222 0.3323837320506082 0.5190607339582997 0.5473086730603993
Ni 3.7918298734252445 0.36466031986380903 3.4390364770450703 0.1972295806125571 -1.0517984511830594 -0.565529052723168
Ni 0.24839598803423965 1.9685515864657064 6.098444242545604 -0.218121850680534 0.6425839860256417 -0.795117766392721
Ni 6.238359429342596 3.1765141316437404 11.580953567041188 -0.9884189584851494 1.2955716838831106 0.7811872723545579
Ni 0.0009502117735206743 4.618868464252743 0.5502164441043443 0.6821213819986316 -2.674763870101355 -0.39792912205158565
P 0.7589245388188456 3.371228283193154 2.31454989629667 -1.0527356182853482 -1.0366507969083438 -0.8119327810675308
Ni 4.871854189626795 7.211678413606983 10.93851529371442 0.5420865054295116 -0.42229032450476955 0.23879583409011773
P 6.793146960899148 8.210006897150883 5.070763633393156 -0.3554979494705684 1.6210813145217051 1.5479087469927728
Ni 5.425270954444312 9.194832862068111 9.565363234055877 1.070004432668125 -0.2646269362206088 0.14488603401383435
P 5.645768575608884 2.277337775556615 0.5292968651768047 -0.007725907889347984 0.39170525262906086 0.5268349785870798
P 2.728124208878857 5.754749193833969 4.588429982691151 -0.5674180422157648 -1.402348055509417 1.9246190688748983
P 3.7266018915236043 2.35585380237746 5.83281296088037 1.2831766526528674 0.46177784107643044 0.36893787702555814
Ni 8.344351362519994 8.393754914788026 9.8372179832152 -0.3685547826545265 0.17385413911141026 0.05461974422740916
Ni 8.648213981282945 7.5785869774216845 12.660060308772529 -0.5791188755924607 1.9137993525515749 0.32629998775037355
Ni 2.3338469350024966 6.891842166109577 6.678074356887595 -0.08489808349597638 -0.4168478133329595 -0.1732393883455468
Ni 1.0494571504154786 7.275489004050574 8.782718835685467 -0.511345624702229 -1.0227907510967997 0.1852940055172357
Ni 7.667416392088591 1.0085859217271458 8.142981998578414 -1.3441051127071237 0.7174154293142354 -0.04483798225029697
Ni 3.3991844647144003 3.3558141510868764 11.741836822473497 -1.9773331114391626 1.1867790531577238 1.1802595068716513
Ni 4.069293576282042 3.7265272919731807 4.137650076829572 0.4815588803580997 1.659614951820529 1.9499827444506674
Ni 8.77350392621939 6.457794006913632 1.5915748808269603 -0.2620859149663099 1.9652970062102344 0.6354998254853508
Ni 3.1190445029861555 8.751086761317096 0.9792291336466964 -1.0748350212875488 0.36774308538650863 0.24203465274238967
Ni 1.9847583387952348 1.9436353366242223 7.394594646256903 0.8901801920162089 0.48703327320910955 1.2086678828110153
Ni 2.5823380374635265 4.010005583582882 0.08878092495913284 -0.024683875899925233 1.2698056306626002 0.8265479598775443
Ni 7.123902717589808 6.193133451898286 5.224357580254697 1.8479857964908752 -0.7549651054332353 1.3703167381054853
Ni 3.0144559332922607 7.026112031928265 2.9839167423375974 -0.983419962608661 1.6202217947348871 -3.2692373737730147
Ni 0.43619942373128606 6.034870505674607 3.8651808138736348 0.9445477110234959 0.6563311604084051 -1.1743811937140032
Ni 3.5293140554845768 2.572323047819157 9.155213040838133 0.3173669469268018 0.046466261882339335 0.3071108164164324
Ni 1.329764961132176 6.395093084782592 0.24100037510411948 0.15696944754092967 1.2494471216109062 -0.9909808056750546
Ni 7.221441629768673 7.985350351050195 7.346035001403037 -1.6642082276181662 0.09674135598780759 -0.5192278556637833
Ni 8.140265642448615 2.614509093583706 1.2602316526767137 -0.4563564129505431 -0.6190956730957144 0.19117129023361915
Ni 4.405700248917291 4.3883465285 1.7269907822390298 1.182334387122809 -0.09275691741876282 -0.9691115164057892
Ni 1.0440207081783583 2.2309928048559504 0.11361698028391168 0.1862432568043825 1.4311917192139867 -0.23449077895686068
Ni 4.679900221443056 5.269572367766444 12.632231878981383 -0.1658706066853014 -0.6959099511422918 -0.25002975513272424
Ni 1.0728720843046877 7.7174074158162105 11.122709043665346 0.5456621385959118 0.35681718250262423 0.1550730018491652
Ni 7.343971391339444 4.46681593060183 7.24472601444464 -1.2636563232317526 1.7857378462942473 -1.1490362871913113
Ni 2.8763908153457733 0.5235750796593143 5.593290589369018 -0.30953768069037013 -0.4264017755699818 0.7630185718653312
Ni 1.190403675997078 8.940765443212916 7.2457359058585 0.21856819418933326 0.8003018816968217 -0.6326119624145944
P 7.115118620527429 4.096205364097358 4.584076166429554 -0.147778525070281 -1.6615597342517257 1.5689642821114915
Ni 5.355930672325571 0.3921903514532603 5.480530571420598 -0.20264355253927677 0.21925802116750628 0.06502808404492673
P 2.4514624511891134 0.5295915334009781 9.595061315079516 -0.07914755416544433 -0.012663711510597545 0.5773890373855475
Ni 7.3861014874411755 1.456826645391182 10.433580776717207 -0.7319732725237523 -1.4178929452225517 1.0652841443743202
P 5.64082635539332 1.91120318207756 8.816306350769313 0.27837385349305604 0.4546049774770751 -0.036789143803891484
P 1.1243457740969756 8.462647599604226 1.7256256104662777 -0.3373922410087931 -1.3476642908132919 1.3903335475470442
P 3.27271025191498 7.627869305420278 12.41207648325438 -1.3583492813309639 -3.0496078281987025 0.28209578242933353
Ni 5.390610138328745 9.290907758069912 1.2191534102359554 -0.2054537682945623 2.0531595716511735 2.7222254060174276
Ni 0.7192944601506855 4.432938409765709 11.630660179982817 2.255321556568342 -0.3775418166444853 -0.1251348195288361
Ni 6.845264071813839 5.629431274066115 10.466581752835848 -1.6167261228768028 -0.1443730989331578 1.1134681602787146
Ni 2.4087728584592054 3.987961416432706 6.223186813280815 0.19999763027599748 1.121251146658243 -0.8329250670484817
Ni 4.440696763009765 1.6439596176287963 11.271212503704856 1.49671679749999 -2.6746414855908776 -0.9670754598123666
Ni 6.335525343769343 6.861312300098716 13.058718441247516 0.4850522382233388 0.6803578623403056 -0.7860592557348784
Ni 9.149215236984075 0.8059856652035772 2.6303652280262435 0.8477382208019142 -0.6545223893344405 -0.6671593613721606
Ni 4.194490271780458 4.59253482295321 10.222705565062899 2.1726595614917357 1.6038556946720377 -2.08417581752703
Ni 9.553684674437061 0.22912785665420266 0.21355147052575385 -0.7896719127868013 -1.1388416060464968 0.4134269605768687
Ni 0.5389444520353376 5.393006648886103 7.4640486926900405 -0.8137106989035598 -1.4152012573230013 -0.6166112161109638
Ni 8.41396206800902 0.12671106637201504 6.232398925263751 -0.30710927375453556 -0.673520270593182 -2.6093745460622677
Ni 3.4948677130764767 1.6595509236673296 -0.13370570671860835 1.03963893300239 0.9487668913111661 1.2358076764506007
Ni 2.7701237557673473 5.100912109202476 8.202419190378423 1.2645870625761382 0.42734742731270275 1.2327874015670381
Ni 6.659641740472303 4.608489801800059 0.7048333373010696 0.4839880586248826 -0.520973120489664 -0.5920229852486385
Ni 6.864715904586794 2.3970047793798814 6.178857895430349 -0.24672485912920736 -0.047819176365807965 0.13354104131466032
Ni 1.4525091964104158 2.2470596830284344 10.960324472280762 0.7429243722186173 -1.1820155703308095 1.4733470124257981
Ni 8.307042262364387 5.442447500929348 12.322626959824575 -2.5581445442426975 -0.18084471149663048 0.5615628689865684
Ni 8.438384095828948 2.952230583295171 12.244533352958003 0.1394995728909404 -0.8888391046072821 0.4548284063417909
Ni 1.2199544229086288 3.727963333318835 9.419861473426536 -0.9046228498041 0.9713432339497852 -2.3110221925647556
Ni 1.8494813790458293 2.5832425570124125 4.0112560585468575 -0.8606006785868793 -1.574309348473489 0.8739089656600112
Ni 7.606645733324762 3.5792211547179686 9.580785758611576 0.5683492957807824 0.15073426526449524 -0.6979866311656624
Ni 3.6138446710583247 7.705881785275763 4.884659202457008 1.2220587022956244 1.6882547270444084 1.8735875562193798
Ni 6.040428172181166 5.503367358794024 3.313829524108471 -1.7540767677455402 -0.25922916224380516 -0.4665559791913643
Ni 1.0893399350606985 9.027869743276279 4.505504189945891 -0.5811793576659152 -0.5064397027601794 -0.5774790259961925
Ni 7.188412678818621 0.9229335154139028 13.381288762267944 -0.2588157288554704 -0.28758534478899506 -1.299095637875969
P 5.927978674861384 6.521035775785244 1.4298458529917244 -0.5640930916075899 0.6823268131412185 0.5725494499050592
Ni 4.537760103054678 7.76557075055845 7.074398455928704 2.0077353778801035 -0.4847953850175264 -0.4603387946370588
P 9.116941606482063 6.075853633688575 10.33464592045104 0.33408066013705695 -0.05602793742884544 0.25959503022365615
Ni 3.3975712494364894 7.744748151046461 9.048390214609052 -0.9767641478550405 -0.9398595615192071 1.1873698926641874
P 6.789920530343326 8.738889734822836 11.397334233628525 -0.3408542314154646 -0.13522022878929615 0.8942751880211888
P 8.815335624119427 3.1784070952357397 7.708171058979388 1.8896980886279973 -1.1245784112592634 0.9324717536955683
P 4.899819696091844 6.02814722119268 8.35650549427276 0.06572202478815777 -0.7080046775232968 0.3256443564442456
Ni 2.509612800744314 0.18520923633106554 12.010920198334581 -0.9014447091864346 0.9857308701300248 -0.5795785888376986
