# total energy = -340888.3701028825 ev
CRYSTAL
PRIMVEC
9.07947401747094 0.00000000000000 0.00000000000000

0.00000000000000 9.07947401747094 0.00000000000000

0.00000000000000 0.00000000000000 13.28872799187048

PRIMCOORD
 96 1
Ni 6.248920633427554 2.1970873982150785 11.290342065747184 1.142251403058994 0.3826421139855281 -0.08047655738951302
Ni 4.810831851045711 0.3467668967683383 5.800914879477263 -0.19255968594071354 -0.31380596904842084 0.1537601965750126
Ni 2.627899352550519 1.6495224897436302 4.73555756521011 1.0460947159300629 -0.5818946385653849 0.6800650136902352
Ni 3.8481715574595556 4.589201894559206 4.951127880854372 -0.8389450479903164 -0.5574881846965624 -0.1357406200691404
Ni 3.589815129281618 2.6576073909619833 2.7203883207908066 -0.5433679432450965 1.2309806873756024 -0.708375173488838
Ni 5.265876921065808 4.351192567261492 2.4595704472542663 -0.12661988871479485 0.7958818982522552 -0.5141995492112563
Ni 5.299135033749547 4.638585152786576 11.194463729921628 -0.5320316922966709 0.585039869062586 0.38305631870481127
Ni 5.564882153634981 8.01433352729219 12.447883277933531 0.11445522832780287 0.17235852840249025 0.12845925591637877
Ni 1.7363313391482782 6.596564607369042 0.06440252385702855 1.1302451226267374 -0.008401593800133916 1.8084638271368532
Ni 2.751062415219074 1.5030524177223161 0.4568636886306772 0.6117330620830561 0.13525159624786381 -0.643178167966215
Ni 7.79650787034554 0.22655466309847727 7.044381508263417 0.6003754709783918 -1.5485823760210298 -0.024034158131068285
Ni 8.649252053598813 2.412979127233353 1.0738302792566334 0.7691131147988431 0.05363963970232698 0.965604531693795
Ni 7.0206305126397766 0.7842286577457582 4.473119005592748 -0.7829932152150451 0.19446975847923284 1.3239756889471004
Ni 0.9680807394699084 7.4037389114086425 2.3565302224620344 0.40516703456092157 -0.24686909801655546 0.07286249248768097
Ni 7.93020312267097 3.8371490762152045 3.343869433898494 -0.12617251676473107 0.06417010692000562 0.8719968362389627
Ni 7.753997773816666 3.87247730893495 12.440694150545328 0.9933796449245343 -0.1962024248996234 -0.9936143866431596
Ni 8.230960693691676 7.615000108767429 9.064068698866565 -0.149240197217472 -0.1655834144621858 -0.019295615004818384
Ni 7.040823262464683 0.7622844774167032 0.27305972811789025 -0.9842051775141177 -0.316951456655938 -0.5482486683761655
Ni 2.0407479381273643 6.536186106318848 9.33697861566606 -0.5393590791960196 -2.7343242461634905 0.4232526884180388
Ni 0.0277886376412369 5.098832761318217 1.1091884742400577 2.1149354673073897 -2.0566110205348838 -0.9865284263306557
Ni 6.664933045400315 2.1449893773089106 6.772175250686686 -1.9344321983105783 0.6378685828278434 -0.5463270258734203
Ni 3.5606790977222085 4.451902091118448 0.533084055640628 -0.6221398592386769 -0.2626582425300122 0.6619047978414406
Ni 6.349947938868985 5.694564278522189 4.207078618702212 -0.296384945358496 0.5974809230394162 1.194127265992679
Ni 5.625996092066389 2.9212843908114117 8.754121792370235 -0.18680427151417506 0.27705513468163256 0.8425307084590458
P 0.12897120208536816 5.564909392056507 12.143690941958345 0.20532675579839477 -0.06381503757343204 0.43971829017322983
P 4.094034629630716 6.199401183092552 12.51763633572573 1.0445826501609106 0.706597512763125 -0.20083246747246705
P 2.54712835325089 8.472856035793825 1.2076608157423117 0.4327344026562289 -0.006846590608188209 0.6469790297695438
P 6.56022855305282 7.842531723251319 5.779373827786799 -0.2204597547850913 0.44908816142390395 -1.0412073059307747
P 4.822326464929852 1.177825664697058 12.627879307116926 0.22968924380315928 -0.8950264643649166 1.0272403022277212
P 4.201971414666011 6.024457881102305 8.13897382035486 0.34643506793735174 0.5175355555630248 0.3946198551726946
P 4.727809142233232 1.250134594375817 3.736777308785176 0.9417621778585586 -0.9803523794269309 0.9939262614566235
P 0.31147770578611406 5.5338394325687235 3.5028555606111906 0.45107331017473284 0.9303500793668751 0.48428142149558534
Ni 0.7824436331883945 0.012049369735896714 4.393040770147275 0.6516892907610196 -0.11904310480880145 0.8998197719885019
Ni 2.030197589522804 6.615468071908366 4.832034238361863 -1.4457809298820714 -1.048712098948252 -2.1521272458663385
Ni 6.190448821884208 5.889573217703554 9.120944338908465 -0.2095215106060327 -0.5400357935480699 0.2700892448867606
Ni 8.506223102163668 2.364086160593459 10.148906932209403 1.7633725912251694 1.6573629225615587 1.8178051591424371
Ni 2.4588758675053426 5.574760621175224 6.979319814605449 -1.5572881313251439 -1.0341336869134448 0.5319064795727162
Ni 0.6226367220403692 0.38913081376835373 8.943792000932426 0.9706441510002316 -0.6860292016934701 0.6421975492205004
Ni 1.711807680300673 1.101222143890969 11.34167650290323 -0.5235043715519501 1.4311629228585805 -0.6819809997660256
Ni 4.465494063460124 6.570433881651379 1.3679416754248965 -0.25802897128811686 1.6155737544399145 0.5219015458412044
Ni 5.627230900508919 8.05628069644285 7.898022743532293 -0.33897295523235166 0.47289914780057263 0.09340175009161333
Ni 5.554159295027421 3.0859588078862052 4.565993851471326 0.8161599317750008 -0.4907292340034581 0.11942337096635561
Ni 0.47022231849460966 7.771185217799826 6.6001119577991645 0.6923209482394528 0.21057771978468898 -0.3134838098223117
Ni 5.611232867599078 4.652740052506464 6.934137628924835 -1.345459055631857 0.1015043245940897 -0.2294511596504242
Ni 1.018744203509019 7.374058111418705 11.350447274634732 -1.1052280317571095 0.5341417966611383 -0.9644256808943454
Ni 4.75978704910523 0.6738712849841499 10.422999904450528 -1.364532013102908 -1.4305175759650977 -0.35225501705323853
Ni 8.247385461872097 7.460885119771037 4.288989999916413 -0.6173349816508659 -1.26325934490365 1.2371531347349018
Ni 7.336841348139796 6.350647058354829 7.159634533320704 1.4174049498425396 -0.18049041348100528 -1.718773464458556
Ni 2.3917694763381268 5.203900432619398 2.7451988910118237 0.12830987482270806 0.41917800412803297 -0.7021775293185584
Ni 2.5565074497298155 5.060771606971989 11.659954734597104 -0.9274303346169189 1.0508764535894224 -1.132099659336973
Ni 1.1994348124413379 3.327490971034668 3.8597642296611934 -0.07391895877665335 0.37307143957795746 0.04269625331694583
Ni 1.4187676620457816 1.3105494133213802 2.3853403009105114 0.15440605768912763 -0.3940351863138182 0.27331880756765187
Ni 1.1710342182631412 3.842260819988326 8.243689208070965 0.6567998725147075 -0.6915290484657768 -0.1281869760915986
Ni 4.042281628730549 2.7568641990041978 6.772214292424208 -0.13545831294203123 -0.15582067864846713 -0.053290998113656604
Ni 4.059823172193553 6.752268504287807 5.9118887485127525 3.02182165922437 1.578053131786637 -0.07791933818529806
Ni 0.732388493896707 9.025033316977076 13.500284183027958 0.2358814886568002 0.8838293100975166 0.17036258101838403
P 0.41858371896485386 6.140248411011046 7.934526768114595 -0.1977098626830853 -1.395757546776093 -0.5108851401260427
P 8.677825157780012 2.0182126840511865 8.074257146702893 0.297270690397559 -0.5388672271612656 -1.7168371666677915
P 1.990710957783361 3.436499133983335 10.472700036314988 -0.5163793304713946 -1.6520682498215224 -1.3110001026230391
P 4.2065747079039735 6.175313338989369 3.525193790104994 0.3561193851046512 0.4378429275273879 0.7616404605708817
P 7.029392204897436 4.025539078965654 10.103299827152977 0.011043659408671302 0.3155736024718049 0.2033421212681982
P 6.274007219653371 8.041962366193804 10.105053981499276 0.32429092774014473 0.0925154908319181 0.41061365949778966
P 2.5596307887315097 8.395616951818786 5.713860884278878 -0.36050311599464363 2.4866048843314985 0.7478655182739765
P 7.144783237957124 4.0579346416343895 1.3334042648768012 -0.9659634576951106 0.5914354881762847 -0.8188343932833705
Ni 5.528882039850918 3.3399661680937607 -0.0956504410321187 0.41948036585980014 -0.7658853518901649 2.0538139174057206
Ni 1.4737257172122218 1.2949054798913824 6.854803910334416 1.0802225108517074 -0.22781156716447218 0.4166423821903728
Ni 6.961949873198061 0.9545977208143386 9.369190772963185 -0.9512505769649681 -1.5714687937009 -1.7403105671993835
Ni 2.9327517662740274 1.8993532919838034 9.029185360365085 -1.0303469661775029 -0.330657750498437 0.4260485059956211
Ni 6.453726324884582 2.1842762606238266 2.1825938341208793 -0.35324103511559163 -0.9035753823761922 0.9756572879441067
Ni 4.2819161818460065 6.913565357093326 10.312558092582188 -0.11934469520962028 0.5924544163591022 0.259164884664773
Ni 8.230361448418094 7.574006284370191 -0.23781865834702937 -1.2149102641763014 -1.420668965305792 1.4314071776589026
Ni 7.785912124371769 3.9429249464760714 7.905078402655016 0.36541340881206746 1.080185744076501 0.3467256025945771
Ni 3.077678327742179 8.488808671334455 12.211397486346526 1.0985488199647209 -0.6865354519059274 0.7605922218120256
Ni -0.17090293613049798 5.217274497588861 9.822735005957178 0.054805377875654 -0.32974706575870955 1.1096390163406116
Ni 8.742834190489694 2.236129135736257 5.762324391806039 0.19466979030518086 1.0493967837201024 -1.3469035013878674
Ni 3.661279667893059 2.8129662678747467 11.95905802548377 -0.7052147734829854 0.41345858514575246 -1.8894839157346621
Ni 1.2541477218140407 3.3473114624320472 12.77058684517806 -0.4589647971076677 -0.09834161059539193 -0.797355397473988
Ni 2.989825338845685 8.003901211847577 7.92683282198077 0.6491670385597981 1.7994595667557136 -0.8847957877758439
Ni 5.655531620474853 8.16440815042883 3.551824794831359 -0.6106861088757806 -1.1573628047791358 0.6702801663893294
Ni 3.0988788991635627 8.611399727150955 3.372107505494917 0.010917161133136037 -0.5325117172568828 0.49432029378882614
Ni 3.784134028450981 4.202025891509065 9.389017619992254 -0.6781243450240967 1.0730025960645004 -0.4254273274718544
Ni 7.2890469978348 6.474046187343278 11.224616662551359 0.02387115019064276 -0.6116325319494499 -0.294349402985706
Ni 8.215570985529258 -0.15016541787506277 2.437590856977227 -0.6051073292364224 0.3106437692703553 -1.471989212846323
Ni 4.614842328689393 0.49975149127138374 1.7217941935796366 0.3433615712183506 -0.7165553953067852 -1.69548364069268
Ni 6.311795989784335 5.685684553104581 0.03228479308786191 -0.1659899058719851 0.5969024248281268 0.5940482432087835
Ni 8.359807506985407 8.977638463521135 11.072021577476141 -0.5426848011351427 0.2964003719774637 0.3091268184051967
Ni 0.2903924436825251 4.8290815934684 5.724438471304964 -0.24124146741713293 0.46120319951988314 0.4076723174812786
Ni 7.769469197243663 6.391304942219907 2.1080967512461655 -2.405388363452167 1.4020446653363854 1.1598241218354348
P 8.683209285768395 1.6174447086593688 3.5294329964418867 0.16523502998383155 1.8352328677005814 -0.24929621940080934
P 1.8125353631053134 3.452996537954493 1.587950037883195 -0.01412641209905309 -0.9243815204882662 -0.39416914078852117
P 4.626001002041377 1.0902359805419861 8.066576819779831 1.092992666033182 -1.0213727877033507 -0.6289239720400459
P 8.823505315577059 1.5556407302159592 12.376643002325991 -0.28538396626230206 0.8140734815596172 -0.4257255754385636
P 6.3193319530733065 8.031711640226034 1.5083366714984385 1.1092914031932057 -0.33178517923466083 -1.587558500173911
P 2.168260068766301 3.5315793840581673 6.023913112671776 -0.9213579031705937 -0.6538593018291448 -0.09523751774877146
P 7.239037255912323 4.1631929818862545 5.645118371925308 0.0482565210135427 -0.43762361242773024 -0.08431984239500318
P 2.3986698764581487 8.46106179927289 10.088828961743383 0.5889713429065083 1.5711476629160555 -0.3382083091521853
