# total energy = -381161.5904858538 ev
CRYSTAL
PRIMVEC
9.35688716920211 0.00000000000000 0.00000000000000

0.00000000000000 9.35688716920211 0.00000000000000

0.00000000000000 0.00000000000000 13.69475018078532

PRIMCOORD
 96 1
Ni 6.470745886659132 3.4925984469413174 1.6310860017732647 1.2991144069290466 1.3496155010023918 -0.2697084645085742
Ni 6.4670592731590855 7.809482502189999 2.8927555527564572 -0.6881318498587697 0.04276850131577795 -0.1624836924909395
Ni 7.146425414743808 6.324797162360334 11.472927414197306 0.4024699473447326 1.4975372365187565 -0.5977334053698544
Ni 4.514014951743557 1.6886186932142195 4.497574901186243 -0.7146008426835758 -0.28765553590529813 0.3001472406144056
Ni 3.745515104063801 3.77237872680145 3.4803568316060103 -0.3180115224893362 -0.28453653066034224 -1.334733955904869
Ni 3.400330183682538 7.870826253728845 6.831516573809501 -1.8281564204697742 0.8844749141013155 -2.5472214695722903
Ni 6.530498967398465 4.775343450329345 7.214764375045686 1.6200718994205838 0.3522946120419223 -0.6762600381218482
Ni 6.050125742832754 6.734142257284286 8.987617508292441 0.725712379215705 -1.6035736446552447 1.1556923590552484
Ni 1.8626100080197163 6.432279723972099 10.526921804933837 1.8272115400580016 0.7594989887478468 -0.3451068360442315
Ni 2.9207616514036387 0.09062987233528166 0.8061650608348006 0.46977062947391995 -0.07371944117133755 -0.01633087594953962
Ni 4.041782218916527 9.044713233107883 3.054175889802278 0.38633987455208946 -0.27813474089905643 0.25314104706819623
Ni 7.782356886614783 1.5131770609150494 0.9245521386215749 1.762451622072797 1.4885877406349526 2.530633483306622
Ni 0.4660450234169265 7.86019683003328 12.184904178549445 0.1730768946257535 -1.8291892326096626 2.415773563341233
Ni 1.6388868385118147 6.851449550304803 0.6110571233214229 -0.2576703023971175 -0.2753317242326226 -0.3691497359260481
Ni 6.643464664825019 1.6740593769551524 3.332726674703258 -0.7158419141795284 -0.8016213718391936 0.10050673656751076
Ni 1.304003850779159 4.609595553020145 9.28106913583003 -1.1051041045847356 0.9125765574335379 -1.3107460776307038
Ni 8.229503805244796 3.316080772630712 2.9690357031027252 1.4850982394244552 0.0870135871770824 0.6835992520957388
Ni 5.208127547328465 5.694732458673443 3.85144348673557 -1.050028246656514 1.1734144589253597 1.0308383039916247
Ni 2.3661321711618624 2.699508700078509 -0.07354138950498969 -1.0327553185086795 0.48485503461086826 0.9296425117768894
Ni 7.579041087775922 5.665585755494141 4.064176992396252 -0.07680810739899031 -0.06862351470566891 -0.4117472588816006
Ni 2.3695193642761185 4.040210261891127 11.406166025053063 -0.914951742533934 0.8371720152502938 -0.027074230508972726
Ni 3.3602265657607115 4.602615315276402 1.1849234276615386 -0.18039862509814736 0.8282117207332124 0.1536357551820064
Ni 8.488530509614819 3.752626338226327 5.643113319851852 -0.5133508280577158 0.2920798902252389 0.035188374975674876
Ni 5.6304319308249156 5.754167405252875 1.650436044204981 -0.7961703760269514 -0.7487780027859168 -0.43763106862689793
P 8.597182682108576 7.318292716187602 2.8310337829805508 1.1697722341870822 0.11833065212280912 0.553142506133357
Ni 1.021612999430415 3.484701234266091 3.890883701365129 0.5159697537378016 0.40212284841795903 -0.6688346921920545
P 6.882907404586926 2.204791367656018 11.704012582440834 -0.3162102076145393 0.6567363662666238 0.22411329237727853
Ni 2.475916526989391 8.67030675445087 12.219606065573869 2.11942229943415 0.633067047674142 -0.07718785933591223
P 8.298978691635268 6.111544349468048 5.958366494229819 -0.15531160022253251 0.36987273013500166 1.7639312919421168
P 4.725199892596478 2.6584506796769753 1.4402083128978842 -3.548652266936075 -1.6825278518629603 -0.018668008723148496
P 8.06164125146095 8.356869751850464 11.36039774770756 -1.4798948408466448 0.8521700313210228 0.7934979714011108
Ni 3.1241055209036683 6.2066009650695015 12.314168637538769 1.6726327042364353 -0.050998859645370244 1.8581771352015803
Ni 5.749947449190638 4.464863224038622 11.063495300223734 0.14060540436060948 0.3824837340307929 1.1286813776840434
Ni 9.088437966320365 1.5195584578872112 4.710445953086647 1.003364524051388 0.518309714724888 1.0774922564047378
Ni 6.914178121127931 7.048870510298413 0.31797883557736606 1.0789482721249741 2.0552763608838607 0.32112821374144696
Ni 9.19392751098921 6.932236913145926 10.062874476903357 -1.47677377871916 -2.142748118644284 0.5237206013278142
Ni 8.006866034635385 5.563071700909091 1.7295232606680355 0.14580494628367793 -0.9684826245725383 0.7050152558776698
Ni 8.431509639895824 7.317665804754854 7.986176085977256 -0.21942102910793176 -4.31698633747705 -5.158028891426343
Ni 7.48797986294736 0.24859377530263196 7.35427275398387 -0.00022034354092220114 0.14979529838999364 -0.40109646403597377
Ni 4.124899446634582 2.886852292712855 10.567403441092724 0.48583873868037614 -1.0091263662358299 -0.0387642652523913
Ni 4.490566592781332 3.4557416688279075 13.047139449378356 0.9008312439721518 0.3263760924039476 -0.18439309096952117
Ni 0.3170496966927097 1.1036916126852587 8.232995795494078 -0.06255314014187291 -0.2234877429781377 -0.35667448627717285
Ni 1.2274083733391052 8.244652605388389 8.619613011759114 0.8468982413991221 -0.11108991139999577 -0.21877568221444904
Ni 3.663932405822923 3.5099835430912827 7.488166064999774 0.45592138229565354 2.05489249518188 -0.43800310725433594
Ni 2.170507733482996 1.7489519009510222 11.495386750197717 0.2583015082232132 -0.4555071775763703 0.6644252502704492
Ni 9.031913011615336 2.308952234362917 12.165621505704532 -0.07173557797208935 -0.6733048121482662 0.1167586796499989
Ni 7.1120669254743385 0.2177609610758466 13.15657385762999 -0.2490990157883387 -1.492023505789379 -2.5735426239653227
Ni 3.9483256310016417 4.962687042963691 9.373905362133106 -1.3582886032963575 2.0341321227060774 0.3116454710619923
Ni 8.17692745687738 8.758345704760359 9.307924337369329 -1.2858616556841984 4.844969570735959 2.685627038068104
Ni 6.055393670245258 3.711418607631898 4.863471291065864 2.6052106444925647 -1.1838173994262386 -0.802665753943308
Ni 2.4883424729997 5.184978608752031 5.125301318797851 0.4289224851093065 -1.3465468893793973 -0.6310934688875389
Ni 4.96282739626953 8.531534762523991 8.151676961468178 0.512069390242131 1.8604031963186218 2.7231463751698004
Ni 7.51338381130428 2.6026836328234793 8.027629902701257 1.3553074091808466 -0.3471680894486343 -1.1369551876570612
Ni 4.41285764578162 7.758440683299761 10.560213609078927 -2.6789424269590767 -2.149034208763312 -0.2860761072333202
Ni 1.8222911816956033 5.962919555471246 2.9559847170370785 0.6048391631767003 -1.3688710067978942 -2.7198772175002253
Ni 4.606816557564526 5.942156623094081 6.779832872467224 -3.1369268624313458 -2.4493693970188075 -0.026193884786548435
P 7.545225297955698 5.057275814212348 9.204255642921574 0.20154132061403357 -0.10911607550307659 0.9777535083515032
Ni 9.048091069335083 8.352836933529348 0.9012600396731844 -0.631759641716628 -0.38314502176387566 0.1967611256165708
P 4.159257935904051 1.6436214233621285 8.127642861376252 1.1735309298985659 -1.5894618878442108 1.3815501449274592
Ni 8.469405032472444 0.06955441993044695 3.2256754655847737 -0.3541373216776159 -0.25788524662140105 -2.068534511445347
P 7.157064195326429 1.5546654981211572 5.60439826396913 0.12305171174756227 1.1927347565205264 -0.41816473237217017
P 1.2713483149538736 4.886026067314245 13.043057975244547 1.4059398866257335 -0.20243169363878685 0.5034083721330234
P 4.223595891300803 4.107729558886903 5.523996404874714 -0.31083737333840017 -0.13897455362540584 0.6953931594068733
Ni 1.9864764788664584 6.007776472017499 7.124803520134905 -1.2428188176611112 -0.3750018238314509 1.4985980736831028
Ni 2.486471095588509 0.7593965322630171 7.211929238267732 -0.5567621051638153 -0.6071073903855867 0.3537380293566682
Ni 5.864372820997921 1.3709336638904104 9.433395514346167 0.43454420217145806 -0.8186433603184868 -0.05624570986660636
Ni 8.885861361558922 5.951766146100548 13.43150914137255 0.49833275738232885 0.34804046475125866 -1.489680459478499
Ni 7.682256908890168 8.259586197129693 5.139543436585721 -0.41336242588752037 -0.4508838198717461 -0.4191250394029104
Ni 2.215495646448031 2.6816744733498576 5.823569307924309 0.044002887943511315 -0.4674342680312595 -1.1814126466394879
Ni 0.1918910397435402 8.839235993359095 6.330001462940857 1.8878808329136003 0.17247911314075456 -0.11932824014938803
Ni 0.6986609783828084 0.19373621787097467 10.745914132346247 -0.8557392367295198 0.8801845142560776 -1.1168951836823928
Ni 3.779012759724122 7.241472673458206 1.3457159175859041 0.39169136867198995 0.08254500988276751 0.6312649614683966
Ni 5.0560219913468485 8.160852324915249 13.142892217376772 -1.5526717155990553 -0.400517194493736 -1.3707548540841683
Ni 6.019874926980849 8.982845495893905 10.98740790175082 3.7366279330505328 -1.4983116527909357 -0.9792743158714037
Ni 0.849068259363769 0.7965452452525725 13.664073633459624 -0.48695896832774843 -0.14536374498120125 -0.2520984647362949
Ni 9.236155142272738 3.653321695901469 0.651258052868631 0.013666441743499045 0.14726147622454638 -0.2957198009706714
Ni 5.188450013849791 8.224769220394482 5.121904768796539 -1.5077707413213066 -0.5662430480710571 -3.33934081545832
Ni 7.068529330002976 4.312317894365375 13.132909354576773 -0.41896126013153656 -0.6237881934753773 0.37405642919904614
Ni 2.9146328903819874 7.350405552563642 4.3629966660378425 1.5336113565334943 1.3446021069482004 1.004765775274289
Ni 8.469405032472444 4.387668905826987 11.21360409650761 0.6632168317846449 0.7102549070100541 -1.0259732625898392
Ni 0.7650443492899919 6.537610201560992 4.76660879626261 -3.02226928828475 1.4952420127266763 1.088851647281615
Ni 5.390914335966561 0.2611806597703036 1.1256381912750029 0.1050583604939352 1.3204154823996679 1.2241099283976982
Ni 6.1871947813154495 7.248275130347886 6.685352641108416 4.162486691632851 0.4495604730746322 0.7641771109498064
Ni 1.5243398271728046 8.542613316798242 2.876089065532389 -0.2604740903944998 0.08779160299368752 -0.34480190320930293
Ni 5.7627196000220176 3.588169691330849 9.032399569742246 -0.35374985643121015 0.31023573519865927 -1.1410681813841703
Ni 2.327956071973563 2.662408642901645 9.141327770404153 -0.6348336526562616 -1.9673585167249534 0.006182731771944191
Ni 2.681758685333361 1.6030218904263365 2.804137411138206 -0.48754312296599256 0.47047254063695104 -0.08165669374054324
Ni 2.9503668420486826 0.23938379137345472 9.840978707437483 0.8976754719519895 0.17675794302176656 -0.8848150710495535
P 5.561050613305004 6.002985745844849 12.851043424591868 -2.353662395832785 -1.2858434008517532 -0.059692016543993975
Ni 5.434676496727266 0.5786626446449985 6.396748816754518 -1.0919305433172548 1.6458783189607267 0.91700348285664
P 0.8274351364903991 3.796949912210389 6.993909091420435 0.6288175283691687 0.5269298522937313 1.2611297001551571
Ni -0.08775637232039764 2.758578728062758 9.67627223165761 -0.26300636989805026 0.054761412011596004 0.86062253296375
P 0.8117642220490845 2.111540631256363 1.7850694849870112 -0.23080947345053154 -0.23999242550138025 0.5216799167487015
P 3.14066721099271 7.104553345168406 8.805327570357017 0.33216878782632475 -0.46949012211902375 0.8295510083699261
P 2.4204114729734614 0.22135494139403925 5.134148255509258 0.18536213975100982 -0.4607596842245613 -1.3436050331422538
Ni 4.94295336816268 1.1571475084359337 11.85529847511635 -1.6092555255313705 1.6148196498827094 2.1010455966991755
