# total energy = -381164.02801209537 ev
CRYSTAL
PRIMVEC
9.27603319135452 0.00000000000000 0.00000000000000
0.00000000000000 9.27603319135452 0.00000000000000
0.00000000000000 0.00000000000000 13.57641221135619
PRIMCOORD
 96 1
Ni 1.642776170381027 4.783631672189876 0.33158849687110886 0.26119168528681463 -0.4510666253065135 1.3533055482594694
Ni 6.068325140211101 6.097767268990988 8.33688104964342 -0.10802489932142686 -0.4412851204397174 -0.44779746763693845
Ni 9.209653719703558 0.27663449449849054 10.242860018721654 0.4694556693366625 1.4196541508880325 -1.3248118116951506
Ni 4.806079672078764 2.6336049125840875 6.161097529173386 -0.8344463887890144 0.5632831941117847 -0.24148623643808728
Ni 2.983700950520613 0.3576652808742661 1.3893966906434627 -2.011235420613562 -1.0990224171670298 0.18471987818132057
Ni -0.09779628844155037 4.790384624222567 11.771767318261347 1.5594612277170627 1.047540447237654 0.06154732458517787
Ni 0.979697502588736 1.2581361855080484 2.4188415582752167 -1.146050207979794 0.12990755832713113 1.2570485881072482
Ni 1.7041000246229425 4.687884459440664 10.083405011246457 -0.4291070903162868 -1.4497676824439614 -0.28145943439691523
Ni 5.085436682266258 8.555220314678392 13.125267616355215 0.6736177154029946 1.0492355755518896 -0.2207405192503037
Ni 7.257382707879254 5.752884361607171 12.322141257355302 -0.16787889536458186 1.4360037958906493 1.7026930139569256
Ni 8.591879197141568 6.764816078912388 7.246084499670715 0.16808998293412342 -0.9321591075511558 0.29682357555781136
Ni 4.447774344926674 0.36166603391231444 8.308994511599634 -0.1836047907402709 0.20216969822665182 2.5685300012420798
Ni 3.6023103160536785 9.423336416166538 6.0582291058809075 -1.3396491338182992 -0.23652040779237973 -0.23698089236856607
Ni 3.6045551160425666 6.906498207136714 -0.04729849232786666 0.2701694633053928 1.1390223545987352 2.3268771573191414
Ni 7.632867248169451 3.56788695754638 3.290799792636907 0.43988669743029407 0.4582603148414753 -0.1612351647958191
Ni 7.24549083355795 0.4525507501566706 2.0478113690373516 1.0156793368629993 -0.6763654533514609 1.2655247438990593
Ni 4.442728182968181 0.06999045188496808 10.825057244269662 -0.40032641863916857 -0.2556946667279854 0.5170557877131289
Ni 4.486585267048619 1.0377283651114138 3.666541279041535 0.01767042069656957 -0.00014578154924491023 0.5143345321272238
Ni 0.5601230497895013 5.6751883090991875 5.134544928634753 -0.521258770050883 0.19001557936262115 0.5077095706115384
Ni 2.7945533613742057 5.690595799932015 2.4926296180752714 -0.7047997974327539 -1.5147759689945461 0.05002055489250095
Ni 2.4905592075070073 5.7837178953388495 12.108041139406783 0.24270339667464008 -2.6187912113904765 -3.4705028150178427
Ni 8.767873371477048 0.8753616108737701 12.76337524723741 -0.004285000528599072 -1.2973022934209724 -0.06697569468960078
Ni 6.176186852073903 4.340357882648444 4.9290928562632645 -2.0953197499589913 0.15129707974650072 -1.014567334745743
Ni 5.871821656886227 2.3707128609927817 2.1329764833265474 1.2360725000762132 2.8893417121843723 0.7277237532187789
P 6.958434715970549 1.2918174613743916 4.586003006060656 -1.136061472198198 -0.7851737678061316 -0.040367348073453053
Ni 4.782611308558564 6.723816012999627 11.379993136398886 -1.7384526880550382 -0.6800624425870739 2.025800977132563
P 2.118386211002072 7.389139480780806 1.4968261393679094 -2.198975573678445 1.0270760087357151 -0.9529487906029975
Ni 2.891543562547019 7.913532179011628 8.221373103768878 1.3977537512705154 -2.6125974238749388 -2.429707914034138
P 2.55431338239805 3.9746873852848763 7.9707931307943145 -1.2254816119342444 -1.067165420557433 -0.38940900039571646
P 4.650186661280151 7.533307585852332 9.504710415763755 0.1881291609731857 0.4639167417963042 -2.8117180508626225
P 2.6329277621742158 7.7882871812844545 11.54563896830625 -0.3724443475169199 0.8600491769587834 -1.0325277758789055
Ni 8.831358541410744 2.2096902039385675 4.719826479117268 -0.02938668069223326 -0.4893428951788927 0.9544626561443627
Ni 6.786206611037915 4.62968662832377 10.553623821480963 -2.31688147955901 -1.4340677552102012 -0.10239546894979139
Ni 1.1517957430592027 3.5365617940650687 3.743763326262609 0.4335550987853114 -0.1174770458732622 -0.9773657859947813
Ni 7.4442854970367724 8.071326776577688 13.549449474751478 0.45630550510794965 0.10868695838545799 -0.4328418747683706
Ni 8.135238644029934 2.2950853638464594 1.3037835439597902 1.2727539146576468 0.7793178232459869 -0.9539180964948022
Ni 3.446092644099647 2.7505571367985886 1.8674491107565503 -0.21443951673294037 0.17838236599906698 1.331692597975384
Ni 5.094128325198443 7.473653417552565 6.3919510903447625 0.2008867177491702 0.07647977752529408 0.6976930111846436
Ni 3.4040443864565373 2.437453918513668 9.95449690808287 -1.6480012788410006 -1.1971627103848932 0.8882994300537281
Ni 4.202070782506487 5.357901599925882 6.370745151276173 0.557989035592381 -0.7171413497172424 1.3035991821732775
Ni 5.754414907054142 2.1369104489269097 10.962341605243026 0.7957613135139907 0.12573157257257056 -0.37149509622977306
Ni 7.94969943172517 2.247221033504865 7.1955393957886695 0.4467142618750888 -0.32924441509067814 -1.5611861808279694
Ni 1.5795785574707004 8.79700011513453 13.198173525415834 0.4311171787677801 0.8771482985329152 -0.7807846375995005
Ni 5.10125231855161 3.4282919367497406 8.932491418926688 1.9570537923648357 0.15680695382113638 -1.443232709538921
Ni 0.09493184944746423 8.433388897099613 1.4534495537974896 0.16560089796368252 0.02069095269044824 0.10916004136713459
Ni 3.3617178478230687 3.4715460786844026 13.254936354225782 -1.8656593025112387 2.7635839143595566 -1.684370304388338
Ni 2.254038917768638 0.10171726759569615 4.170306862663712 -0.7741954144177571 0.742247914976883 -0.42085024962413325
Ni 5.514193480144009 3.760299710312989 12.708824752300812 2.803440127124546 1.0422416607325597 1.1203152651075352
Ni 7.16201581248353 8.420198378156638 8.774502952270678 0.7303249382870518 0.7925273799577254 -2.176702878323174
Ni 6.660943061244718 7.1742509000262755 10.420357838008368 0.8260962170521062 0.9978813894496298 2.172636421563284
Ni 5.684019092526551 0.517093387853728 6.608549243983394 2.166387612440095 1.3775461659743886 -1.382415321141232
Ni 0.7395577047691091 6.629673553961478 13.129042034187771 -1.9341894861721527 0.8703083927929464 1.1913677009696708
Ni 1.0437485105361608 2.7503530640723266 11.884614897868067 0.6079728237096755 -0.03253576784417622 -1.0850651836559893
Ni 4.305554206787656 4.4578666688436615 11.065617246384727 -0.9599229079279856 -0.563905658187132 -0.7850421273242737
Ni 7.520209827239476 1.4152072524991772 9.210970916391254 -1.5357805962706712 0.9063534593419615 -0.4196138061138709
Ni -0.001037988094035748 5.512950491720409 2.7230073187531363 -0.44815690785888623 -1.324743163240744 -0.543203135532458
P 0.22321938600255267 8.645745120841886 7.990587257638487 -0.10627063563448148 0.44542022565401357 0.6750223090600052
Ni 1.0435351617768862 7.29443118372893 3.6152355404525114 1.185186254749307 1.1017912381614186 -1.3848740670943698
P 4.893830944371688 0.8200189427179517 1.4290804874718301 1.712159301576148 -1.879604708947737 -1.1147092317746674
Ni 8.769979030970758 8.955175030054079 4.224789642559323 -0.6267719586940497 1.3848912934855504 -0.2843316137383877
P 6.056767203078227 6.378116814710759 0.35104126570044186 -0.2892223661717858 0.6562046621328699 0.1389627265508639
P 2.975463833206013 2.408048893865828 4.78214194128816 -0.23474891771425374 -0.6736760794447559 0.5537099486010528
P 8.097661434298578 7.393452836131358 2.8734478773473326 -0.9448032786777277 0.14646623401676065 -0.45429130289139824
Ni 9.00939344300885 7.849861488417693 11.49554189681868 -1.1745251754910353 -1.5278322879578718 1.044311398777395
Ni 7.853822354513789 2.91908410455946 12.52893742691022 -0.92864826618442 0.8509137903164183 -0.05443282502758367
Ni 2.9593142597322304 7.142424830762319 4.985475367719721 0.0158549647543856 0.36006551423659283 1.235376245340137
Ni 5.919621054996739 8.435021478909713 4.457760922067325 0.2879730671457169 0.7639068880075554 -1.015861370966818
Ni 7.88054660562118 4.360570358581454 6.209062968274811 1.1389153967072256 0.9777406528356968 0.5288795198209343
Ni 3.7313492112827333 7.7916451052347755 2.736502091578902 0.3620928290792667 1.2355505661344721 1.6030172579311424
Ni 7.530116630496225 6.671944436396875 4.842963962144129 -0.08227581538178089 -0.8725524516321166 0.41431553382940906
Ni 0.9243177303008699 2.0838051599335707 8.631787473968824 -3.3137110307053574 0.7553875376826346 1.7738711767636481
Ni 7.536350124680247 8.698432988349687 6.349049437664553 1.7268120184923164 -0.12823454150008237 -0.030026114048445064
Ni 4.48644612655344 1.7738186887406608 12.969736370844068 2.542623051568331 -3.5716237881305846 0.5617760134386389
Ni 4.566785848469825 5.000143558721498 0.9857222860299891 0.2569545072770155 -0.5068179120352045 0.37744720004814997
Ni 8.63537451593454 3.125744844032404 10.326802551859874 0.6765775693622671 -0.5043586518614346 -0.6594769051262385
Ni 1.8758550518719674 6.048715606423865 7.236309416082736 -0.12492116085613324 -0.56881235146013 -0.584040224153478
Ni 5.780981465600329 8.08613132526474 1.8475056397808858 -0.049206029411005575 -1.5445866245980755 -0.09382855321638679
Ni 4.880946534518108 6.224283083240797 4.136515202004526 0.4602999709793234 -0.45161812693460934 0.018761339767903173
Ni 0.13448392660706232 4.512734404109269 8.06427977429852 0.4977462887512396 -0.3379260020250761 0.42306294100473585
Ni 0.8106473665659917 0.9012973991751458 6.318978393846457 -0.29968778447948385 1.0011379487137146 0.31329817617406686
Ni 2.0990178540731477 0.07670351697570689 9.462039736305544 -0.3946257687099655 2.069195542068114 1.9525651604658631
Ni 2.9155035558168523 4.7576587797564525 4.605322200014617 0.41976524409007065 -1.250014306968286 0.1777907551616551
Ni 6.591734578942656 5.742420996369707 2.4431837241051415 0.4998304249737779 -0.3821836862918708 -0.013485950301576774
Ni 1.0812422359704101 3.6683463950656576 6.012341498174157 1.0194017800199087 -1.6123729881144293 1.7596231514850664
Ni 1.038424067587309 6.88440269650228 9.638342802540322 1.6520520518716064 1.5372962615842494 -0.1567593884126526
Ni 8.580441848437848 4.585235878130568 0.5917635983932185 -1.084528851536545 0.36101630818563635 -0.2227074131686874
Ni 8.340266801692778 5.96631660517883 9.606030669146541 0.2672471474522753 -0.5665528660019921 -0.2976887517715841
Ni 3.725533138584249 5.300816892770422 8.97543388615215 0.7310607880118118 2.4877953050951733 -0.005999669226860635
P 4.744449708747455 4.160922300065535 3.0056007368584954 0.5765580568438199 0.8699661789621792 0.9166345295529956
Ni 0.886026266027594 8.015457229746792 5.89110374670814 0.437231262085318 -1.2952256133976017 0.5747724256983069
P 7.0732163484602575 0.34386718176900977 10.986032593555512 -0.016410580147539478 -0.9539993433546989 1.2888209954228385
Ni 1.6732572148582519 2.041265272540828 0.38249907645382375 -0.9194038647680165 -1.2814614697339737 -0.7465072044738692
P 7.419509212861888 3.7873857267078446 8.704475396253663 -0.7230415172517611 -0.06730248190140022 -1.8164746132564715
P 0.8005568978556067 3.403209543485463 1.6757227844328249 -1.3162662361179849 0.2715324050911904 1.2318749170550978
P 2.679957249544737 1.3160928397666307 12.106643241231886 -0.7381251510577611 -0.2885145414714837 -1.559621664554327
Ni 2.6424449720444634 1.7896064969269774 7.586282082780202 3.453028055271847 0.4698004542705909 -1.9540000931401769
