# total energy = -340888.5659402189 ev
CRYSTAL
PRIMVEC
9.12537307867657 0.00000000000000 0.00000000000000
0.00000000000000 9.12537307867657 0.00000000000000
0.00000000000000 0.00000000000000 13.35590590749210
PRIMCOORD
 96 1
Ni 6.750951008767921 1.9306734344783003 11.076039300027139 -0.08315410422167614 0.6874991013707773 1.4765092122038634
Ni 4.714112983811105 0.7791216164413388 5.6630906447196 1.1218520134670358 -1.0129894487356619 1.9880882930731372
Ni 2.796196820906551 1.537424606725063 4.731169218645503 -1.0266453489561997 0.5034189136559846 -0.5022171800383997
Ni 3.416640062373352 4.594661850119874 4.618592228499697 0.7427176555244499 -0.8774182643648502 -0.04487732012866465
Ni 3.7446150964448957 2.83001545356199 2.5241594113127666 0.19578744884939184 -0.2000793913565264 0.0492394537521023
Ni 5.121259754773795 4.633015793198885 2.7243646215881965 0.9937018041506435 0.8926965306801594 -1.0314718238105656
Ni 5.003004044956786 4.7608713955020034 11.267162026470414 0.607535993282573 -0.08887403742458888 -0.016541449298448932
Ni 5.838331571844602 8.008126282659418 12.180813543089721 -0.21792747528154083 0.3350764483914229 0.03386219996508362
Ni 1.9395432971175575 6.67945371064181 -0.054168214636450905 0.5362678418652055 0.002121417218376992 1.3664780810856854
Ni 3.0286291987712812 1.6743325791291523 0.2944374629071424 -0.5214935117695084 0.4621575930133524 0.46346962695655664
Ni 8.226459959106812 9.105963417102286 7.013747153037861 0.47827455317987305 -0.8149913653881965 -1.11277113421169
Ni 8.708735926683703 2.304749853378575 1.5280491984168607 0.31987094429557816 1.1493448195706657 -0.6307749092058557
Ni 7.252107373259033 0.6199486462455589 4.804159427808427 -0.28477178659959984 -0.0001612081682126256 0.351700172991033
Ni 0.5569169567310108 7.881602984826805 2.088369919308821 1.0786551663645874 -1.4682773112123746 -0.11695716881405017
Ni 7.717966794654831 4.1194580466843655 3.7518077155110094 0.7947513841922378 0.5838026542213752 -0.19291166996349354
Ni 7.616930663850455 3.8835671524201714 12.6614259551531 1.9114087408322114 -0.12935477114745467 -0.47014112543946124
Ni 8.44243016392502 7.354640065249458 8.7747771642419 -0.6517219437711679 0.49716110567173094 0.5713821690698353
Ni 7.09808932631934 1.0648124092458804 0.1457358583271522 0.0939833336266962 -1.2856521107765535 -0.09389797300174152
Ni 1.7310558982295867 6.600418854346947 9.120000065982643 1.2527484180699975 -0.17320570689413398 -0.12750100576816753
Ni 9.301675293670339 4.887796209750385 1.3311418979745868 0.1549184785491719 -0.1227614342006531 0.022290178856768064
Ni 6.622493131841148 2.1617461317532682 6.8690488496305475 -0.12063718876879868 -1.0007638532037475 0.022542918297522464
Ni 3.608017386725719 4.337189448508106 0.29663302767155114 0.15057691375102455 0.8857910618095778 0.24029350168156682
Ni 6.023229881306153 5.693886041271762 4.7082508441408795 -0.710432570238499 0.5280601092434325 0.08471759205405409
Ni 5.476784290190932 2.9348294888238287 9.250447274242086 -0.6948018056797777 -0.7015643212145917 -0.4879043629601533
P 0.11058765881313301 5.679951596569966 12.530337233165731 0.34027650453512365 -1.0371948423372719 1.3839168453874229
P 4.075117858861166 6.413394332956439 12.424385263880112 1.1227099905919569 0.005869828517215697 0.9456391443154617
P 2.444203804873562 8.614644204797509 1.3403986764326756 0.5866910315127638 0.23290158009286985 -0.8200078447661813
P 6.692420865796526 8.023894927351432 6.096770350466143 -1.0164601808930818 0.2184391248106367 -1.6656655288899826
P 4.889995424664028 1.009357517004352 12.556087210938834 1.6519098698667873 1.3590864166073044 -0.5550440940314442
P 4.1441421808810635 6.1046008331109425 7.9936963301990716 1.0343429747107735 0.8194599426825112 0.4873430911400446
P 4.831374027961778 1.308934390033336 3.656072513932089 -0.11921125495554954 -1.3242402554623969 -1.2025661407886516
P 0.18955498734716122 6.1013065734270215 3.334581969975212 1.8753986412861896 -1.51188476348968 -0.17674997260196657
Ni 0.6594724621541499 -0.36878187743597757 4.651274752205972 0.34722002573249233 1.4400656246648489 -0.5078278413569576
Ni 2.0888526515450523 6.510597807064841 4.599212673677691 -1.2787759524820106 0.8969779316643326 1.221114336104484
Ni 6.598301767791076 5.858863661287327 9.246494162621381 -1.0406725164732271 -0.6053430993963123 -0.5439438703532244
Ni 9.056558647216548 2.4359727183503006 10.04545799030017 -0.7014378229390565 0.5424724280140206 0.6459865839492875
Ni 2.5144418015138523 5.505246328845091 6.811218622774823 -1.0510119507260223 -0.7069317561740922 0.16043400905076238
Ni 0.639308125246777 0.04445881767331347 9.222145842154235 1.2956989534895944 0.1208811864588047 0.32000952675597144
Ni 1.6715037134725992 1.4941338368067134 11.465658054366902 0.014659916005019914 -1.512794162677827 -0.5115502845138674
Ni 4.202261682063603 7.197756651160869 1.7167418380074275 0.792462588158061 0.2538074770076016 -1.7053589908248632
Ni 5.812287757058141 7.99180099020918 8.086867301940922 -0.5977938262941447 0.11982086351509041 0.14637290297200597
Ni 5.260166183883642 3.063917016493511 4.828534211857521 0.04315005302491278 0.6738223752146332 0.8875725791900327
Ni 0.8386336495567496 7.476701055643186 6.804901126987624 0.417972413855706 -0.2015037825078788 -0.18269153489738213
Ni 5.4324167262484755 4.256940917592851 7.233024393062311 -1.0358151883809257 1.5065576948498118 -0.2523740869951847
Ni 0.6759309850514381 7.2381090509456385 11.270073933022047 -0.7344870400845415 1.1834631014106134 -0.6611388662096936
Ni 4.958882866087642 0.5350333995343004 10.13705209757282 -0.4271911042404965 -0.9121222435049389 0.7708866617594982
Ni 8.056664142102019 7.237607155425927 4.542103351295733 -0.8845453623279347 0.6765613714123508 1.0116846138813091
Ni 7.239925000189683 6.044081358806876 6.78349117665406 0.4294603598906474 0.760471122853129 1.2325038088883482
Ni 2.444130801888877 5.805042210828131 2.3532840626719422 -0.8270611520685368 -1.072835474359017 -0.2889775971508313
Ni 2.5715757624031417 5.522520660096238 11.184302726315355 -0.5136200225587025 -1.1933947587020286 -0.521850637998611
Ni 1.0483867376917007 3.9057691851375713 3.7339238093377416 0.4182845457794861 -0.4282023191138303 -1.0474805405339962
Ni 1.6961787222962117 1.2610535574529016 2.5345367855857743 0.5969957558728816 -0.4488925004733302 -0.7396562429903067
Ni 1.1369119819956444 3.234360734987384 8.034151846699707 0.46795491642141984 1.6294759663433034 -0.5506634484652452
Ni 3.522713399121012 2.7899550657159624 7.018287938685283 0.17229990725041294 -0.8114324443923445 -1.0634301218847169
Ni 4.595227623251184 7.485853804848099 6.008421225862752 -1.3927910079486014 -1.21581554959939 -0.4099950520771842
Ni 0.7482495667552578 9.122982237907033 13.158305257278963 1.123757972240497 1.2029615764548574 0.6166778076828412
P 0.2083140167993432 5.653113874325053 7.983278804284487 -0.007119127543284514 -1.9226148939606758 -1.2528713168011067
P 8.856119827390124 1.63720143604362 8.042872965757669 -0.5400476206226119 1.941040704766031 -0.19309653228079002
P 1.968105714875659 3.428694680219503 10.364142482033207 0.05866923170643444 0.30381286239145094 -0.46573656861386237
P 4.153687321128659 6.542025591971838 3.7976581525798854 0.12309824871478156 -1.0161794164278692 -0.17647820699781863
P 6.979842741875417 3.993053378701866 10.2906321266044 0.8728262741187935 0.35475747176011807 0.9621996197773042
P 6.77078044448305 7.858561417785525 10.088931267680232 -0.9063688859609293 0.18612010096295686 1.251136079277555
P 2.5174166731397762 8.601275533227025 5.84797709119614 0.7575750322522566 -0.5420718501414923 -0.2345943944142605
P 7.109669424765037 4.01739074872131 1.4415561746990926 -1.0299785270944906 0.5667084177432499 0.9662827887077422
Ni 5.670753220499624 2.9942447929845315 0.02327426405496429 -1.851827538834469 -0.1468272169006052 0.4698642176289908
Ni 1.4601783235549894 1.0281192840684599 6.872441663343794 0.9818677876301928 -0.023357700889333966 0.36809609785055314
Ni 7.185756785553233 0.7472019739250245 9.013179361179267 -0.8777951880882947 0.056846062454766616 0.5172635328485607
Ni 2.7523494032299762 1.6429777972068402 9.156849235039827 0.419056133838188 -0.11672242709542478 -0.15385301339913504
Ni 6.634036728794502 2.27119585654262 3.0173529752493367 -0.04529281039952845 -0.47613385268778646 -1.8731620386461867
Ni 4.381839899016217 7.082703947296926 10.013616825992392 -0.30865142143067487 -0.1776696562027585 0.7196749147723734
Ni 8.255852785815708 7.647701421895284 -0.004444969230022782 -0.5565379049681511 -1.3787558700117737 -0.3624422419988855
Ni 7.715667200637246 3.95030100579557 8.05346478629819 1.5757607362080346 -0.10138528251772215 0.7694936380667134
Ni 3.345097137381813 8.706901726693488 12.550491532162711 -0.5366825608051209 -1.5808494635848516 -0.412743818466915
Ni -0.003578058786885512 5.038985391033525 10.385298746994991 0.824670283238857 -1.3849126336417892 -1.3181732233327106
Ni 8.88173474964156 2.325729086102497 5.741677445195956 -0.05165217695865297 1.338259195449308 -0.5562237161618421
Ni 3.857459460022111 2.5805095026539977 11.301072825394021 0.6364699027081039 0.30638370844242074 0.25924870262783095
Ni 1.5260908933526791 3.5980616046892684 12.624522946394707 -1.266532616338283 0.6911783499945773 0.48353348758596726
Ni 3.1886608665744216 8.42098553717373 8.238016331582486 0.21714457436892926 0.30180277393995764 -0.6313703766980094
Ni 5.783798342284725 8.049856613780122 3.526146364475835 -0.04319710421276431 0.7300066357156847 0.08371151938704292
Ni 2.9924744706059148 8.42879685653505 3.541946035436339 0.6970512638355867 0.9788415992093594 -0.2450682973623908
Ni 3.4475659517606387 4.192944676143149 8.850211148317163 -0.401420937254928 0.8944903893557885 1.2767779482153754
Ni 7.36188561147947 5.9738981144051 11.577834440634247 -1.4631330480072735 1.490456418412575 -0.5389554159996977
Ni 8.067614589804807 0.16006908183279125 2.5834998874141673 -1.6815289782848009 -0.42080499820849465 -0.7378083911482907
Ni 4.9485438183815935 0.5285917986731362 1.453857177618556 0.16065666658452976 -0.20767263032275202 0.44535260564087176
Ni 6.250999193524114 6.0262047529320775 0.3763449866493689 -1.2340462136748038 -0.7041251399632326 -0.38521321714681395
Ni 8.228075150142972 9.105799160386745 11.176582660684891 0.29547246084655565 0.13000860268136966 0.5087557524878659
Ni 0.11935714234844792 5.32959202231931 5.602468966236974 0.35661792200762454 -0.9533102877074743 0.23668290151217306
Ni 7.312033698312534 6.265079644195281 2.488032059266657 0.022627507591528772 -0.11931229930978805 -0.4570315846406967
P 9.09083354852627 1.6663296269330323 3.608204456873975 -1.1589646020486168 0.7816441573863184 2.088591172985906
P 1.896325530183893 3.245803952836796 1.5638827134496127 -0.4853391733361383 1.186293628880873 -0.9042122446292428
P 4.84791832936607 1.0698861166815048 8.025577646148426 -0.1096557500566305 0.5287707621572119 -0.16686099562302875
P 8.846748069231156 1.9768751984109738 12.416184291088033 -0.1469675991332114 -1.0555964847729111 0.014586125344291009
P 6.659213633137827 8.102199753799441 1.2744897567842206 -1.5107473074511273 -0.030928057037424156 0.5541496072416328
P 1.9107436196592287 3.3432811881377678 5.644326140043567 -0.4910315957352253 0.35789267495499005 1.460886160954626
P 7.081992168196244 4.132306571988968 5.79520779625372 0.3507851173759314 -1.3403153066473885 0.3713338880615605
P 2.322526080149432 8.339605459995854 10.527178222656145 1.1223335810891446 1.2626857317883673 -1.007500914817265
