# total energy = -381163.08206275804 ev
CRYSTAL
PRIMVEC
9.35079663199639 0.00000000000000 0.00000000000000
0.00000000000000 9.35079663199639 0.00000000000000
0.00000000000000 0.00000000000000 13.68583606394002
PRIMCOORD
 96 1
Ni 2.022362269881659 7.270627860040851 6.8140004020812395 1.1025741390740302 0.14380668490672652 0.39682586168507783
Ni 2.214062954165443 4.9197908017332255 11.496772818134996 0.19361486667810526 0.03079204568019213 -0.621692230178297
Ni 3.746331264499682 7.522454167462273 11.395881461462233 -0.5611890305869174 -0.8719009340910467 0.5963054146740763
Ni 6.3652276133962165 3.813759859903338 8.86865471347822 0.23290620807856016 -0.3847578747769502 -0.5158440267932148
Ni 9.1142496499418 8.128451252793681 2.078645650632477 -0.047717360680621046 0.015962693976843478 0.4605444828899617
Ni 6.231043679955297 7.86247718988124 10.441335297230227 0.485238643202532 -0.19327033885449296 0.738668939376373
Ni 3.6767052318584907 3.3777135056025034 3.030331406136987 0.7740406340074476 2.518402231347753 -0.4288039572535711
Ni 2.1959691624436184 7.5641213178046245 1.8071462019172326 0.815228421099667 0.5097237728280898 0.34322504564048634
Ni 0.6962874437224994 0.6180437167914722 9.942199117220271 -0.7257985111716081 0.30155517670552584 -0.03677500273650441
Ni 5.6985251555283325 6.718884097484651 12.520226873817373 -0.19627827244288132 -0.818695553712661 0.10401577816203376
Ni 7.42310195193546 8.904427121545927 13.63648478205871 0.7270349546818704 0.9534308724457388 -0.7459919554003475
Ni 8.078929433176738 6.471022527887546 12.536731965170445 0.5598744255405519 -0.8749147812167062 0.05197562173634275
Ni 3.072260378788491 3.7849968090835286 0.5309840586793928 0.2577656903244012 -2.0991113557909395 -1.905475406066912
Ni 3.189135987435045 6.1631849479008896 13.05548050629531 0.19828501846026497 0.03303327630588505 2.507069065723121
Ni 3.0702686590795767 9.090339662638076 13.639373243176475 0.0986822817642623 -1.0500349315247335 -0.9026852664617551
Ni 7.958032981925334 2.412776736015825 9.851311242916504 1.4620429002668887 0.18083416997366922 -0.2649598940799953
Ni 1.2785624927649675 2.965137651157886 1.826881058469641 -1.1043003777365175 -0.0956046712802031 0.2987747857469113
Ni 8.382858380119611 5.157441301273362 4.540823580987099 0.7231754717264641 1.2833730849343896 -0.6582489462564083
Ni 7.412928285065514 7.298820512258578 4.963456217342219 0.005324754647023087 0.8857730640874486 -0.49723026834676953
Ni 4.917481154934626 1.3450840608833443 3.5982118386540924 1.2581325652000463 0.12808644595799232 0.8347736902214463
Ni 8.942690581869288 1.2701280740915384 12.36545435608027 -0.7920625245061649 0.23171758708709772 -0.8857015874195651
Ni 9.149885536376877 6.788912214386327 6.8030926976659885 -1.019948139441682 -0.12880789750504915 -0.7452499350280003
Ni 9.051038263874858 5.757846610145001 10.411185523251582 0.16246852298228795 -0.6815395413532327 0.13153172419411543
Ni 5.125863660630158 1.7386216931338354 8.438481594619494 -1.17274700054469 0.34044594023345237 1.656731973845779
P 6.594770972149367 5.3089896642891805 7.028142063498463 1.221625728523264 0.01663220924004232 -0.19579156261444988
Ni 0.6781777556461908 9.328850435479717 4.780230160157912 -1.0450976421241163 -0.12363098128979999 -0.3706381475461165
P 1.369985232643147 5.307353274856974 8.35621609000394 1.011644504671993 0.7186405599705882 0.5672504062896488
Ni 0.8137456070069192 2.6212059956951355 7.811560231388382 0.7747484587077497 -0.4260575048566856 1.0507620394987451
P 4.490018832055307 5.034712093857887 10.754754367800219 -0.4854091073421253 0.06556338772310644 0.22124008459454156
P 2.838425004324583 5.428062710173269 1.5075223618005762 -0.1516611479541388 3.0594862636546796 2.029642976586472
P 2.0921659676612037 -0.0017729110648361248 11.483319826842909 1.09793921140518 0.992839199040032 0.5099618569808249
Ni 3.3536445547539375 2.7129186102727343 5.446784875437061 1.1619733069679536 1.1214177541430945 -0.29664077012304396
Ni 6.642357176837927 5.435487242797108 10.52748699297735 -0.19976057456452695 -0.0715435165659413 1.3491174783200508
Ni 0.48718679683614674 8.122868827130668 13.315497176594844 -1.28809234478693 2.632810922708337 2.5980262109289836
Ni 4.734570219600978 2.588141578367812 10.906270003027394 0.09090058093631442 1.1716306275520596 -0.28070661539129077
Ni 0.5626954157162005 4.434082365864117 6.165373034341668 2.7699275971893975 1.2559440421891597 -1.565380678525291
Ni 8.787083973061598 4.670479858639022 7.9385515319649995 -3.004236342042439 -0.6785568045758249 2.6843054910432027
Ni 8.431360962890206 8.505400571599978 11.331503095960208 -0.07596632822398529 -0.0022165480353445698 -1.0954753232457197
Ni 0.722805368241322 3.3346063325598108 12.949661279732418 -0.9845471342345689 1.6693535192645315 1.028693746844796
Ni 4.397352436208651 8.398876294961722 3.1890191024756023 -0.6663774889008136 -0.17455450761254454 0.38503401125647235
Ni 2.3766359065559537 7.60860305797037 4.401515410924184 -0.6207465784355761 0.5376716641912676 0.35807368061754463
Ni 5.872683745098864 1.3965695478189335 6.447534261517494 0.10299582153795164 0.12043252895716033 -2.21608909343028
Ni 0.8917836164093264 3.5338437590284992 10.100995282801248 -1.4705843620789962 -0.25828762426614227 0.204213468129558
Ni 8.438271201692496 1.333554528483856 1.3038143194031002 0.6067014131964196 -0.26518023762091747 0.33125193243901013
Ni 4.328745640413806 2.1520578208799557 13.2093777894561 0.5066006538180758 -0.9409785056149987 -0.05449273173124163
Ni 3.5606244409361505 1.4768461379645985 1.6778695666135808 0.39127973505586805 -1.2476735746502512 -1.717055967546817
Ni 4.732615903079086 7.773635269907569 0.7861803932514847 0.09016447410123826 -0.20034061543771306 1.3621054059392865
Ni 0.8791160920446982 2.3271327885325235 5.53682369739543 -0.4184856060466986 -1.6247785608676342 -0.8410248133374806
Ni 6.631033361967059 3.0992374274280063 0.5502046214102506 1.6036852305324447 0.21305626323216853 3.617086034228442
Ni 7.894223144866043 1.5979670083381339 7.583267074161438 0.23438613505819633 0.7157532111204641 0.3603539920112891
Ni 5.20455996612415 3.7296400922911768 6.695590327687112 -0.10487992593454196 -0.7820257090954531 0.04508840769820622
Ni 3.126887733433916 4.881359027068265 6.9963222372192915 -2.4467103621294055 -1.389137213246098 0.6193129313128432
Ni 5.905813618003477 5.287800758841297 4.826597956029236 1.239911157096013 -0.42460637423245584 -0.3824721640665671
Ni 6.087144268685449 6.741522376429631 2.946560423243804 -1.0473712686496415 -0.18039142600929578 1.1427203722756125
Ni 5.673960612451727 5.184605365847987 1.2045668327999481 -1.64221012608052 -0.48828437200739133 -0.15183212631436432
Ni 7.485359556733345 0.7686869226813611 4.770539929480225 0.4903597664791813 0.5046358167822212 -0.29488110711945986
P 0.2617961269220989 7.082648792865742 4.520855889595479 -0.21145832261742936 -0.15803876934570849 -0.004357248527431205
Ni 6.917784895270143 7.055933566535379 0.8716550913135128 1.4009084948494133 -1.1340999775964533 0.28459463759178727
P 3.120538542436955 2.2720752972363467 7.4640771433179065 0.024732212639357404 -0.3692623502445124 1.6034887982509223
Ni 7.554873379813469 2.9783503269733576 2.9689920495804887 -1.473567098856404 1.4741396835304226 -1.1405308208234615
P 1.379242521431057 0.4279083558845533 1.9417462458137706 -0.048142106922865475 -0.5438158294157925 0.08444556933959005
P 5.008529862942586 8.854475165278235 6.134785643074867 -0.492492753661784 -0.9951431645828603 -0.04578414821365018
P 8.349793962792289 4.694735825422698 0.34020910327440007 0.08829785320614471 -0.329897989514277 -1.3866388723042764
Ni 6.576116132622214 1.5920199016016583 12.774523661741588 0.3975797091319669 -0.7249621313132417 -1.455123804549552
Ni 0.2181372568708338 8.993764633747636 7.523378026181714 1.4327266678012744 1.540201351046186 -1.2110124717837918
Ni 2.4616627014533954 2.565933436073583 11.789047867081532 0.510365777287463 -0.623223836331475 -0.05478429482973146
Ni 2.94319133117281 0.4423983505368215 5.528365901730113 0.9216934321331416 -1.5239920882761753 0.9657420857129237
Ni 3.079656859022063 3.9504498068747225 9.303247953963256 1.0020872000008614 0.7809129356472486 -0.19974411950429471
Ni 3.0113492887233932 6.57682679317563 9.479508602644415 -0.5147451373020813 -0.531538040489704 -1.2087997804031891
Ni 4.510627988104352 6.272411604801473 6.214642382446211 0.31120144154603824 3.358682967430358 -0.28395623267684
Ni 5.289979494485321 8.353104144843721 8.285555859241596 0.8873519785387944 -0.4317249875551081 -0.7541791191968302
Ni 7.310312641471043 6.677020580410435 8.68774110833154 1.4859361619447182 0.8640025051795766 -1.123170218057827
Ni 5.868223415046508 4.237659529218823 12.63609166133466 -2.0537511824885857 1.2648431444510024 -2.1689849408536257
Ni 2.3862204732303054 1.674615489342679 3.5766834992839858 -2.5665160561358444 -1.9562107276382505 0.7012894702866502
Ni 3.7381212649483833 5.93697982358944 3.802500565530083 0.4371397308127762 -1.0816507586578017 -1.311510209490238
Ni 4.37026317800807 -0.13733328178816034 10.281853718247072 -0.5506295099035162 2.5816338856138894 -0.37034169935162026
Ni 5.144770971669708 9.045511942992379 12.497973847698718 0.949914374652048 0.7382642477387866 0.03351278704546486
Ni 7.998063742835479 3.689010880388682 11.812710993350912 0.36891525131773883 0.2508486514895938 0.24829323205759174
Ni 1.3196218413182135 7.396209060466743 11.583664161905476 0.7915326201446239 -2.045008403298949 -2.374796606708239
Ni 7.881085275424615 5.327392032303934 2.3066517383990286 -0.5415781983345254 0.012637743368668557 -0.6287547934520332
Ni 6.360103376774222 1.0277647729866464 10.51203573641862 0.8618304372289222 -1.4414123685007305 -0.3578718490193837
Ni 5.127649662810452 5.918886031867617 8.51350677730729 -0.9157773237590229 -0.38028235550409994 0.8227460696329507
Ni 2.7210444526532327 1.6858083930589702 9.682647181519485 0.3687190761465327 -0.30093734061586885 -0.5134577859492254
Ni 7.337757229948332 8.797510111443943 6.829561062962007 -0.8246366017874442 -0.8087374140586845 0.20606466240568383
Ni 3.2292135023289674 9.17459969220157 8.383998242244102 -2.1057090636131153 -0.06063021208754719 -2.146516584547781
Ni 0.8174045737773327 6.105640144667759 0.5337191667303662 -0.4891693457155059 -1.7328582246863964 -0.7632605126728081
Ni 0.7747153813496093 5.369180743004107 2.7776364096969814 1.8092706393088647 0.3185062027375676 1.4058897501140883
Ni 7.807718924081239 3.478524445423169 5.835749968074129 -1.479401446149994 -1.6066096032680912 0.8304534655795376
P 9.073741998397127 2.0385017450815917 3.7233825391024196 2.3423595692254566 -2.4605377549308014 1.2788970514409073
Ni 0.680669742981522 7.44493606235947 9.148050910053454 0.17735778138929456 -0.4630636497673896 0.13567634249010826
P 5.716422580518293 3.480983704969857 3.782286013104119 -1.2841698698040722 -0.3732190208994153 0.45364647021854776
Ni 6.767424083442269 8.90973837410303 2.809004592492864 0.4674962316174465 0.651060141817453 -0.4773384145188489
P 8.147078039930566 9.199276444839242 9.069302240097633 -1.323500806193211 -0.09117903140868168 0.8299770401637513
P 5.808499876169354 0.657241321710705 1.170326085240787 -0.5763215153529817 0.3872443886442299 -0.5322972872532317
P 1.9060664106339436 3.934609557170965 4.339382171723147 -0.3640455819302634 0.8340684366243055 -0.5546856822507609
Ni 1.461099396228396 1.2044667792746646 -0.05941683274357439 -0.4008609509864 1.2350669416298343 0.2696369878406905
