# total energy = -340892.4722421299 ev
CRYSTAL
PRIMVEC
9.06649803525800 0.00000000000000 0.00000000000000

0.00000000000000 9.06649803525800 0.00000000000000

0.00000000000000 0.00000000000000 13.26973633026808

PRIMCOORD
 96 1
Ni 6.492899930370938 2.0741608547897212 11.548001079651025 0.3748424154354512 0.672370473259455 -0.652190141656838
Ni 4.6299703433713795 0.28644512096784347 5.8966725228720325 -0.6692810357008538 -0.5730433588223421 0.47267391916364404
Ni 2.636165859361305 1.3912903668757621 4.697075120838205 -0.11695202660772762 0.1599421570160084 1.1350695405985742
Ni 3.3285561700574626 4.228705279852752 4.781776157405689 -0.30645209978651095 1.0381278956745026 0.12265936140515005
Ni 5.0936582448475685 4.381820296182061 2.700271439326844 0.4722681990847931 0.3195459568559916 -0.16086492594059393
Ni 7.179841275836523 6.555041706893978 2.88830425897147 0.9662899877965939 -1.1050380272334903 -0.9881572201833303
Ni 5.356532284606688 4.5528325793419056 11.779929348819476 0.0737441237616859 0.14949447932012316 -1.0230501754057735
Ni 5.577020446740302 8.057877197283448 12.546203457453172 0.43641725082445487 -0.4850542951058679 -0.21921996884071926
Ni 1.9641570359169407 6.636032732525772 0.45281263725976273 -1.1978075430577435 -0.12594008903895085 -0.352793920275844
Ni 2.747112594014417 1.4569408780813833 0.45321700306555895 1.80611435306807 0.7194728260638964 -0.32722404222653967
Ni 0.4734824391443885 8.93926772294886 4.7492918021234605 0.40467723940869665 -0.13255168081819754 -0.17501936306410504
Ni 8.67830671424407 2.4685625794072776 1.3873246806996347 -0.17637767686421238 0.6174990180325558 -0.838644228920446
Ni 6.900330212453276 0.5195810476549506 5.053871732166499 0.0670037197140588 0.9587587124165553 -1.6341391761469275
Ni 0.6571325137100481 7.157165964619114 2.6507629209606764 0.27359365849559336 1.5071652465268237 -0.5491058741701381
Ni 7.586691302054041 3.8708052757315126 3.535057445899555 -0.09866171293897202 0.07020242915701458 1.0711837976882068
Ni 7.939622865332762 4.170833823834871 12.712460362470862 -0.527347399447124 -0.9707071430276831 -0.8999077037166179
Ni 7.773869150947847 8.822201102221477 7.033490773581308 0.8630303710742943 -0.6958873254344725 0.7222894695770851
Ni 7.079855937129772 0.8699476986812104 0.29004996052803617 -0.2849661619985931 -0.5225036982015776 0.0656852580129514
Ni 1.8366367431249147 6.618860785526262 9.360975925904919 0.4605899914159164 -0.24023565186043788 -0.71053412881337
Ni 8.942196201766624 5.0109717841107555 1.4128423390048717 0.8761689653387813 0.5368995619119334 0.4937669923885174
Ni 6.218828765720376 1.93114591710743 6.941890132121201 0.4782663256497569 0.02067732584369342 0.7251215397092415
Ni 3.426238618300711 4.585544503721118 0.5420079368302337 0.2957347133690068 -1.1975627740367891 0.2910087686482472
Ni 5.891827386400788 5.520445499920377 4.7183596312796245 0.5638539790135902 -0.09278057156784666 0.6731626301434471
Ni 5.208839034014288 2.856916949933666 9.249006490290062 -0.0003339863006510377 -0.42454209665342363 0.4403471820064803
P 0.28318934157633147 5.820718843466706 12.423206440457374 1.362036500374564 -0.9167635989316922 -0.8325645983852693
P 4.105645704021527 6.227315007743365 12.638959170744187 -0.12461339980772733 1.0672438392038521 -0.9152764728632043
P 2.299073467892586 8.612801267004654 1.5507945442666102 0.8459847284459172 -0.7320015546585263 0.579943428376285
P 6.234259945125426 7.666295153508999 5.821844902504372 -0.1509101287207272 -0.5458418587068858 -0.18699350470684567
P 4.931386065651572 1.1331218395204157 12.757537176669468 -1.0686782576575335 -0.11733126432401729 0.34068916659251003
P 4.014300737801857 6.3306458841707185 8.066526636268417 -0.2971922717511398 -0.6446223566119091 0.1882389470781726
P 4.63907310725074 0.9992549982069235 3.621006032576402 0.013885756843156731 1.1043970512153818 1.2148930377851206
P 0.1008792953984898 5.459790629050938 3.735378090131528 -0.34624352075183595 -0.12753340166799973 0.1273721934997871
Ni 1.3789236637567914 1.404364256829982 2.4969923968340786 -0.2991151998054655 -1.8579542205574968 1.0760521815241018
Ni 1.7836158634770107 6.330800014634811 4.912787958534311 -0.2425686708689887 0.839530231069825 -0.8179910714464688
Ni 6.000054171687558 5.468576065504225 9.18235231776826 -0.5546535434612447 0.7180700321790987 0.32150950834026565
Ni 8.572237755454598 2.277504269417489 9.862797517497231 1.0158914528738052 0.7763685108096757 1.873518650654657
Ni 2.128795571061655 5.162137503394185 6.8792696445096855 1.5279798692793298 0.24296539208677506 1.7752857977229877
Ni 0.6416396821193611 9.138939205932067 9.023327758115677 -0.5214238348738374 0.03752807885244505 0.22333784766383472
Ni 1.3799028455286746 1.1474741056768165 11.27833351302457 -0.11852605596306684 1.1549045730466305 0.43490801326878
Ni 4.141839163589659 6.905724778696522 1.4810749888089407 -0.17001471076066202 0.5983424997087631 0.9403668401729288
Ni 5.7930478919131145 7.840934035823966 8.215970627602953 -1.2257940009683403 0.4886983196163584 -1.1058949759171468
Ni 5.082497385947676 2.776596845145571 4.953566346084307 1.0326298486744088 -0.4641100887540329 -0.7745988205037628
Ni 0.5696834216327691 7.171944356176242 7.10912803221035 1.1923668316581464 1.2314663687627696 -1.0318004107945777
Ni 5.012531221747458 4.5643832976509735 6.9670496637598704 -0.3548562021215114 0.05322209254893415 0.34490783265954794
Ni 8.270404974271566 7.325140970986542 9.02555720994629 -0.9796581815733838 -0.8038582315895123 1.133539477107293
Ni 4.61780310320594 0.5429154932688033 10.673764020819092 0.09220875822477669 -0.4810911966930618 -0.6908327937297006
Ni 8.27448489832108 6.898707309331359 5.12901849325981 0.28212329323315927 0.7357826189675134 -1.5847277155933353
Ni 7.23727753995579 6.112542210981597 6.938479315615808 -0.752849087531497 -1.5154251725427705 1.8388195566105752
Ni 2.1158032795884254 5.213952538823011 2.5707193443581593 0.9952102703753699 0.1382405036728587 0.573806976461244
Ni 2.656366016655342 5.243155728519643 11.399048492502008 -1.0831201441144764 0.05483288867947976 0.44104960739014365
Ni 0.9479476866598153 3.409565328685032 3.807339790516853 0.027151877824443563 -0.43313498052875726 0.606626079873794
Ni 3.358557211568221 2.747049128529203 2.895535697686786 1.0639749386445936 0.20616519253929008 -0.7109807294324851
Ni 1.1754986506480325 3.060314763548761 8.168968995902764 -0.46826447724203873 1.651757917669955 0.7400550210906223
Ni 3.574140398344531 2.5410492300203065 7.0557571857439765 0.347041334062783 0.11024838933530691 -0.04030795559042735
Ni 4.059170835848621 6.68506435310304 5.7395591809742 0.043751176944021426 0.8470792470616766 0.9438190603875874
Ni 1.0165176101853108 7.724447670961403 11.365740899211566 -1.6410191910962124 -1.2556874460936631 0.8727347428462517
P 0.27211189445700706 5.418991388555799 8.21601052019366 -0.487987923812895 -0.41379180011545513 -0.09888128514894584
P 8.477374988054459 1.607870868419731 7.8032817767456875 -0.6683515819080489 -0.11175017069181399 1.1318345786010442
P 2.183702282270223 3.282117567876108 10.320458011177605 -0.951378103681768 -0.2675734204434424 0.6990752362441509
P 4.031572416278132 6.140838750889448 3.550066126503033 -0.3295663172064711 -0.7329911722653054 0.5349038716381432
P 7.117753898300811 3.9696482357044003 10.59308397606485 -0.3390022658083904 0.12055388502637303 -1.499175800563444
P 6.375298386268175 7.829510248485328 10.23692473953807 0.19163588857486352 0.04853034350021965 1.0950228090893335
P 2.4690340372974435 8.34721634437708 5.817624447737597 -1.5681003914492995 0.5374415504583324 -0.19044752469371715
P 6.997468670823256 4.045707086485225 1.4900852744098447 -0.8655474810691931 -0.7928140579602089 0.1088157706538384
Ni 5.252729950289168 2.8452030346626174 0.7963603752246015 -0.2539226624292272 -0.006522374499550057 -0.3819738842739099
Ni 1.3497658065495994 1.0846432753143038 6.921971942911475 0.8411032319838999 -1.0360234477369898 -0.9275853721375443
Ni 6.814370745978964 0.9822281151736192 9.280667607564078 -1.1233615081330266 -1.8063413814772118 -0.623567849934455
Ni 2.7459883482763288 1.492309286341724 9.214372468358635 0.5935268234876746 0.8026852943273337 -0.189951301783589
Ni 6.595559885954594 1.7422816996064918 2.603151113952639 -0.8302225805156541 0.2692212404595105 0.6158388567213136
Ni 4.1871535200329255 6.877029312881608 10.318546793422854 0.5927662911725663 0.8558323106639584 0.1593808851958997
Ni 8.225426078250148 7.292583177071421 0.12854208710398224 0.5680574755719765 0.7228168028354648 0.2616020333513559
Ni 7.35137941587386 3.7661325576167632 8.323296202999675 1.3528401785872766 -0.1275485711766513 -0.4750976981137882
Ni 3.0821287574668284 8.262217926678876 12.317512834680459 1.1462612955493354 0.6158126314690684 0.5884486376338188
Ni 9.492713953514354 4.7258666915307295 10.277304201181003 -0.5255108604590175 -0.236034983515529 0.6575354651291514
Ni 8.634805657378363 2.2810492700916227 5.710590813572863 -0.06955836781511246 0.7084073122783542 1.3529533071263733
Ni 3.8327894500879314 2.916003316668514 11.768729503978664 -0.7967529880032989 -1.2715233846846554 -0.11170569060712375
Ni 1.397455585439472 3.334313396216221 12.62298218816629 -0.6907034672406879 0.3556319039452714 -0.21397671816390892
Ni 2.8749139482409656 8.396275164448012 7.986470366568857 1.1076741793047569 -0.5351136736561042 -0.4456215430315422
Ni 5.5896500782980185 8.061068604539956 3.7002526640145805 -0.40634614247068734 -0.5810361472198317 -0.15358947532510323
Ni 3.1242063741641477 8.232343816138547 3.701858340790512 -0.4468849831249981 -0.26417056540948053 -0.9692107609878147
Ni 3.5894990457664786 4.5141005003651875 9.255123656414966 -0.009041541376977977 0.34040891634792986 -0.7280667383804944
Ni 7.279853814036938 6.053528376229852 11.246924444391833 0.695012379028687 1.1081729733180463 0.37898317707670215
Ni 0.8032844596615208 0.23081308992825064 0.2487865153410422 -2.024035400591708 -0.5349362675379755 -0.7170482757828037
Ni 4.745894585364899 0.16525505700108511 1.6651928946656114 -0.11859136198336348 0.5306355832800926 -1.6329402707428198
Ni 5.91780290284936 5.654475538195849 0.4708676611535445 1.3916003300746098 0.6595093010260706 0.7633145058391951
Ni 7.969832436294939 8.835918713525732 11.375720393436676 -0.16751996936326632 0.5558946149571975 -0.20443715410458982
Ni 0.0007878786664505566 4.621348103880074 5.998026902759844 -0.7009536842137863 0.506744635595108 -0.15410163907483138
Ni 8.269144731065161 -0.022238306019216635 2.2327656355900984 0.37525687726505047 -0.3716537332948245 0.6844042644955375
P 8.417073710602644 1.5677244157725152 3.8256912888915657 0.6085317815369391 -0.4002276882777752 -2.7782050067068407
P 1.8160376599238137 3.320876846346489 1.5364894238992262 -0.68460532476275 -0.015218102501335082 -0.7765862832474367
P 4.623152336959748 0.8772027102910346 8.241966090346876 1.0057708195000357 0.7066417357374991 -0.4685454988175673
P 8.618585692657076 1.940856136345273 12.274585687131053 0.08596946218328419 -0.8619355953482187 0.6045190608331202
P 6.593465524942511 7.891697357497806 1.2810354060114897 -1.4130975807164372 0.21777423753312816 1.1546407778622823
P 1.750786074625256 3.2067205714410925 6.021063060593188 0.30183182740568015 -0.9479145706131998 -1.1812871768052173
P 6.936659669489724 3.8789379243368765 6.1367615467893 -0.7334429150907432 0.6040344078872177 -1.4109507095767637
P 2.489886982439403 8.699667383267746 10.212972865418056 0.8694936102011348 -1.3174273463056214 -0.03994183050026024
