# total energy = -340873.0623764406 ev
CRYSTAL
PRIMVEC
9.20794630125222 0.00000000000000 0.00000000000000
0.00000000000000 9.20794630125222 0.00000000000000
0.00000000000000 0.00000000000000 13.47676016535507
PRIMCOORD
 96 1
Ni 8.208073939871625 8.646749715572899 12.84046840052351 -0.28691994329085424 -0.1096619207042176 1.1854598201256679
Ni 1.673710006038269 0.02136243570930408 9.805852457293673 0.15938808428475132 -0.3658502392391699 -0.8178815424517978
Ni 8.388365530901009 2.1601105680676995 7.537740964795801 0.3232699426747981 1.334851712429656 -0.6787838329849664
Ni 6.013010007169219 5.500265510413788 6.478198223016096 -1.4709540867135893 -0.5794340928400343 -1.6496151602953397
Ni 7.780199085328546 4.566506079202966 0.4350773102378274 1.7733554134694942 -2.0328990216299245 -0.8372028684882292
Ni 4.758243147640397 7.0997410523622255 8.113360082134783 2.1446635904994418 0.28582773866794003 -1.5456106949872155
Ni 4.739836462733974 4.873766043506314 13.379956456879848 -0.09753351287179976 -0.18200916411837686 -0.5693517689033678
Ni 1.2186717095372392 5.330167116078455 1.5287898204113495 -0.37718340486380203 -0.06312469637462678 -0.10891501523586405
Ni 6.034639473324889 4.2369076368691125 11.065956242571248 -0.4793055655475487 -0.9539512637255828 0.6737940930798589
Ni 6.062502719211248 5.129700914428774 1.779390527968982 -1.970590650509006 1.3913185371681327 1.3672800081616905
Ni 0.8501411489178219 0.3060003172322134 7.525544118959359 -1.6455985829367785 -0.28687777719900914 1.9661259298694331
Ni 8.26826628566116 6.403960996542336 1.8768004724194804 0.82631578926208 1.5750793938702938 -0.38800106430459624
Ni 6.693956061296139 8.251434159593655 1.7669782161861618 2.0136782257270998 -0.6112103568103667 -0.08220536715516165
Ni 4.853416481903916 5.324752843579717 4.134171816205571 -0.2162359465117308 -1.6105302784787359 -0.11880579198701477
Ni 6.86933981688024 1.2758162250596277 5.520471428051934 0.3437654915249886 -0.16646273174334558 0.6980326539122494
Ni 4.959786679021969 0.1200237400791538 4.485361972114746 -1.772843506830082 0.7067936879343312 -1.2325125506390966
Ni 1.9312286437460737 4.167442889028169 3.3084372500856287 0.41611479182167693 -0.2692245828936202 0.5417782301604734
Ni 7.739923527659367 8.573776740143487 4.021506146115772 -0.6077684210083533 -0.5984736259699887 -0.3913951775878098
Ni 4.710002716312361 6.315979068437852 11.249941140912274 0.708340977816793 -0.0009999020194240843 -0.30687761735970376
Ni 1.6550547065783336 3.964674700771882 10.903925850894748 0.8184520702432873 -0.10478376667630984 -0.833663744986719
Ni 3.0404178702731297 5.851751241403252 8.964902680498707 -0.9260151994369471 -0.42582456291027315 2.772412311284464
Ni 2.5893574066283147 6.673569667908036 3.19108105208621 0.617067329811776 -0.03484744669648837 0.24173409078283528
Ni 5.914466564513627 5.050623070518643 8.725447271295618 -0.05350259990383044 -0.27559680496855116 1.1482618709191321
Ni 1.237161265961499 2.172255849404153 1.0074957453989846 -0.1680879260515944 0.7555978539212278 0.4079767360955748
P 6.802407254306563 3.40303600849214 6.203595161508703 0.21561553931891253 0.002027314842673928 -0.5576496499750911
P 8.93621071943397 0.6490478861165018 10.759266250151695 -0.45565038802245394 -0.9380068245811846 0.2537097750874727
P 0.8937048642558774 4.1834462999172946 13.2507146416332 0.7751739762809424 -0.8889913139144301 -0.27618327359964046
P 0.8280089288872687 5.924162532100652 4.289126821848007 0.47776804585709975 -0.2781321697958952 -0.6726826051832351
P 3.749954598054097 5.241439344313432 7.121861302062424 1.217638718851058 0.9342440151046425 -2.8283024375838646
P 2.9200055548547805 0.9149899532151995 13.311481563279745 0.3233571030719657 0.43808383989360034 -0.0711809910202
P 6.8710801187548345 6.328934649059832 3.566112422882682 -0.5671115667189394 -0.02374388058415911 0.30764303477081856
P 1.62328729140717 2.567626653061954 7.811063200955277 -0.06878883663893959 -0.5038192344181968 -0.18488545722490737
Ni 7.462534141563338 6.989356190602253 7.493401940368639 -0.15137601261355219 1.2986446663814795 0.8997866047577213
Ni 2.489414356115907 7.052274088534009 0.5401307710169008 1.9857442183209926 0.35076172033716363 -0.1051591477378576
Ni 4.124147124931122 8.506669226587707 12.267800430014198 -1.0277347253656366 0.28937663236146294 1.592457480137425
Ni 2.002498149086597 3.5133656225735543 5.663244320572211 1.6763134955221324 -0.4532309799476839 1.2725178873874408
Ni 3.649882636291719 2.5156201716455104 1.522105772100408 -0.3470783579483055 0.0696342153583704 1.0867795952439347
Ni 2.0594769215733097 1.6658924595222349 3.5072727244231894 0.6271637948158295 1.0982755116986764 -0.6739907824716972
Ni 0.5891483530233272 6.599068173371838 10.446106754572938 1.5252966660202116 -1.1003979573583178 0.15902195919458417
Ni 7.817896417998326 4.298969195783212 2.8978668892617288 1.2439724716495801 -1.1893720106958807 0.9239650017761377
Ni 6.030099955736662 2.7163626116879835 1.7151199827071837 1.0159359329584954 -0.9752137726487851 0.3114603516343797
Ni 3.7560778824276686 3.516763354804905 8.271644681205013 -1.2573190681598154 -0.32244384722907693 1.2314920797943822
Ni 3.7846961799209953 7.243937493400028 5.388830942761203 -0.4433600006908751 0.04721522423322191 0.7108804564091951
Ni 1.6723748538064376 5.744128763571206 6.348753832948068 0.8141678410456366 -1.4794456691243683 0.12466430765032079
Ni 0.7234204694027299 8.110460499805102 3.3207814230648927 -0.03885965317967501 -0.3472357094617761 -0.3764190158939517
Ni 9.679024965600034 6.463913935724784 12.970371346323574 -1.7426178751763215 -1.1177086807226235 -1.0182753797249495
Ni 4.3719697950519025 8.43850279919289 9.983152386529111 -0.605232541960377 0.721793503777273 -0.641098916839683
Ni 3.382594367425478 1.0833977685866416 8.24769665413917 0.6083106666650684 -0.6388525440076674 -0.6823517528418829
Ni 6.924495415974522 0.442914193441357 8.148386189546258 -0.13580361209659192 -1.8907743524113112 -0.4308217590145483
Ni 4.9841140734805816 1.4697539926929737 11.905181371000545 0.5282202889703806 0.8530699174274727 -0.7663512357829899
Ni 6.075476715726079 2.9142690042311186 4.043917366923046 -1.0041229994839675 0.6876680228484738 0.6405299317100904
Ni 6.196671706590675 0.5734386756252049 13.495223371835111 0.7791743556895872 -0.04870749250803224 0.8035908368607386
Ni 3.223223230676929 3.1175067977551527 12.69529683795915 0.21183498923055774 -0.366490186816014 -0.39168931178946087
Ni -0.0724462808938201 3.445585928928646 4.832429730408811 -1.5712137402673005 1.1631326173833776 1.160233955679344
Ni 8.207189977014687 6.540330683117679 5.247459499687028 0.3081886228616434 -0.6403705233140907 -0.37422355090452974
Ni 1.0646780135017213 7.814047496392082 5.839696197941778 -0.4716092253445555 2.005171216697353 -1.384008376659965
P 3.8541885516012186 4.364161456482295 10.543246906193144 -0.050528090656538786 -0.9694151636891369 -0.004593532907953379
P 5.415718146326363 1.1412236721445854 9.652217871168784 -0.579397326064828 0.419895856130664 1.0398461639171899
P 6.301623879959058 7.286570285354372 9.729614344061451 0.24097458690899143 -1.6617301983913186 -1.7783340976310085
P 0.1295640933715719 2.5055098464692964 2.9885927854012864 -0.9190395394500623 0.4692031870062242 -1.7946685731249739
P 5.9312802746882785 2.9412114554748356 13.143359194247521 0.8217543951436428 0.33887833863601635 -1.3274374222434557
P 3.7041450645826366 2.959351109934891 4.027704935650041 1.2746292773034886 0.8109364785925324 0.29293298225415354
P 2.6193108563534726 9.04422913896235 4.2791408039485495 0.20297959572245688 -2.444200194113042 0.5546918528983479
P 4.669911317571709 -0.31920911638091887 6.865628093675749 -0.7847811603534032 0.8318886553641673 -0.28972424550886877
Ni 8.644613472001968 3.8344743383022446 11.759983105391546 -0.30560517840518336 1.5821224167600043 -2.0131184965688877
Ni 2.620240858942542 5.433756513375727 12.208529799661948 0.057854449114622945 1.260121570605617 0.950038816045054
Ni 4.371279199069921 2.0087687606029916 5.9400167742576695 0.6702500844823426 0.4650724526673023 0.024629625623222098
Ni 8.307897287080488 4.8796959610049315 6.985112248094314 0.5596314562918103 -1.299377430782446 0.5676054756362224
Ni 7.396338214703775 6.19310823132365 11.31171909507644 0.7170179367655005 0.42192574207649913 -0.4147539069184083
Ni 8.66502748922935 0.6000118882172224 1.942985349743332 0.06815043172399232 0.1181139081263127 -0.33475737448910736
Ni 1.303200657731813 1.8390663079639942 12.005030500459405 -0.8277941735798195 -0.055579022816884927 0.26819434185689295
Ni 8.513676473818217 8.035894549643919 9.222295169340468 0.21163727139745486 1.5467892886763488 1.2410018190570304
Ni 2.625912953941219 -0.17407530639690633 1.9860030338583006 -2.4493933082782076 -0.05093226807349292 -0.45393057711786977
Ni 2.567193879579912 7.747888401318224 7.7010116668559405 -0.4325060886955067 1.5145749087273335 0.03135460305188149
Ni 2.2029551427898513 1.1496121113390578 6.1072496556650995 0.6852583849657166 -0.16733510704596985 -1.9835803779004546
Ni 1.0827163805510862 4.612361652406558 8.597755153432537 -1.0908421953490826 -0.5875268971504978 -0.11982523439046461
Ni 7.2973251667804355 2.1200007534341956 10.822943803663634 -0.7015540368019465 -0.543705014869541 -0.9924509624626779
Ni 3.2547880710267107 1.6717302975565878 10.550941987021705 -0.6042498663321335 0.9326103361559617 -1.061194547685979
Ni 6.761155654316182 8.766977872062718 11.081158562121276 -0.7082342770355996 1.7212327246323258 0.03165002280511323
Ni 0.05072381447924284 1.0357006060977645 4.631558379116368 0.4893292683321379 -0.374738028647103 0.6723157087621195
Ni 6.212039769176377 7.91700154538593 5.67099372828469 0.2709189398769077 -0.9372714890770569 1.1897455919852156
Ni 8.17041343898755 2.128729886646446 13.136363917347367 -0.4974932922001691 -1.1692186756764573 1.0708549535938783
Ni 4.708059839616385 0.10517960964511539 1.874280257482568 1.2087637849589312 2.106243338850031 -0.16027511487539495
Ni 4.980467726695718 7.2713955896436255 0.7018471717202606 -0.5804725614068776 -1.1996178567936049 -1.2826863432800104
Ni 0.4743178947286767 2.4536783160349547 9.729169600249055 -0.9362528180045553 -0.8265464172156475 -1.1336770311264217
Ni 4.949713185631461 7.328991294540908 3.0904234649311113 0.0016092534686488412 0.20398206884504227 0.3534099565932881
Ni 1.1519325138385168 8.684631207171208 11.95818507301497 1.3572804737468174 -1.2252175596395802 1.1498538979966004
Ni 5.755611072764958 2.420750699614062 7.9529060908864855 0.8332976198965519 0.8706603768157263 -0.34820424402263256
P 0.6949725189182923 8.205753537372164 0.6850942339920244 -0.7283019943197522 0.6217868467746324 1.8481873709787202
P 2.6675973274136413 7.252666626612279 10.943371772590906 -0.4387358716553025 1.0154121992445417 0.10139145316530926
P 0.5193594854681731 6.696331711474157 7.92805476427621 -0.4882769158082236 0.4307747078266968 0.970011402512239
P 8.293431603244576 9.00815240486362 6.310344726019523 -0.4440971359672158 -0.5740604872329469 0.19285407725268075
P 7.752676533459964 4.108475200113348 9.417303821143207 0.7825954655559941 -0.8943808603611176 0.8257961693131842
P 6.793825448237135 6.258954256219008 -0.15020554687568696 -1.045888770566844 1.8599709938772095 0.5503073506774071
P 3.673178740750572 5.350102320091663 1.812489412193406 0.08540510503938195 0.19701669327080265 0.031195708876514013
P 6.552595667757675 0.8589991933800419 3.006490270870327 -0.4437639209975132 1.107770595673305 0.04984957653227544
