# total energy = -340888.9742267614 ev
CRYSTAL
PRIMVEC
9.08630384906687 0.00000000000000 0.00000000000000

0.00000000000000 9.08630384906687 0.00000000000000

0.00000000000000 0.00000000000000 13.29872414077640

PRIMCOORD
 96 1
Ni 6.252440203025647 2.166338410946058 11.343146473627092 0.9015701790207054 -1.0782175646065366 -0.33717292590913545
Ni 4.397789275871427 0.44214318387034357 5.946910507408771 0.2721828941909958 0.11055075106707413 0.44516800043389143
Ni 2.6727181290966335 1.5649250399669012 4.807914141944912 -0.7894842222560274 -0.021870574820846204 -0.29252906194751555
Ni 3.3600879352759416 4.533802159434965 4.930249412199063 0.7292376187601441 -1.2610466535230476 -0.3346036225200624
Ni 5.011269258472763 4.386540431603163 3.0012825138124426 0.5929400977462692 -0.4115911929197105 -0.5179495031719918
Ni 7.07873051002685 5.8190416780598095 2.6478162045396 0.7417470640810645 1.3989495713508293 0.5971507933935071
Ni 5.470809079852008 4.581941397668623 11.665136008817443 -0.9090279208503312 0.11781823126276485 -0.6993050928667698
Ni 5.77747183756925 8.065275959483134 12.437339183030863 -0.4775219912845647 -0.4252249816530612 0.34468954600115476
Ni 2.012598148410481 6.3507085800541505 0.3418621905208223 0.10437984636967186 0.18249741660870505 0.8937766511182156
Ni 2.904019081998859 1.7203371824260334 0.3353872903386206 0.5102367079087664 -0.1439709783987327 1.291873409095917
Ni 0.08671241568732405 9.066414013054791 4.888597794973112 1.6262052660118316 0.9277144415162409 -1.6765338390630546
Ni 8.732537775060123 2.3665914633114005 1.0157888100322001 0.20675294672196007 0.5777939861334501 1.5223463251426363
Ni 6.827139840443658 0.9985302843430703 4.666056947692079 0.7929462126626989 -0.84978533313893 0.08284094385663153
Ni 0.762162808368159 7.396523990061237 2.275996469953778 -0.9414659867743786 0.24067248228754032 0.5150199882300227
Ni 7.501570749823282 3.647087931283551 4.109000186619536 -0.9269713927026293 0.46697892566139576 -0.9854223377506706
Ni 7.566028989919463 3.746055953714846 12.66546538133912 1.0304575236134381 0.5593617475701915 -0.06383123552334813
Ni 8.36168936636467 8.870695026351699 6.954315384802579 -2.506285650589877 -1.1851307189210236 0.7145378506561242
Ni 7.299109725602376 0.6119807424524948 0.34563936706550547 -1.460728038110207 0.257449187525247 -0.3439629522477754
Ni 1.77600896661962 6.591686446644342 9.447333681028875 0.7179571607503183 0.08411466836273256 -1.0405617019269757
Ni 0.12511295336627543 4.970553530551845 1.4645622698819887 -0.6103107278142328 -0.3373675584184448 -0.38928533033365853
Ni 6.566726369742142 1.5103799574609278 6.917078802657364 -1.2351451031659373 0.0729275413976615 1.2073828454510045
Ni 3.669431152653231 4.230110623103606 0.8753072821947263 -1.1723682770490325 0.33067626244119824 0.35450318965746686
Ni 5.917846147020322 5.64825550934712 4.915540503393355 -0.2961224357257287 0.1869739643228199 0.09260805054572438
Ni 5.548169871532145 2.904782331529178 8.962196832841771 -0.31927033459710175 0.17448225961371241 -0.2550027828672834
P 0.223126005254279 5.598935051602255 12.506971164586131 -0.46005828728216247 -0.11614212911192255 -0.18186286834849968
P 4.0144835444847065 5.849717040135467 12.887620969333422 1.4692070221154956 1.081365623317215 -1.004099859555516
P 2.5241843187143 8.271207951806202 1.4774620955747642 0.5192723357484734 0.5343757670488152 -0.822430852385377
P 6.3598221428983095 8.300066053095387 6.09348894518486 0.41226585038923197 0.07982375429686253 -1.333602156293271
P 4.981166333544844 1.0032006445643047 12.605275886830364 -1.1949970701921417 -0.6339373660942372 0.02183509359722046
P 3.6316503009024665 6.074330473343473 8.223213185805069 0.13873466970045786 1.8074870650458807 -0.004339507915618333
P 4.868114540018388 0.9024426202583344 3.74957507922785 -0.9021995850745881 0.5193625814694346 -0.14861336226675048
P 0.10248896520508545 5.8400401264475 3.6996122197949672 -0.10020103240163387 -0.964326950532952 -0.1349034688798257
Ni 1.3773655541950698 1.0436346970633188 2.640554430436856 0.964253159872223 0.03141296709364268 0.23322708175308868
Ni 1.938735583744304 6.375641398044554 4.8931454900912605 -0.16844916604575505 0.776758804269559 -0.11798329608571939
Ni 5.866826550440105 5.373458419520674 9.093813762562831 0.5465993056982006 0.4531080812165745 0.6513344785247621
Ni 8.742514536777858 2.3623027278553255 10.138188993396637 0.3690150101203967 -0.5445637633254105 0.9992561583099693
Ni 2.1012532158785437 4.981847806339772 6.937572052546415 0.5766452172409875 1.3518898988588652 0.7642951245849094
Ni 0.4564195846088719 8.862917150185597 9.252933117026368 1.2736085493484581 0.4577224400601343 -0.6657249429184793
Ni 1.7280605407685417 1.2022088732909133 11.60042426084155 -0.13876629426934164 0.6159602127905263 -0.8693701972493931
Ni 4.363288579840247 6.843331634051128 1.6042787309283575 -0.6533139708486362 -0.04263711794423625 -0.6527452428293598
Ni 5.625666957771267 8.123973482886196 8.002175213194446 -0.8879685290768707 0.0702322539536855 2.2437269097522066
Ni 5.2395172132537144 2.8020889244856138 5.155117261917177 -0.06376695794431599 0.48026201592354706 -0.705201660856863
Ni 0.8612516786417543 7.303734654303948 6.759408713671039 0.05383375799100406 -0.16954985530910155 0.8757848425264853
Ni 4.761977423784458 4.783675517574941 7.024359884556377 1.0042088743295543 -0.4177978359510547 -0.7658472995633778
Ni 7.881105665078073 7.16737649119098 9.373685553135502 2.028976803757383 -0.4133472563788688 -3.410769146602635
Ni 4.664163361952574 0.23626389211008228 10.41921837909029 -1.0081295495401994 -0.05361315733976573 0.17194406657289096
Ni 7.67377438194942 7.221603553059321 4.764201750987101 1.1057137131442765 -0.06763209732667708 -0.38668311682412115
Ni 7.159871204142849 6.386653998410576 7.0786187484884815 -0.20397229865302932 -0.2517336251977084 -0.01196848521578584
Ni 2.1913802645836498 5.310717490867709 2.785643622998431 0.8346546481450787 -0.3148169268114385 -0.8602708060512863
Ni 2.468185427579148 5.305947181303218 11.52269274796097 -0.41776158339648056 0.10439758698148474 -0.34891875359115393
Ni 0.6794102039345588 3.456002959585963 3.56806071146222 1.602682243189227 0.43904928913066316 0.47680465350256585
Ni 3.700969713602462 2.4785165551502444 2.6958373208221373 -0.4365846296402545 -0.3969634157042067 -0.13371741899152456
Ni 1.377847128303485 3.3786966857294205 8.444317488434399 -0.7488456227990586 -1.0469038420949195 -0.4169676267402754
Ni 3.552690319730235 2.790803735001619 6.800502431835544 -0.8524896194439706 -0.94169301518352 1.3128124732414292
Ni 4.342462771227271 7.182659654405215 6.263579103016331 -0.9656850072227433 -1.3578543439724162 -0.7851945937417381
Ni 1.0108603987792866 7.495800946826232 11.53139015808503 -1.1367225028209649 -0.33444292857248203 1.0726305574370625
P 0.16846189216679155 5.743089263489189 8.125946119469912 -0.25061056733685866 -0.09649864384938218 -0.2773397558015868
P 8.529504313691477 1.4760700738123262 8.158740407622597 0.29546089088232985 1.714523173822634 -0.09201952503210604
P 2.1237145591993447 3.300172847145942 10.72266821973705 -1.7653420562467144 -1.1175973519557398 -1.2310755610822541
P 4.152231912099325 6.221228749017981 3.7234037980114656 -1.2815164913416253 -0.04796778612853029 0.7629075002087636
P 7.135710721986696 3.8554368804526287 10.33263044576684 -0.08246376302287088 1.5759281150238342 -0.5277304938181557
P 6.19964877717862 7.768835293689799 10.332124338637808 -1.1084231416556394 0.22393974291389174 -0.3471781167509634
P 2.2862776228532464 8.460684647707762 5.624535712931686 0.12435371838843745 1.3068837664618203 1.4195261099506005
P 6.757257076899855 4.040970120447543 1.6005151838395728 0.6732503047612469 -1.2768303987198655 -0.4480828600878412
Ni 5.3176321681602365 2.7638901027539613 0.43950997299074485 1.305751709739906 -0.010352546878917655 0.3227788619709925
Ni 1.2214809239314546 1.1096285225240694 7.017750507075977 1.9290411092019937 0.5702020327188051 -0.6264431145997211
Ni 6.880176596496859 0.7368292843743386 9.261763187187837 -0.8292815567586234 -0.08976389622870992 0.19030354291668516
Ni 2.672109346733165 1.5586009724299767 9.247440446299255 0.3767763992333705 -0.1300314854995051 0.5843366723479744
Ni 6.476917341674668 1.9819318726387567 2.5137377950832622 0.04203085181880503 0.5508434256865351 -0.7362821843117513
Ni 4.288753628683075 6.561074688696212 10.29744191652798 -0.5021135645809998 1.3870106538213984 1.0240613902791074
Ni 8.333012991154133 7.466670256419076 0.08930019504726094 0.10651051955942946 -0.6089048486056416 0.28051738219862016
Ni 7.6891029766833165 4.121665585670857 8.100132838628463 0.6803820307100219 -0.7743324542162535 0.32034145617409343
Ni 3.1235896165244044 8.472306030437254 12.630184171800149 1.041771920184993 -0.13529401945002503 -0.20555584109006533
Ni 0.40579342498892645 4.753936044804318 10.042598350137002 -1.30997397535137 0.14395709444166174 2.018449421863498
Ni 8.464546326879017 2.5700883261805965 6.0821983039185055 1.3483813714849746 -0.03435225222762471 -0.09358609818827754
Ni 3.88712990856871 2.815718380384158 11.782017679451391 -0.11001750427142343 0.05800177332576462 -0.8012377632475298
Ni 1.246186584323549 3.5729073459797416 12.800713198111554 -0.30896432468540336 0.0779566191811367 -0.3274395006714554
Ni 2.8695002133598133 8.438023405700449 8.15312870631397 0.890746091822008 -0.28208035581036583 -0.5897061641900038
Ni 5.722136246621162 7.7743506801767435 3.4660996605156043 -1.1231874444490078 0.8467357476793289 0.5277706030274716
Ni 2.915758586679472 8.249982345820204 3.6036753883555086 1.6029514376902136 0.28669420043329336 -0.4515852168141448
Ni 3.513555608693548 4.3372018012504325 9.50482454326972 0.7783714001723177 -0.5751555200693385 -0.7682479385850705
Ni 7.3644493371799955 6.165002700284521 11.259870498086986 0.45060279829621747 -1.7868045969958646 2.002703728993467
Ni 0.9681275113853846 0.33127392054843996 0.45995233957777454 -0.9221767995274633 -1.4715528966398528 -0.37419963964512976
Ni 4.787864303687759 0.32916953255770476 1.4521412924064487 -0.5133814241853352 -0.42348305926129 0.2423940929643374
Ni 6.285632471290568 5.726406809469371 0.28733891514428644 -0.3137504332201371 0.9168780130223694 0.23021066352426803
Ni 8.078887242773813 8.811861208389649 11.018844474085952 -0.21922485393672567 0.7201724232340823 2.352797733839645
Ni 8.970935131333524 5.095199447895998 5.973109047536952 -0.14448314214846086 -0.5009655670194856 -1.0202906103827656
Ni 7.773696466293613 8.759896636200466 2.680065314456342 1.2204468777238144 0.1298831328470989 0.21626525708776947
P 8.58354056317724 1.6815568372427094 3.279598729151893 -1.8460577262302271 -0.6640519260914306 1.279286573569842
P 1.7792618634274058 3.155909599611819 1.6253698596161579 0.2690700595936269 0.5081194044554476 0.39744369777473487
P 4.5858394220556065 1.0840960084741302 8.247868871525535 0.062411472357686064 0.23434679717982868 -0.621274168804272
P 8.789027326607622 1.3833988600061586 12.317478113337494 -0.6566448349940821 0.8124459732585234 -0.6856841596492256
P 6.440290450523314 7.854092083487159 1.282139271723122 0.31180230835483075 -1.4843171382840565 0.017219192091763893
P 1.530751450877285 3.2621194062772068 5.807087736606393 0.2650246858796597 -1.149630983352517 -0.08388146930600393
P 6.8381342682018165 4.133159760145295 6.093661584959575 -0.5960385341659348 -0.5241792861317875 1.0178030680742214
P 2.4091153657148583 8.561715261131704 10.393697677235465 0.9668430320865865 0.4096178712434236 -1.086449979818658
