# total energy = -381169.7083922869 ev
CRYSTAL
PRIMVEC
9.20859764042142 0.00000000000000 0.00000000000000
0.00000000000000 9.20859764042142 0.00000000000000
0.00000000000000 0.00000000000000 13.47771346606732
PRIMCOORD
 96 1
Ni 1.5153760697353365 8.382687911575912 13.034916664275723 -0.9623914240731359 -1.960767236660681 -0.25060645357180067
Ni 4.709608446722866 2.170309965565555 0.8694122690645372 -1.157995039046496 -0.6259564047712897 0.7012899845072825
Ni 4.132634540236291 7.310742662399734 6.53162345777073 0.49882460941708284 0.059570403364465147 0.0027613647952210506
Ni 8.93364752915441 0.5501363689312813 3.6912360572212095 1.6624328808852982 0.7791933818529807 -0.2591733693052053
Ni 8.560156009217149 3.443601206591341 3.101168445460866 0.20590653956126473 0.0023574444885830366 0.14973256347285827
Ni 5.232251625932392 6.659961844196964 1.6889194629756439 -0.28082822857081957 0.44003273608985505 -0.292310003958174
Ni 8.711609817950306 5.271636798909331 5.224083599645146 -0.9603823640629072 0.7219480270772664 -0.45124480275559065
Ni 2.389502220035996 8.728415509014818 6.360631766992876 1.2724106723856152 0.882798811950473 -0.2885600499974385
Ni 6.023601690217221 7.116026860997495 8.483789107300442 -0.1602224072605886 0.03490478229698505 0.3983872926349268
Ni 0.17613377181370285 6.459720884088585 2.7218782714615113 -1.6617322552738478 1.116764314531483 1.320889336712293
Ni 8.077800445573232 5.579535476406859 9.626577941406756 0.7467185491537268 0.09392342692303825 0.22066749992052317
Ni 7.90085723800908 0.9298105414607131 6.790260741104093 4.01264537049627 0.21198539876549297 0.45954046710547947
Ni 5.980975090799347 4.772751802136209 9.31801992830363 -1.6342541044582373 -0.022500752205677377 0.007804840756399461
Ni 0.0522827351166397 7.700183473802054 5.819582442413627 0.7945891475827607 0.6168181899154473 -2.2060304236426975
Ni 1.372256042050608 1.2953182070676004 11.345431793392487 -0.07629491520799762 1.4999034227580876 -0.22418271216263325
Ni 8.536011065671316 7.061244912426111 0.49562239055714513 -0.22455063702501324 0.6793458761360236 -0.8896973388425193
Ni 7.97565867829238 2.587735705814477 5.177477044239282 0.3435487475284922 0.27050036428225027 -0.35596203359118045
Ni 1.858681805941382 6.868766800299861 7.611889595958357 -1.1383790645877814 -0.712237998878354 0.3915404449164225
Ni 2.0117563278950072 3.4169607330299003 13.11517696136069 0.7771110454026552 0.527551287927814 -1.4030746492627966
Ni 0.5350149304123588 8.955094353532079 1.5390062526617154 -0.5380259622068928 -2.5162170507709765 1.6878783175415963
Ni 0.36242646876842954 4.270422789769594 1.2898952637975234 -0.04866686907808393 -1.2884715825032198 1.0350186606215592
Ni 2.8464144278381354 5.377139704403085 11.430246662970882 0.30697763327267774 -0.048155990879936425 1.1550858358195009
Ni 2.7557005304811506 1.0391350150595482 9.4796980432225 1.3149421179899226 0.32473110060135685 -1.3829493392678311
Ni 3.6933291715110523 7.944653329353088 9.05543307735516 -0.4002508282062268 1.542588363221124 -0.9348975895282415
P 2.422957056001677 1.007742905010826 -0.2918407245779147 2.119053860351138 0.7981326419596448 1.0316296895446684
Ni 3.844304133156344 2.610738783227709 4.0407124748422305 0.26906080362224627 -0.7973857364912912 -0.17835948318093153
P 1.6722169082069807 3.627524531320918 10.966074396628873 -0.3114652367303861 -0.641354998714547 -1.1824074064525896
Ni 7.339630033835006 5.359763080272272 1.6201828052321172 0.49046878125321985 -0.2917320199675169 1.8797301787820078
P 7.236116185475462 6.221291868722932 3.7187844985300265 1.2304068171500036 -0.7092730027127591 0.2190389631781647
P 4.329993209219633 6.785346112434981 10.639671041764696 0.9900834906717658 -0.03461296208817909 -0.27965400575706034
P 7.5339590741278135 1.0729581949389722 13.505073598356269 1.1741392529065262 -2.724531428442785 -0.3999811194846079
Ni 6.920344156821683 8.072616004987303 2.656012854525609 0.17428377044966115 -0.3580520833509898 -1.3603477998182314
Ni 6.022846585194049 4.253736810477049 5.209284462050749 0.7396737264918035 1.3150333921521482 -0.0954635177166485
Ni 2.489157665899085 0.40453186154835824 3.473584401169998 1.9724634420516869 2.279199905847836 -0.38348954958748793
Ni 2.753775933531845 2.5287638452242693 6.460542291016232 0.7224910440649299 -0.502566078737386 0.16144188148998648
Ni 3.5971637842306756 5.622705383097504 8.437183472754363 1.0315785245917588 -0.6121768344886941 0.7066000838662863
Ni 3.274347178226568 7.204484651882806 3.573952592506179 -0.9845743879280784 1.1255903974635453 -1.3696361670986927
Ni 7.084008566295411 2.6812029739266885 8.16082332201127 0.09711673704935532 -1.0832641258915086 1.1773022240155402
Ni 4.939114330778103 9.186147282025034 13.499413073261827 -1.2375292871273977 0.250545004206246 0.5735956317813864
Ni 3.1249376782146827 8.577339252793246 11.430193253103388 0.5957107185128708 -0.10095205163504549 -0.6381596317057009
Ni 3.2561049458984606 7.9744983949640895 1.2485495803396887 -0.8047136376112722 0.29400924603746786 0.021529903651975824
Ni 4.970092053923864 3.9895605555407805 12.092690170342529 -0.37619070193322957 0.6391225098396025 -0.05821517488815135
Ni 2.1633206398022873 3.6176897488239876 8.530517216197842 -1.4009213503652196 -0.3238612964018938 -0.7018594838575074
Ni 7.4210892903592045 1.2038584132852863 2.1844138540227633 -0.9798813533277833 0.30563191787806077 0.11599583334204538
Ni 5.325838605816569 4.2866299219742725 0.8922403831187413 -0.2287687888714189 2.0057479151364297 -1.0589623159213506
Ni 8.754043036813465 2.471311403278251 12.397555535710387 0.9289372581797486 0.7657722233510682 0.15462357301657242
Ni 0.3889417053991982 1.2862937811809039 8.867728702351014 -0.012518187071668763 -0.3340230674262441 -0.6648134868478034
Ni 6.036438475611155 3.4969281967034416 2.8651732625052673 0.4380295896168972 -0.9459409918265967 0.9724002144593898
Ni 6.116184932936451 9.222594912289875 6.947222212207488 -3.259436071411877 -2.8418701489659703 0.5558874158683458
Ni 8.79664201043781 8.955646869402694 11.698857778628613 -1.605647753575454 -0.9362764721536392 2.259571847204263
Ni 7.170587803220634 3.8586419199987794 11.090419935030136 0.9889254658079225 0.4451407467403818 1.2051346728467762
Ni 1.165209928135833 3.6569644186268038 5.155765012243719 0.32373017014066824 -1.243756241873716 -0.27372735585998015
Ni 5.2383753434983635 6.5228550309040845 4.1889948424780625 0.5689622467744331 -0.19535164686355388 0.71247402614856
Ni 8.381334247692909 6.795714993606839 7.681676954715836 1.110462026462539 -0.23453911569629282 1.022743442798632
Ni 3.9345299748276203 4.829522807841804 2.6781291439665056 0.20441709949993184 0.077763272223408 1.2684737992250543
Ni 7.750517669614994 1.4388618302531329 10.642798281592372 -0.4532842017831225 0.06470026839186277 -1.2905708882344096
P 5.967816004480889 2.506672418997551 10.069698432218585 -2.2411542639290243 1.1458293502182397 0.19848222207273558
Ni 9.211544594877594 4.943433163166735 12.746210546403761 -0.007399634898180805 0.610934991661793 -2.3927524198557113
P 0.824817792287492 4.8770575899103 7.0230752743645235 0.568606406096911 1.665395563058048 0.620308719567209
Ni 1.6731101421978067 4.933598380669806 3.4224628702414317 0.557233388373279 -0.5002615989739255 -1.4141175373405195
P 1.220222091653306 8.176442945673529 3.8021038918186267 -1.9699550738075364 -3.297306621205405 0.7944436231438318
P 0.6103136349792115 8.678670663463864 7.6480232130367325 -0.8800981251898586 0.8106325741988686 1.105663062411999
P 0.5444307217074067 6.782380943929352 11.4812061225774 -0.6513547902397363 0.5260855020155649 0.1440105733874165
Ni 7.29545638997941 4.692729086875606 7.338372139369573 0.14534600436938838 1.2028857289115993 -1.036049158768603
Ni 1.0213808384171497 1.0475700906842562 5.600919682319191 -1.4474472618409007 1.4448550756336924 -0.3116606405706439
Ni 5.524293097943296 8.919834632389058 11.142955906587472 -0.29126305075089837 -0.7038636587717297 0.42366200804131554
Ni 5.901698271964072 1.853036935463275 12.422786172941976 2.1980345499214144 0.1845833526034563 -1.2487938042976234
Ni 4.682590420649839 0.3048303726960513 2.4842798716213474 1.0331643810216402 -0.0010533809651788312 0.40363414285616295
Ni 1.0480949807613396 8.567734685242405 10.065803195330757 1.2455732404777968 -2.067909990487471 -1.4204640483838376
Ni 7.93887953850517 8.666690277669383 9.191261737267352 0.4750812430535559 0.014123326775259548 -0.7844615722304554
Ni 3.7501370116080217 4.725244645861244 4.966915087667833 -0.04468423028125208 -0.29601470650327083 1.4364758504310615
Ni 9.08446594463636 3.4034056770041685 9.666081905295878 0.4142070332760028 0.41339919266272673 0.7630908198641632
Ni 1.4458143216250265 6.182578923388573 0.8925774177998159 2.2789335395603265 0.7629432385427053 -0.8769557229061348
Ni 7.172144056256196 2.999903336694721 0.6561678479412566 0.7347243529063282 2.1108648967824424 0.640527103496613
Ni 4.753837342165522 -0.1341048103958757 5.000717087772218 -0.4921654522293523 0.4726633776406827 -0.7343037204291418
Ni 7.2055068062434415 7.269276346310148 10.87662299803624 -0.09875967196941701 -0.7020124644956038 0.47983984078446396
Ni 7.337327884374114 8.75462317847761 4.790491245022058 -1.4815573161507325 0.9687567041695315 0.533377664801604
Ni 0.8016047588434267 1.7629584313574964 0.8579088886383524 -1.17760972795363 1.3197426247023594 0.46916899133417905
Ni 3.8347363999968778 3.571149495322597 10.044333349458478 0.49336230075093096 -0.5197011957557759 0.5814202700321277
Ni 0.05754176534510119 2.936658686705099 7.18122281287017 0.4567536483889617 -0.20704271004823696 0.32212657309897424
Ni 6.350147778347974 7.5479745600457235 13.044580166852764 1.6320779227425246 1.5045653470101314 0.5972816625444165
Ni 6.734846161860856 7.008369143608346 6.058717757233882 -0.34453039471547114 -1.1293928019287711 0.05502083632056976
Ni 2.173358011451776 6.220905107613501 5.28283261216754 -2.1265694520018923 0.5814418672986825 1.3167097514133066
Ni 3.868274113343151 1.7315110697217129 11.654070842156637 -1.5991953130818908 -0.19803922099804605 -0.15163852224631946
Ni 5.848776460157089 2.1729988761358765 6.10638790569068 -1.7405121416872282 -0.11044739271999043 2.1822204657072937
Ni 6.925031333124059 5.449813958584521 12.897174457731639 -0.3875202680134358 -1.0808190067851258 -1.1425738193954194
Ni 4.279244626503731 6.751808399088708 12.810607191983614 -0.39809444398485627 -0.5495306204123827 0.3814583780900721
Ni 1.320945734866249 5.6867695982952045 9.710449850565972 -0.7503065236153014 -0.0193956309177924 -0.5042933458411379
P 3.4062419251399874 5.172091856220364 0.7064992811748444 -1.1797185467665166 0.5259592608503457 -1.6700937398646658
Ni 2.5404311386920697 2.9980431999303208 1.8309068331256133 1.4999191064873716 0.4612530789212121 0.33404260781026984
P 6.13869074606613 1.696490772122625 4.197068020207518 -0.2938446954351455 -1.2484438771573725 -3.0335255779248596
Ni 5.940181002352342 0.6354761285867602 9.15621933903344 -1.3943964047625084 -0.015790172954721193 -1.1129200010847284
P 5.171530131751907 5.578734328394468 6.8815989813948715 1.0335474753926714 -2.168670237826684 0.19950732090314027
P 4.077042235054673 0.9629614936975566 7.322657667149525 -0.07593778897889503 -0.24493177178452652 0.196219651290804
P 1.3202827158215122 2.2706100132776936 3.3169728567846586 -1.097621165944129 0.23181477478659432 1.2613533861301889
Ni 4.613056298333059 3.354922409357785 7.828355184607318 0.1979338057684333 0.016417522126074953 -0.2998749607896255
