# total energy = -340859.19694491 ev
CRYSTAL
PRIMVEC
9.30510042072285 0.00000000000000 0.00000000000000
0.00000000000000 9.30510042072285 0.00000000000000
0.00000000000000 0.00000000000000 13.61895503968851
PRIMCOORD
 96 1
Ni 3.530652774083449 3.413576003532947 0.9551778392767087 0.07510063778958034 -0.010117290939659997 0.7997187554998421
Ni 0.12616320088292618 0.9914491198049121 11.888421182098893 1.0549773631316735 0.6304751185772497 -0.8298615976318096
Ni 2.054389324345121 4.089945125912129 10.239206626718298 0.26941278764502635 -1.3249300824405699 -2.174557549845397
Ni 4.023432269776778 1.7420822467750614 11.771080146703087 0.13089871859580682 -0.19750340309923406 -0.9895240186238698
Ni 2.516247972117665 8.483841349426559 9.659556576700904 -1.1789819257108083 2.064688141116063 1.5182230470028821
Ni 4.785315262872786 2.251489956502229 5.437803776132527 -1.5602924653691064 -0.27554821111880284 -0.07304606925339678
Ni 3.80597207841092 1.7726215855881873 3.445187289887594 -0.24740311614315452 2.000343456291407 -0.7228180883870454
Ni 0.7470394972780017 5.9064123435805875 6.5794260468324035 2.3132989044140744 0.5704974524720369 1.713248935095901
Ni 8.92256751813468 4.6918734467967935 4.903531908196173 -0.5466725821382972 0.19323999983718979 -0.1804644453390763
Ni 3.9647822232992853 4.414702427532147 6.04185831240988 0.16315500752635126 0.5706362920427464 -0.9906241936665843
Ni 0.9802457791799872 0.9864057555036586 8.12521813567663 -0.18277458152949166 -2.1742449037009846 -3.78709303167962
Ni 5.267365978050719 5.417959719474127 3.0777335360603777 1.9126366997020414 -1.4215976477676484 -0.3548160929121954
Ni 7.942749773563287 4.1552390139230075 0.31975301873954853 -1.6220639901499483 -0.008276123965863167 -1.47037224606819
Ni 9.155920820619619 8.611646900492456 9.880143281729532 -0.046773508710112995 1.9655672291524857 -0.011284314664567663
Ni 6.789047621800888 6.2481328428411675 13.09606872168433 -1.0307048637375538 0.09846939442250784 -0.8048527342922978
Ni 4.6974472018086955 8.414304335730492 5.411586656356177 0.4040072099248655 1.291173040594783 0.1637774716016986
Ni 8.314497831126719 6.358789094262767 1.016603597139928 1.9040669557551595 -1.101892282515657 -0.2580513398856201
Ni 3.3104941036634146 7.9025889611569955 0.6160162425675022 0.9943543501329778 -0.40926614433095965 1.5329336137401794
Ni 2.3976265549361524 3.9684205174723304 2.9459844835353066 0.2780882039318372 -0.4477920683202997 0.09686708293239446
Ni 3.8263223325194837 4.79015391496993 8.512622954814395 0.1386336253462193 0.1299147574159827 -0.7940888109075742
Ni 1.0310330159996215 6.758452452386642 10.350759889797907 0.8792388625133566 -1.3813362291444404 0.20266180737172196
Ni 3.364919634656094 6.355485783696448 2.70522804334174 -2.6938573963976964 1.343027306261913 -0.3777876141067042
Ni 8.07434250040522 1.6838044043050415 9.545089886752804 6.5336112488061415 3.00414198255642 1.9726891849092476
Ni 6.650494680019219 7.620402492891656 9.675069109222342 0.22114289689504496 3.8684370792757505 -0.883434131541627
P 5.738148216902418 3.2248220462434127 3.2320232632779886 -1.1047613765333362 -0.3673941866875221 0.9730170221077823
P 1.9265279426781012 5.652308667679053 0.7065148554544053 0.1683784607088197 -0.307140126992471 0.24213646842757652
P 2.1618353162022697 8.450194107151036 2.7283670359762913 2.7992518000748117 0.11016611403414575 1.5732701085756968
P 5.97098973887708 0.325442156993767 0.5622160143073773 1.3597716155997872 0.8297060458905519 0.6577036152758995
P 1.1314350470153514 1.87026930694862 9.766098112819895 0.6064854405308716 2.780999795843159 4.699676016871061
P 3.1226241308916274 6.890259196532871 11.133399769880644 -0.3997895722990921 1.4029661487093903 0.6437548664052913
P 5.847250516592819 4.464400967629923 0.753386506115428 -0.12487359544764946 -0.560244407285461 0.10604257878407544
P 6.024568505752759 0.42340532125053276 4.098379268721458 -0.04282480847501012 0.4809271603113718 -0.25280680365722913
Ni 8.48538599605757 4.574601269142369 9.813777446177133 -0.13664719104380982 -0.6299814667702828 0.13823279036337482
Ni 8.247473194481094 2.1152446795668887 7.107855242361456 0.881222725712605 1.8610218037392272 1.0853387490323503
Ni 2.601045350120107 9.01911723767307 12.467880477562456 -1.366933423455549 0.023909973848378178 -2.047918377856892
Ni 7.874645745295991 1.5574039233673516 0.03793968499169929 -0.18185515503901584 0.18602111349124736 0.8751790906216863
Ni 1.6419035381638152 1.6273782767721976 1.7049977004905306 0.9939892534840753 0.061582548698487484 -0.06671267083620123
Ni 6.828817619999334 1.349760612698583 11.578467364366078 -0.690239640230392 2.343500624808435 -0.30045114500806963
Ni 9.017339963537388 5.909175958336071 12.35638211457395 -0.8449192632958805 0.28472087875700636 -0.32747266790223606
Ni 0.6763030561678556 3.4404863532732155 13.349408448860526 2.043054107786056 -0.7685700978111796 -1.6650214675480808
Ni 0.2664050183485029 9.191038268724657 2.916390542901161 -1.3052552297194617 -0.6522389926169025 0.34910927233540523
Ni 6.814236528006596 3.203773909620838 5.172002658786149 1.7278600001408564 0.6772661107888595 -1.4798542174166964
Ni 8.055071637918328 8.580418984265508 0.8486502608079987 0.39540609851941577 1.0984534320374373 -0.9517313732561287
Ni 7.651704849920099 8.680793099980677 11.76459821391295 0.011854842456057002 -2.4433105924192375 0.5735820049346315
Ni 6.100637699779968 7.7715173199255245 1.8162922817849456 -0.07256321607970728 -0.6440914238091037 0.21713917505229058
Ni 0.35624110810210474 5.0176543094373605 2.5728657847143572 2.0166465643268046 0.7285524197676614 -1.7287151490523003
Ni 4.375844329152009 9.06313966665689 2.773118984814758 -0.6506510793044924 -1.5127887633611883 -0.36027223093076016
Ni 3.8704564227055456 0.861266115641282 0.4746773537899 0.8580995094315803 -0.13326799015893176 1.3658895555720671
Ni 6.50866634297179 0.7667430469235815 8.893218301635448 -3.2666035356945935 -2.5762939614582145 -1.3383671817820821
Ni 1.1282340925510872 8.005689471226901 1.0115053327475725 -1.7947940429592444 -0.9573204373081319 -1.446846137921792
Ni 0.9023174261354522 3.485150834169925 7.936895004525744 -0.4593152384685508 0.8116530450435827 0.27938635391797045
Ni 5.6872958443814765 6.590448868513704 6.717331353641072 -0.2262712192605458 -0.7659542574548873 0.061984412122596484
Ni 8.529166492436532 1.0220442892191586 5.092045793900888 -0.0703060446144144 -0.428179693406011 -1.4516381599937969
Ni 4.126597915547992 4.636042845675906 12.716072623315307 -0.20370156149014593 -0.9412415294683982 -2.231230062836777
Ni 3.8200693051939445 2.128039192323759 9.369650597320582 -0.44952190652721286 0.33295271718020075 1.1378126505613502
Ni 0.14704570672217557 2.691574669837627 3.5152974977551676 1.0424087824380435 -1.1341285168415436 -0.1092654565967473
P 9.106687535531183 2.730255971314215 1.4742926295187606 -1.0698900185774476 -1.0676379893184775 0.04469708579705851
P 4.4325309994900834 2.94042096413361 7.51730849639188 0.6608619583992231 -0.4732945834667785 -0.7730664430196363
P 6.288033112442228 8.468860138125788 7.287707010302267 -0.3691096267167321 0.1486537285863827 0.3321667309437957
P 7.998598984884549 6.977652697487435 2.8784480663794056 -1.5346300276059959 0.4057450185515786 1.5145031749491336
P 8.306514055166431 5.16701977763611 7.230902165191818 -2.2958285155434526 -3.0772523293888487 1.4726379021739153
P 7.375873765082353 6.220245457581284 10.933855618414476 1.793749403744814 -1.088183931790629 0.479516138896458
P 2.4530942571497545 2.1007566385760184 13.138764243381512 -1.559465855702753 0.4175718359831776 -0.0972208667273874
P 0.23410608509005063 8.063353177084592 12.56981878061903 0.8919349699237864 0.6443811871353805 -0.023935170659358778
Ni 8.340393924946625 9.032367700339094 7.4922089191479655 0.2122340244411893 -0.33205694483880877 0.3060813467106535
Ni 1.5737529843955849 7.875464594112431 7.649562815857095 -0.9243085011584854 0.8764101348153099 -0.1914361138592316
Ni 6.283678325554799 4.392342271783231 7.07704884717297 0.025195525429021128 -1.0361928834353187 0.8739004810195788
Ni 1.8963049772713272 5.395273885218672 4.878744982318536 3.189739121136371 -2.5664954873105543 -1.6477310558987492
Ni 4.638704104329335 0.664447428019835 7.7281034444939225 -2.266292710867865 -0.6092156949778411 -1.8681144489199504
Ni 4.695269808364982 6.200872238992336 0.5644455163121381 0.11795398550968074 0.21440866349500493 0.9590299638000709
Ni 6.180996544993301 3.1735137238133166 9.846504414044178 -0.06812549202332784 -0.21738600095577398 0.24833822636291422
Ni 6.513402638966879 1.0980483475450604 6.147146451533706 -0.4445529925577118 -2.496465579175662 0.7449797120857493
Ni 0.47334207191309213 6.7879217046782845 3.969040237144772 -1.0099578609981898 2.6233726601135725 0.3376850896588636
Ni 3.3848511592562507 6.552800433157851 6.855005893965106 -0.8755290177619373 -0.3090324589191774 1.2503639769982209
Ni 1.729911175730708 5.164386434283241 12.04397733345193 1.9000277526887794 0.9549601646060716 2.2591003068844837
Ni 7.751632320826302 3.9946515948989605 2.691214562460397 -3.5505831654102016 -0.1307249120221039 0.6054914520487185
Ni 5.994066387340381 5.499249074706139 9.311551412774149 0.6852858957695424 -1.260385622900281 -1.494269107290446
Ni 8.07875311789377 6.941772231167077 6.193260667039521 -0.901057758160661 2.4792319889061947 0.025735199982575035
Ni 2.3311509192015487 7.660795932802617 5.080469318758472 -0.3902302107454312 2.496072200391985 -0.36760501714674754
Ni 1.5934704916914453 0.7980668056824557 4.550351247545511 1.218537062295611 0.2986086924826922 0.05589372584382632
Ni 4.385493718045735 7.639775711480603 8.972453090746214 1.4834352498997356 -0.6175388701315558 -0.664654849782752
Ni 2.4186002507572324 2.3167652343127334 6.366370889894984 0.4078936894634652 3.3966620177772917 -0.27381425914683166
Ni 5.510657127535175 2.542451134243735 13.290506234167971 1.0991571429726812 0.76156487013794 0.9445567098845603
Ni 6.982984519894479 5.768678250615357 4.737652678695884 -1.8688626399398847 -0.30399823892937966 -1.8622770163025668
Ni 5.386871379749978 8.232975848390037 12.686124158364043 -1.1362789875256432 0.9414577592442624 0.16151258682692185
Ni 5.268380233971081 6.403983965870126 11.287961206023708 -2.3111602608045168 -0.38688443420164986 0.46978039966593294
Ni 8.672995426024126 6.692972462372028 8.705726115931247 -0.23717629620882383 0.04489506074047751 -0.7452082831567876
Ni 7.72996074249121 1.0161820761014653 2.5850405777987855 -2.1088206126589037 1.4103891806463387 -0.11292619327778616
P 2.587097004940072 0.38950218871987363 6.610721890290717 1.0169132092701 -4.200263396160992 0.05455778064122217
P 1.8581075410044532 5.691045799756762 8.49081924405665 -0.4827040497061365 0.0870953482576113 0.025368560671775665
P 7.955879269926883 3.3167378258887674 11.52903122809357 0.1073039619950023 -1.092288955097938 0.7079470848124839
P 0.2278921391852958 8.507922948710034 5.7231474648912535 0.7457752114038511 -0.20407025768347434 -0.37741737525147906
P 0.42166712853563576 2.936298804750851 5.522717467887304 1.15234041186388 -1.8419429327309051 3.1883309279349348
P 4.453774543216581 4.40613243026009 10.477538157803181 -0.20545196852234937 -1.0343185492307414 1.7137163616506226
P 4.131352821743454 6.391738454024278 4.809234022902993 0.7981694087348512 -0.9949238494832027 -0.515106634406558
P 5.290051812306173 0.3172099348584921 10.571427549198159 -1.5721930734614342 -1.0312861901623207 -0.2795038533324412
