# total energy = -340896.9780399436 ev
CRYSTAL
PRIMVEC
8.99334958664134 0.00000000000000 0.00000000000000
0.00000000000000 8.99334958664134 0.00000000000000
0.00000000000000 0.00000000000000 13.16267618176381
PRIMCOORD
 96 1
Ni 6.399020141207086 1.981082056876919 11.303501143518478 -0.45432961232850144 0.16951488830610806 0.23066857699729304
Ni 4.562865915104995 0.359152119164878 6.054081111943327 0.4348429643587995 -0.7639552247469876 -0.486076308612479
Ni 2.784916648405616 1.5227359882800133 4.882747673372488 -0.4016024571381148 -0.005360235870648833 -0.10171875459774095
Ni 3.2917098919565393 4.563162695645831 4.767890006729134 0.7740897420778281 -0.44127355047549166 0.9845435346901431
Ni 5.203974836758436 4.40256844965476 2.795318356694425 -0.11083717195924135 0.8892314549496944 -0.3075826138465283
Ni 7.336055235472735 6.042937452302428 2.642354967942724 0.1030143334807129 -0.16512730076137366 -1.6944369445957206
Ni 4.889711224062463 4.479236756037348 11.483474259491157 0.8783541459155583 -0.038603828415127064 -0.4348175104375028
Ni 5.549013692204112 7.848307442305092 12.236669097403539 0.283448439802486 0.0032431895276460276 0.8564015529038671
Ni 1.8550672405680828 6.371428544259076 0.38628415594207816 -0.30951788319602824 0.182135405283596 0.05477735285119598
Ni 2.945627807943077 1.7607809620795127 0.29406185121477574 -0.2615364702207431 -1.4118979039813813 1.2786047170114687
Ni 0.5777714575642144 0.028498126600017163 4.636961224132034 -0.23890253487131113 -0.5916362913331811 0.47653134523652124
Ni 8.51151302422622 2.2561526514831187 1.2831765343872787 0.4643731126074325 -0.17805326479442238 0.13882080165636093
Ni 6.822202212389807 0.6822768793422312 4.754095107590101 -1.1272677851659683 -0.3737311846491434 -0.5956127594824259
Ni 0.6873653166151072 7.4624567658196295 2.512531468026494 1.2498127324804411 -0.8671888733273582 -0.1355210478591666
Ni 7.599803202778561 3.9040041210997383 3.7433730023748057 0.8593272111910943 -0.520668958985684 0.526885372209041
Ni 7.448265259957843 3.9385565707328065 12.380063562050715 0.9050853912628154 -0.49464296723556744 0.7989415110141854
Ni 7.855277288339873 8.830156398236952 6.773249611181396 0.5382928427150342 -0.19669607670659028 0.643690331715943
Ni 6.706008133977719 0.7607096809403344 0.36458769973703475 0.687680364143648 -0.33951802910254436 0.14764122816146832
Ni 1.7386123550140489 6.363982050689014 9.241278387442073 1.4273615468346192 0.6957202037289889 -0.9184625839006698
Ni 0.1947707736057472 4.689393352348002 1.3897549232762851 -0.6878073766398155 0.0825943750634642 0.3609754276453719
Ni 6.406259787733535 1.8712822501173856 6.945615252623982 -0.731180858529444 0.2720952195731959 0.6548880002039753
Ni 3.4000797561102276 4.1851542201182115 0.5381575507074372 -0.24739720260588363 0.7717086434401612 0.03588694370459626
Ni 6.177990585082173 5.738062896716533 4.778235956249666 -1.678850403011373 -1.1768211706140637 -0.0967585823789882
Ni 5.358885285725014 2.818992450503402 9.156945049091167 0.7223866572765817 0.0648704754211399 0.06240067372440866
P 0.3006521778912755 5.178388756798499 12.409916087118912 0.2263954035432359 1.9997919546633107 -0.4096782921677138
P 3.9867609252443224 6.10012616318652 12.688503980801501 -0.628164468166202 -0.258341103211897 -1.0147655667994782
P 2.3274699147809397 8.527871927371079 1.2852566961780463 0.018086168077749498 0.06222763848165412 1.239193562203698
P 6.237850320833787 7.665697476193836 5.8184166778153195 -0.5291204321871468 0.6580309167083312 -0.082659938194077
P 4.789471348057731 1.0188655833888363 12.518244581863875 0.3122692206889202 -0.9263077909767015 0.434714152090419
P 3.8963327937866183 6.143743909339663 8.136377024599902 0.41780477792959014 1.309408332655887 0.4198662884443092
P 4.710248930354011 1.1107596308512748 3.7311051740186194 -0.1852793502292164 -1.148539550060551 0.0120121939695277
P 0.28448843043538974 5.51941657826803 3.538127674347498 -0.16515481156519943 -0.1757315586397812 0.6185002056035606
Ni 1.4616801370153338 1.178209753768508 2.6676001999481858 0.3786293932817092 -0.3659240298998988 -0.9784595332795922
Ni 1.6762524680396362 6.4844479702191915 4.870940304522082 -0.1674523493501245 0.7112059580694139 -0.672732484584564
Ni 5.988051038947244 5.756499263647243 9.181243281370874 -0.6900084980561924 -0.45738202600158 -0.44258764130122485
Ni 8.468237025362523 2.4120343822197055 10.118333235069828 0.8368627115399909 0.09816060493283739 -0.06253642797132455
Ni 2.2241722998706277 5.443521699961559 6.9010855808089975 -0.3262161697873156 -1.5149186652199975 0.6829374501420238
Ni 0.5581182904160771 0.02403922380770193 9.095830741053295 0.30209407992813136 0.12734185448248392 0.36663828235810403
Ni 1.5309649032759156 1.1824905882363217 11.181338178895702 -0.6451766864534824 -0.15831953381092087 0.50458542316026
Ni 3.919058988534865 6.902189064819923 1.5346629686817246 0.4355700723328112 -0.013205700056996611 0.4644443321650001
Ni 5.638038861105138 7.877922542940619 7.9476237012933435 -0.4135030652304427 -0.0893931431528525 0.004321253083173203
Ni 5.06191588454502 2.8102149411744395 4.982546875240826 0.015233529120302796 0.5924657292130119 0.07939155185545038
Ni 0.7805148356987787 7.44543235479532 7.080282570700641 -0.2514132657438122 0.2584796856722903 -0.13776433536738855
Ni 4.767851335325328 4.604280290576177 6.9181054951584455 1.0121132167782956 -0.6440258606784908 -0.54545439346048
Ni 8.187473640382109 7.1162667616094994 9.119708084565994 -0.13401438140665306 -0.09992669569432468 -0.2972280100850817
Ni 4.569323140205605 0.24087608029207894 10.351115300611838 -0.3473655501714211 -0.4578859622211921 -0.2161819533453438
Ni 7.9814180115448226 7.236606774243565 4.631142526861708 1.3621681408564217 0.36138011928295827 0.16492726893542564
Ni 7.229852768602121 5.970738840731821 6.901993909130949 -0.5510092618404381 0.6372913701681346 1.2206139994292977
Ni 2.3793795293780424 5.193956245167795 2.737191639434298 -0.505690997519613 0.3294549884395874 -1.150193026503574
Ni 2.3427496159591237 5.173694228243459 11.31239916373372 -0.22680215206335133 -1.145621862193124 0.6619186817985115
Ni 1.2175466654538385 3.2732015782280506 3.9758654820557586 -0.8264003785560865 0.5953638766964133 -0.10256670442033304
Ni 3.487441155312628 2.816033638444766 2.8757422859210453 0.2804209658300719 -0.414807385864163 -0.40716349616566005
Ni 1.1061010756951246 3.264612929243256 8.191410029555557 0.005191314392952349 0.43527233858673425 -0.32479717795260193
Ni 3.5714120616697222 2.416818844271968 7.103356808083141 0.39610826679276295 1.3105835839109106 -0.8031288096226554
Ni 3.9910957198104695 6.853759876565349 5.927627420168042 0.480741783773443 0.4717586064382262 -0.4903947334821748
Ni 0.7728839784594089 7.159479807025139 11.265316279932573 -0.3504107647556481 0.2504748130899428 0.7575572916404437
P 0.16268879714139436 5.492490489199471 7.955482090280688 0.3040710011488441 0.20652977496756045 -0.03894989890063614
P 8.416075596973196 1.6337768773012238 8.000406570148481 -0.1684273116688841 -0.26765826684776484 0.21145369463173908
P 2.007990159246034 3.300037733799387 10.133141684722563 -0.755530491018402 -0.4611139822401865 1.7341602313272715
P 4.218708407932104 6.296846695012061 3.658591795207732 -1.200461949961455 -1.8697591836122252 0.42844528836257184
P 6.861062476539856 4.113117488842606 10.281208194550475 -0.3629330655923749 -0.4758338049488644 -0.1673541332093634
P 6.3452578965671895 7.760883089654636 10.106223689668752 -0.8467997681480449 -0.7185153472466336 0.5159322156316468
P 2.2961910444467883 8.46243631479164 5.780849657355337 1.0625744587526411 0.0006995971701858918 0.5147209689323651
P 6.950501339528107 3.8276236019082632 1.4941218474685785 0.12784039138545727 1.8330736552657336 0.11366281433349457
Ni 5.391872892506402 2.934736861429374 0.3593175967997683 -0.5918054699211936 -0.27910404679086126 -0.1968907092158996
Ni 1.2460825641226896 1.1058672486023449 6.934374464806082 0.7198626053031474 -0.17369858737015245 -0.13331324157457042
Ni 6.840036024889123 0.7103415264856336 9.263759963077872 -0.03453454344175988 -0.1452886687688917 -0.8287765920977468
Ni 2.722682668327315 1.5290942865336778 9.047853018954779 -0.11866926640915046 -0.5051011864544139 1.105427549362425
Ni 6.3608973317342645 2.146901439056645 2.699928594194929 -0.08612012882853555 -1.5039043163873649 -0.19545449099000534
Ni 4.016465959377072 6.702140993597132 10.546949987489732 0.3682711899758367 0.7299611271897299 -1.0323490842091962
Ni 8.282452406799296 7.089871280174555 0.16938794334953397 -0.5968672007148172 -0.8018548280062384 0.8789784097631185
Ni 7.734190827678857 3.7875852089445936 8.116567373166596 -1.1113549705904537 0.1824123130940665 -0.09526014345659078
Ni 3.054699153375104 8.261389981749673 12.369138440808067 0.2563448987174746 0.2584218358511614 0.39631421215598195
Ni 0.12361179326303834 4.8216855267630025 10.183001714917955 -0.33765526486219266 -0.7682983322070317 -0.1530037780249623
Ni 8.415095321853466 2.269966436656568 5.727843753427086 0.9046344197683259 0.9128532081336924 0.34756249667357564
Ni 3.703236581899163 2.381870687251119 11.335920370597417 -0.16443104602529746 1.4090470647961475 -1.2068909934162506
Ni 1.2051358428370678 3.139020800371368 12.613529122171622 -0.8697838877480439 0.7214186369363575 -0.6587454262768526
Ni 3.1475015291594945 8.357277076488813 7.9369620851975595 -0.6196551451436103 -0.7145471066275049 0.5650024907957367
Ni 5.7292584073384045 7.72101557033569 3.367486058046676 -0.12423210520890865 1.6899696528529864 0.7765736848419464
Ni 3.10959456008001 8.268557681478345 3.634675780291226 0.14236429603324513 0.12938511016475782 -0.2474517099929029
Ni 3.6454992766820116 4.272785419812281 9.13142282191426 -0.8948814541466201 0.6510146332914982 0.3532659748162561
Ni 7.325595969745701 6.171497386582674 11.329116002197525 -0.4193235285669617 -0.5136076812635283 -0.06825713250518566
Ni 0.5411694235294348 0.01837341348265434 0.1871327216865997 0.2116547548989516 0.7219601112621243 0.04644697860862969
Ni 4.519976630279357 0.26308605676626545 1.6432153978347752 0.2387104734651631 0.6346073955780684 -0.2583940679370195
Ni 5.9029739505743075 5.686450062660267 0.3875207415288941 0.9643760586033328 -0.15152950747228097 0.6705969262987999
Ni 7.87577313235699 8.67484124853287 11.35051837586665 0.5307512829223504 0.5747708830364101 0.2268070371593578
Ni -0.09606426372866805 4.748353753127387 5.844952455505932 0.9766304504906534 -0.32037308074297727 -0.824957989682605
Ni 7.979529408103139 8.90944176938873 2.501382412375762 -0.3277061240692808 0.9852500738388644 0.08270416116845111
P 8.537764612065606 1.657339453573644 3.694578684121507 -0.7007266558046448 0.7815672814017959 -1.1696974150850887
P 1.7256439447144953 3.129209055824341 1.6287630848310428 0.47219003754869004 0.037785703389205894 0.05981594371636796
P 4.740952226305936 0.9762460990548671 8.2446137871777 0.4688463178874377 -0.3938156141038444 -0.4711533687540595
P 8.463866257397486 1.655046149394458 12.220610572139403 -0.09479657355661093 -0.25075557755515526 0.38008618033289376
P 6.524189582642026 7.807333740970304 1.3961384029091721 -0.6101119815398653 -1.0501714571025977 -1.642913579905448
P 1.806359258472118 3.2866106626639966 6.115063217740284 0.34763217356924647 -0.1334677648745637 -1.0363589766995378
P 6.75090293579143 3.8455383545550803 5.933207793670729 0.04663209803624227 0.8041850188013118 0.24495259772013298
P 2.3449529866410868 8.33546820341224 10.291764588454505 0.2780745770850824 0.3291837370560718 -1.2007373151100287
