# total energy = -340889.1734777659 ev
CRYSTAL
PRIMVEC
9.11410780103111 0.00000000000000 0.00000000000000
0.00000000000000 9.11410780103111 0.00000000000000
0.00000000000000 0.00000000000000 13.33941803494311
PRIMCOORD
 96 1
Ni 6.4942758560003675 1.577524490579887 11.359221720358342 -0.5979684041987959 1.4153709501316463 0.49620876906079053
Ni 4.449070029497204 0.19354537384338633 6.053655218024821 0.4502585275829213 0.2209058411835744 -0.6468635872376021
Ni 2.911620271622907 1.7209167511341394 4.677454081022446 0.5937139997978161 0.2459051914413894 -0.17702070976484996
Ni 2.9052768524818813 4.115748873138586 5.085160029506756 0.6491402990869207 0.4466517840682695 -1.2329761205390766
Ni 5.146080549941304 4.688442960991318 2.5584203343900205 0.6455980902616172 -0.020849846865815706 0.4769290948955722
Ni 7.250992897698578 6.226357538371638 2.774092028130919 0.367416041064393 0.3052315971158485 -0.8892875049986104
Ni 5.293483017998503 4.819203067911285 11.870961565577067 -0.14785591527543568 -0.5436913880227862 -1.3037063971751033
Ni 5.517726530276952 8.051038408644542 12.480599690050703 -0.28313065145175115 -1.170997364843435 -0.7158943646840187
Ni 1.8378051857370945 6.389928433952085 0.3615439030714056 0.05438937338415793 0.22117554990519328 0.22135655556774778
Ni 2.7789188597071934 1.8292470383614863 0.29228488526311597 0.6879557292922216 0.24142144463842294 -0.1479893555295064
Ni 0.9189572775163147 9.711811161342432 4.598471221430304 -0.1599951217411309 -0.2263524661204424 0.04059231960006558
Ni 9.007737207228368 2.5526520154613492 1.3898476908527457 -2.292906456800651 -0.021376665903563186 -0.8423497027964911
Ni 6.8507103901487 0.8841249797100322 4.8682743365854195 -0.3405230733282909 -0.26904614833422696 -1.0868068489374443
Ni 0.7494722372798166 7.34735636117281 2.513533352680893 -0.8485794857562869 0.1819708546812737 0.1248928787213591
Ni 7.728298731628928 3.995962152203956 3.8159402917534635 -0.3747436850740578 -0.9157043044292423 -0.3452387336364054
Ni 7.835845205571608 4.013716434512459 12.762075243271783 -1.0326007952086862 -0.4981136993929874 -0.4743297095995122
Ni 8.061793056038809 8.611337309669981 7.015026819760377 0.5250794293485538 1.3314599131392877 -0.008857707500946036
Ni 6.835562742717113 0.5255942007306139 0.29042560723902217 -0.18360350518869026 1.4448795011137245 -0.5523997144300615
Ni 1.7216276515551168 6.645989297123236 9.445601738956434 0.5632783090157782 -0.3565955534101214 -1.340548248593801
Ni 0.10815620776528698 5.067279972508388 1.5732909874318892 -0.4591622578304544 -0.2184326970527335 0.02924398446678189
Ni 6.379757089467337 1.9873130127333418 6.973047238490886 -0.006669441600375611 -0.18732723389718062 0.3523717451367609
Ni 3.6836125582641617 4.373842182385095 0.49522690441454487 -0.3352957634910806 -0.4355196787108499 -0.03871541429232687
Ni 6.319157385633025 5.686465125071424 4.992331017099893 -0.7356476360515459 0.5674123857888099 0.16798045393945263
Ni 5.4404662370894865 2.6831569273584024 9.358975788427994 -0.07470031702736811 0.9486776740314693 -0.1579176703868119
P 0.11672164642726414 5.65302546296162 12.683145245505818 -0.09924021115026134 1.1400556809592561 -0.4933877546722276
P 3.794139345510168 6.2438566256572265 12.666738028353986 1.2943995179518806 0.31148272023188295 -0.1973519651230343
P 2.4201146574889383 8.373714286904425 1.4685899379947098 -1.2785260412547337 0.6974626403413923 -0.37619790102208117
P 6.432719170830126 7.993747126000161 5.6523382592213425 0.18145946226249393 -1.2035012510084113 0.39264190551071737
P 4.654565821699373 0.9424716760563244 12.596879302241845 -0.15458706335168215 0.947795271426516 0.24556503449315129
P 4.1081294788829865 6.094531080820204 8.414945599910299 -0.9314427982104216 0.7311484626296119 0.22181549748203733
P 4.788397383002281 1.0228581082744967 3.8169811228826376 0.3091569003121837 0.30173643947839646 -0.4913437276590054
P -0.24144547964450053 5.778927750338245 4.251179048977897 0.3165627058579516 0.9757405916865325 -1.3564163259743092
Ni 1.5440301438223152 1.4010753604502024 2.3623439727657964 1.7670749797774215 -1.531261368244079 1.15812693663867
Ni 1.699899618175511 6.2601435365839695 5.081797835079853 0.905294421949828 1.154819726642308 -0.9864744331642687
Ni 6.124361556177356 5.574543879307348 9.618641281297817 -0.3743896441687488 -0.17224874229750337 -0.9399269244220329
Ni 8.765620929237919 2.408065806764173 10.37294490720789 -0.7328389629581572 0.12375619401375461 0.5493892097385119
Ni 2.3675535968764434 5.025819895392688 7.288244991168571 0.42885537931679696 0.3789955183718763 -0.024526524386454533
Ni 0.3907628217843579 0.2704128489777225 9.374449720924595 -0.21197537146316398 -0.6411233423197152 0.12694590459564586
Ni 1.5192488842756926 1.241031624650757 11.589086814427286 0.36622819140387897 -0.02219813336359403 -0.5684390272811114
Ni 3.9709530399583026 6.678563118976722 1.6045988596895586 1.6642187691411274 1.3497006045170303 -0.7877142748397983
Ni 5.929164705971393 7.786884217603806 7.848966786803412 -1.8720960592755178 0.8213252780260243 1.0061675407178219
Ni 5.40049175957147 3.118145958024697 4.625656782657104 -0.7639739938000649 -0.34705547513017004 -0.12577630976757695
Ni 0.9677542115408153 7.102843072788556 7.204526441079767 -0.486240344994169 1.2426686652364922 -0.418100454793138
Ni 5.281206314574708 4.760016050810967 7.267755565060897 0.746782826732759 -0.9651872416507185 -0.2645760283780153
Ni 8.237030009809649 7.179073471776401 9.261731902124705 -0.14825777869954468 0.3315959460419902 0.25094249675498076
Ni 4.471126170763415 0.42280346832211135 10.261147613312087 0.396106209910234 -0.4447525101630276 0.6157090160116686
Ni 8.58372156254741 7.931242573601949 4.626590067312335 -1.249486202378958 -1.028479573951461 -0.021597523665117642
Ni 7.378143817865893 6.254602158943533 7.176619953913233 0.9204649590426793 -1.9348931971073966 -0.853324199530124
Ni 2.3839498770987215 5.469257704139056 2.735607707264566 -1.693904469131018 -1.4910637129792708 -0.48961157545924716
Ni 2.3233137168325646 5.368738207434496 11.371813771917596 0.45866603492032626 -0.4768077388263595 0.7234096992244574
Ni 0.9360188876197636 3.3123584845708463 3.6974468627385337 0.46710233861313744 0.36601504695180836 0.33411716980194717
Ni 3.99415755882763 2.6102622918843723 2.3543536343161735 -0.7755367589369998 0.18033486173974747 0.47276750731871486
Ni 1.010909512737306 3.4820814030251332 8.67340985335083 1.4591236697375642 -0.39414548663943727 -0.815216079804493
Ni 3.9090955892253394 2.8007562623823343 6.8026097739724385 -0.38168952026427166 -0.8279016456919613 0.9299867824901854
Ni 4.153818502092704 6.83004870740056 6.2811315043971225 -0.10134517330840612 -0.6209054726109435 -1.3419093906073856
Ni 0.6467926969884412 7.47562831661936 11.340066599656193 -0.19597488226984958 -0.12392280149860593 1.6163078043924615
P 0.08530440487405977 5.467708305785645 8.194711383724 0.1930548804095772 -0.43295397486620274 0.995628331749395
P 8.398532002882892 1.554037434363761 7.95485540450794 0.7745121743272274 -0.3637756160983283 -0.13770828531847248
P 1.9348522073084213 3.2872673453535417 10.723025085285643 0.18640395075196284 -0.42555793951244775 -1.100472519349995
P 3.9126865477620694 5.782710105142161 4.05649076599617 1.7604471900482586 0.9420249446016422 1.2824338609495718
P 6.907044691457149 3.7507926480464913 10.664851556990614 0.09225066720630563 0.20813054379577703 -0.3638360370226186
P 6.163962355268961 7.7342867005594655 10.17717569102196 0.716210867483173 0.5725795318120461 0.41464463503405363
P 2.3011573203787807 8.332263323896688 5.878908603262297 0.2422028028891377 -0.4223774849019371 -1.2926745648409739
P 7.194047951156724 3.9703150524010153 1.6072127858528436 -1.4096705573127595 1.1124438327792583 -0.566750840945411
Ni 5.774944885159182 2.7383884216035415 0.024588951868640314 -0.8230880263534018 1.0224958455642001 0.8195936400468982
Ni 1.33937284955258 0.646865609852131 7.152342704536869 -1.0010165926445018 1.5367031080849407 -0.34916095150894705
Ni 6.939345090071798 0.6333393622268487 9.225621806382255 -0.7595108158223887 -0.9012986705268736 -0.4589406287379515
Ni 2.6744985247952204 1.5712904407343962 9.16631448305685 -0.26370776684044905 0.27524456383545504 0.04570315846406968
Ni 6.479356061267811 1.9929819878852357 2.2634723067806286 -0.10122098902571601 -0.06482393845392061 1.2554203084752056
Ni 3.940958510657848 7.172319917777118 10.389166196557312 0.4955461957761273 -0.5947349848631629 0.28718682379899574
Ni 7.9685192751634375 7.55929582770358 0.1466086292537756 1.111123571305938 -0.566107036713825 1.1464878097378446
Ni 7.877906813812749 3.6358364043313203 8.236610760843432 -1.8635491981467713 0.8646725346634075 -0.3417798285535275
Ni 3.059469330970208 8.3506738219784 12.670046449543918 -0.33021937740943774 0.69529442904548 -0.49383975460798174
Ni 0.13062521812214192 4.912331023059278 10.547611317820355 -1.1446119328713706 -0.1906033335452911 -0.329617996380013
Ni 8.757317976885226 2.3800854953231543 5.769498294241542 -1.197676416796518 -1.2364453100345996 0.10752919063193095
Ni 3.9502275584544333 2.8108182375715476 11.551523018465018 -0.3034912173859741 -0.38576240478206464 -0.5905816248164216
Ni 1.0806415527487843 3.501467110658699 12.78484501919136 0.4164158680018634 0.35233934923692867 -0.5208977871670383
Ni 3.1133063666972767 8.345497008656414 7.929537324002401 0.7426253529209598 -0.15157501599823572 1.7170834783506428
Ni 5.357710136801391 7.581598049884744 3.7111462784150797 -0.0027600792436404077 0.6466764109274605 -0.006014067404563836
Ni 2.9328561431726055 8.0051671032756 3.469676190679084 0.10463361425169075 0.5606167030232152 2.1172779993976376
Ni 3.4558965708524787 4.133439356691361 9.21325578470044 0.2086411648836084 0.027566853874675105 0.749477857066419
Ni 7.393756284803505 6.454201123294777 11.593648425461888 -0.4240577008178374 -1.2343238928162226 -0.8268845172813566
Ni 0.8030677491459122 0.3732145183157786 0.38776336885431245 -0.6859677523279153 -1.5906165702739445 0.05029849114423595
Ni 4.350181958117706 0.3581406951586771 1.582322157010686 0.8555155507544879 -1.0994188812745003 0.13170373099560542
Ni 6.084441763307106 5.67925586567408 0.43199140055784147 0.5651145908935687 0.8620955179648507 1.3245557298202864
Ni 7.892361789039282 8.926120370435427 11.396318873992993 0.4199724750048703 -0.8755896957965437 -0.3882077809987637
Ni 0.26914872220349795 4.641824298769555 6.029363386075716 -0.7546984820354099 -0.08500195606369232 0.6922340449526013
Ni 7.777514914619647 -0.28405028872013194 2.2405685534740227 1.19628827819974 0.431294841996225 1.8410474174998293
P 8.377159419713776 1.6743801158840275 3.380475504651592 0.9746393882025537 -0.4310621571601286 0.7572089071620894
P 1.8294840051684786 3.5854991860613694 1.55297472937548 1.479064888746182 -0.4672537765893372 0.7202994357302498
P 4.653144020857419 1.0823641191534592 8.103856487101543 -0.16661365549891305 -0.3752820740760311 -0.16741686812649878
P 8.58723960822045 1.5554227787738704 12.506985032598504 -0.44598201169475454 0.6723961842910677 0.21372963515010934
P 6.093847522723111 7.797748234293608 1.4013196185435637 -0.11585647955070369 -1.0576906482977784 0.4447463395154405
P 1.6773877715112382 2.80987948445154 6.3523773977409626 0.9490785090143138 0.04002641979426655 0.3927267519150398
P 6.997720951563567 3.8463540700201353 5.9589049516597274 -0.10877026212788364 0.4692720925709466 0.8741581055563397
P 2.179775630550932 8.64722866682136 10.348667657831523 1.5252879242694632 0.1241400597157346 -0.48706772599147086
