# total energy = -340867.1202034162 ev
CRYSTAL
PRIMVEC
9.28644793631966 0.00000000000000 0.00000000000000

0.00000000000000 9.28644793631966 0.00000000000000

0.00000000000000 0.00000000000000 13.59165524334748

PRIMCOORD
 96 1
Ni 3.661841362665679 0.5442898462812548 3.688625335262118 -0.6967648429434193 -0.09994803585056335 1.6479783960228649
Ni 2.496782201025009 4.958461629560406 9.06025124024913 -0.4780992039442734 -0.600357730366579 1.282903601497139
Ni 3.124638933306137 0.8361034657533631 9.424086833880084 1.4626208842575454 0.1609027211570648 1.1975504327416149
Ni 5.3995493247222015 0.9586492875331032 8.098220757090772 -0.33946275038457663 2.016227988732147 0.0382407886487535
Ni 8.469407502759497 0.951842321333398 3.3399312946852158 -0.754752732312113 1.1227632124273954 1.483413909743497
Ni 1.221056441564575 9.134335734452934 8.901908948332961 -0.857961184081503 -0.7460204946454377 -1.615017110605496
Ni 2.8647484066145283 7.196606974339865 8.390835797003582 0.5689164811381622 1.3498103906220171 0.08075217964840287
Ni 3.3698568725549976 5.032205311131837 13.237076277391115 -0.3471207811504667 -0.5050747040918527 1.5687578225276402
Ni 4.35339384005428 5.222141026933432 4.695536291744563 -1.0384328285094309 -0.49850322152192206 -1.0360067355664413
Ni 1.8369336562500418 7.955941233845311 10.789137076944508 -0.2016405651960592 -0.4041326797591363 0.012767326967997367
Ni 5.33759943179146 3.3913085668542045 5.841380864348658 -0.6780299855380774 -0.6603983884992433 0.9980515964789071
Ni 8.81036871829616 2.132567720325914 12.504091384727472 -0.14255969987350284 0.7882842884106553 -0.09732293952289045
Ni 6.543036068242933 6.4947186806071 4.940566644748903 -0.7381076675562643 -0.22389500571888538 0.6330307951195678
Ni 5.658056170699272 0.0376574742652448 10.334646251747193 -0.759125407458512 1.050931989417706 0.3153434887388698
Ni 1.026718949530155 6.555219887689064 2.7665813674643465 1.2955796543029108 0.2417286914661966 0.2832005854577381
Ni 5.168929681334101 1.7777325518528786 2.2766971039628907 0.5136035674984704 2.20260931377629 -0.4009242001241676
Ni 0.4961098980721001 3.8620386032294505 2.6734652272446144 1.2172551102593938 0.19423244565744613 -0.08054854827802901
Ni 0.26542896412885825 7.9766871581156265 6.605312844134424 0.9249001119958975 0.24046113760768262 0.09886328742681684
Ni 4.759629496815675 6.897239758269065 12.478471004033931 -0.21778400772514106 0.38599149007373523 0.6739771556249424
Ni 0.7346211647569402 3.8224504764772766 6.825647746640979 -0.08873468363324717 -1.1135244674379468 0.5471914307562448
Ni 6.120985590965716 8.769870519664629 6.501255411177321 -0.870535678312404 0.46642279604760967 -0.8943659479627822
Ni 7.979835263902394 0.29507316263185807 13.69345689470526 0.7344189058507674 -0.666696048582497 -1.2196449506478093
Ni 7.155161558037976 4.489663174316864 9.4577121325329 -0.3699696607241822 2.065047067117379 -1.092080438631558
Ni 8.340771628546243 8.057033504036294 2.7461121793369387 -0.39473298371179116 -1.300908779825308 -0.17977179014742586
P 6.999149235861923 0.3170690427691318 1.7955801757808643 -2.450832097607263 -0.024196394740545427 2.022748306349168
P 8.101339146244744 3.9225119509681683 0.38085765235409064 1.5213397382549927 0.36488658977432 -0.6336825697709538
P 9.12751948180548 7.727253171588913 9.60259929030616 -1.0438930802930537 -0.641646818923353 0.5282987076167999
P 5.150663238612654 8.15843222700298 8.38659467631681 -0.2686399140347438 -1.0851747126506601 -1.461779619303173
P 2.612779219852454 1.7516933523658755 11.699792145223427 -1.7251294885835708 0.17988054781114826 -1.00326476524873
P 4.275852001353683 1.3699832041084656 5.845159519937553 0.5390268926675814 0.3395936195354861 -1.183871906813258
P 4.86429704938986 3.7719229142772828 3.1736518758783387 -0.6086680500044873 -0.09119137270385584 0.11611050454303874
P 7.767370625862756 8.161589619237494 5.362057149226882 2.00942844931181 0.1775444434788039 -0.8942865008750985
Ni 0.4807055385467646 1.6044102910734828 1.6205603523530288 -1.4208330016874822 1.9086036672832487 -3.5357589559131757
Ni 8.440127333008242 5.69553627381252 1.9434297103859202 -1.7621495174513457 -0.8913209904888715 -0.997857992410862
Ni 5.6543415915998425 0.12630497582836295 13.20774503217724 -0.4655002842333402 -0.5320054670444258 -0.4543344974245079
Ni 3.157113641082902 2.3250664957061162 7.534017052257473 -0.04264354570213946 0.6922607844254788 -0.6618742017138214
Ni 0.7881417490663001 0.9659855812544771 10.818970718981577 -0.4649894060351928 0.5518376712790045 0.11546747164240116
Ni 6.055014666159842 4.757215020401047 0.6069111493842178 -0.8023001430737732 0.5681011843257183 0.3286990841101694
Ni 1.637321461894431 2.94975654930498 13.218156068748167 0.5030874984584949 -2.683378865463875 1.2537660607012344
Ni 8.038070577733704 -0.028929142026359548 8.147450073895516 -0.17415110152653876 0.30885068192567455 0.6360351291635304
Ni 2.2608971417634662 6.744403401223025 5.320452934668492 0.7122320853410831 0.13457745299897467 -2.340495262323208
Ni 1.4986097918739723 5.976813489669095 7.156604672018104 1.1489380710505503 -0.8808460590994764 -0.8896232910714744
Ni 7.736446754860002 2.361562235358014 7.177154652240925 -0.15097106386564965 0.12104162329606895 1.6362575080415112
Ni 1.43731923673338 2.7164438360697925 9.313926347462617 -0.38611670279768984 0.20402963425352605 -0.17098401665246682
Ni 6.8085541822701785 7.07767543802387 0.5192043649780302 -0.19428078239687832 1.060993487418766 -0.32263282331143145
Ni 7.462607983650035 8.019404817759069 11.778419569665834 1.2199953920086926 0.18213463395264762 1.0036182919334071
Ni 2.945809809011836 5.011505819100264 2.3980440453382896 0.5394763215001741 -0.2995533157841486 -0.07572952962283086
Ni 1.3813312432572238 8.949879022822998 2.1646886144434583 1.1581559901043923 -2.54865665935692 -1.060593166656554
Ni 2.544904573258122 7.543567235122108 0.1242758869952994 1.7058518713008817 -0.011354248670554639 -0.29974486296966446
Ni 8.88315589574949 3.064258450044905 4.6582948503384545 0.2458121175069508 0.17111180047958272 0.22970904129750114
Ni 3.513731807523663 9.101963177601403 11.8309242165915 0.45975078334407266 -0.3557028663925229 0.14439521042034487
Ni 6.680234047280375 6.559779533533613 7.3217975764383985 0.8391710479581934 0.1276825256513543 0.39480857414473297
Ni 5.003630911409473 5.312535309318058 8.471569387795366 -0.0355077059883066 -0.6725738475195127 0.4849918172990486
Ni 6.586292341855794 2.681749667281118 10.702286503020739 0.33109175271206204 -0.6274551008040032 -0.6120457082274684
Ni 6.500792017434668 2.512773464048055 13.41261242731377 0.13480371007716782 -0.5671503903766749 -0.006583823865104791
Ni 1.6427818931705929 4.47111813816296 11.718154238356684 -1.3094733815658675 0.7942554183924256 -2.6814109431042272
P 1.320124266146369 1.286720913594746 3.481516191639083 1.457889025999515 3.403589341024745 0.9016169730982407
P 2.877619423194053 6.0663255595176055 11.13662109337977 0.45103860028205545 0.09270035314921454 0.4488235949086077
P 5.980843807991976 3.136553445767558 8.230915737614929 -1.4411688850313567 0.6500908359256481 0.4328264481494029
P 7.415516407117013 4.766752202238832 3.8544850066307594 1.0292411347078338 0.03014207080101906 -0.022875104825960602
P 4.566202076660615 7.4565067874792215 4.558436749053258 0.30955233597838944 1.3577283599175134 -0.6410271830614831
P 7.01636630998778 2.178879235248055 5.1360277969609 -0.20267260600499934 -1.368868435694733 -0.7315966059106239
P 0.021129454562331756 4.441680098799979 9.45922118029204 1.2784193404735402 0.2511906082100448 0.5377621670225448
P 3.3909185360487646 4.671166795562755 7.082842417551177 0.6011090067103068 -0.06274751554086613 -0.5121035859141762
Ni 6.199548938918657 6.18884166466455 2.7007701695597484 -1.7263453632685428 -0.022603596332128818 -0.8764127059184712
Ni 7.610661820105559 4.486403631157114 6.271774286283196 -0.5864452340505448 0.6689419071938802 -0.05859081306001522
Ni 7.264537339620687 3.089248280936319 2.2502483721301756 0.3264989911350571 0.5601955563253966 0.7230924250943547
Ni 3.2961689096700577 0.6996409733776093 0.43859985580995253 -0.8898456914949255 0.7250660038809578 -0.8943260958637824
Ni 4.61841977235085 2.076542581058763 11.904576890974996 0.8459988695133044 -1.1988575815888127 0.3064024774954981
Ni 2.5984873767673977 2.5039977709256513 1.8119447540034024 1.2498831807070603 1.1640232475184469 1.0605039493768573
Ni 1.010124067403452 4.914295284068186 0.497068259479753 -0.9140623979504452 1.2279388152254853 0.508414309988047
Ni 4.066201156981863 3.2550578054871186 9.874527839214243 0.41583994089373544 -0.45530406042662874 -0.5882938572235094
Ni 8.88666617299845 6.227566151776106 7.96223651677407 -2.1725243214654517 -1.1541499542687927 2.2665624195894836
Ni 5.11694414683758 4.337709029806938 11.939915539237418 1.320359689461068 1.1953518824283995 -1.0341020623445611
Ni 0.7567814150193636 -0.04351536550504565 12.900043229252095 1.819954858495588 -0.16621616295017824 0.48363556038147026
Ni 0.526906544740698 6.759048129322527 12.306006811026503 -0.6322463515450595 -1.0821382398171815 -1.0528837138274383
Ni 8.14338818165029 4.480376726568289 11.639662396051408 0.009249286512409876 0.561388291081917 0.9153152965209398
Ni 4.5649205468713125 6.702930125577891 6.457504169899462 -1.4582960316299467 0.3050660180722617 2.285694255322928
Ni 2.8479863684283515 2.892162000368321 4.569310250722063 0.5969805863642299 -0.4653113081509857 -0.6572832399090294
Ni 8.889498539561766 6.072881791628099 4.93430107845294 1.4311433824745547 0.3529700408423921 -0.028846234807730967
Ni 4.2863735466528174 7.442391386901388 10.141793662707771 0.3411316534465673 -1.0011433480303533 1.2128646945011823
Ni 6.906238326137434 7.431516956587807 9.611461347392623 0.27134214345725527 -1.1614390317310384 -1.2676430757936428
Ni 8.844143528757726 0.8410085674541603 5.918201146059192 0.36062112962974674 -0.03769648610950927 -0.9681890045915197
Ni 4.753231134316908 8.991250147542896 1.8349138538647267 1.4947491322506579 -2.6619147820528286 -0.9051743514321959
Ni 1.43262958062035 8.965387390563118 4.658865966874992 0.08574757598046523 -1.5633824171483397 1.2219674281333988
Ni 3.292370752540891 8.971702175032148 6.669030876716493 -0.31987891471537816 -0.4094219531825336 0.1253289378175132
Ni 6.342225922127756 0.0762036615800282 3.9423134435024534 -0.886829530376421 -0.4503048074398245 0.5880385466795937
Ni 3.3989327404557845 7.457806890164022 2.8703945668456616 -1.5020158411154003 -0.5070667948212171 -0.021482338243492036
P 4.394616381610203 2.9225936896403995 0.31811283949607155 -0.676967348601518 0.21331902997525196 0.2964571933573281
P 7.114960525734396 0.8595294588439174 11.581476300393163 0.7840478817318045 0.4749814842508981 2.0805827008591327
P 4.286745004562761 6.540798034335527 1.1075435475098736 1.3586205327144796 -0.3970973701789097 0.061877968451719244
P 8.49513096302305 2.0286895158103584 9.340484659378767 0.44190912717696146 -0.651776194047871 0.16422561488271073
P 1.4518246681166538 0.8313970940343856 7.1284565202474 -0.15205529806876394 0.8086178577616849 -1.6617175999858287
P 6.4014827452114105 6.2281976302230095 11.348800637473527 0.653127565869443 -1.825444935075882 -0.3525262684367542
P 1.5003742169462015 4.5277283236382715 4.905934695160143 -0.6232917134549331 1.4426596106442702 -0.7726712644637467
P 0.5523086939121489 7.450034133398464 0.6242331603696339 -2.2553729786315673 -0.284208200786646 2.5710607380837334
