# total energy = -381166.3611743804 ev
CRYSTAL
PRIMVEC
9.24969810619989 0.00000000000000 0.00000000000000

0.00000000000000 9.24969810619989 0.00000000000000

0.00000000000000 0.00000000000000 13.53786815223398

PRIMCOORD
 96 1
Ni 1.9694456936857114 4.315455841793924 6.856266479279179 1.0147447408638717 -0.305608520839293 0.21749527284012865
Ni 8.223564234291281 5.940350285762405 13.383292733905744 -1.0196457777099148 0.9032604222389348 -1.0243850921671132
Ni 2.7987458653876645 1.5349318814248625 0.7926991167991051 0.08053286454874517 -0.5655177398692584 -1.2443964465608761
Ni 7.6317500581997955 1.7127295759769323 0.8122039549273931 1.1092926887447865 -0.7075727321922008 0.028738762695589216
Ni 7.412994700996776 3.4709121678226027 13.093893733358016 1.710727711335944 1.1987840480384 -1.7513951071483191
Ni 1.7809090997800388 0.4972175148603955 5.052846389527683 -1.0579693558804617 -0.3323423372897115 0.5470798448790449
Ni 6.041810222893903 4.900480739568835 7.240511882903431 0.26330718896792077 1.1418017171160852 -1.383392597452837
Ni 7.784296077269234 2.3615311413169513 4.030371825353393 -0.8037245342251256 -2.3903607796950834 0.9610832467846738
Ni 5.285591914923919 3.6272413133654458 4.44547052155635 1.4381774065032007 0.3864830849981731 0.3041082821446827
Ni 3.450942069885971 5.21269504515153 1.3243578820842552 0.19177858480031487 1.0393756520386745 1.2716236577079454
Ni 5.323793167577131 7.8930725255021095 6.961590940226298 -0.23208602617010998 -0.26745052171233297 0.5183449388381977
Ni 5.611357028045829 1.74011793169271 13.611649277610953 -2.8814000887397926 0.4180186937126091 -0.3917631024501898
Ni 4.242161235008439 2.880143207602742 2.0492946364591065 0.8905848836537953 0.3671687009402773 0.32023501250321623
Ni 5.386265627727203 1.4932989908214462 3.804695844122495 0.5242242804371101 -0.18181221761622238 -1.6692774146109577
Ni 4.795468918413405 6.247653001718259 5.2340377982682424 1.9642179142134433 -0.7174930766297062 -1.1963047332599719
Ni 2.79057838207222 -0.11903251335197577 8.202865260153906 -0.30107592307626213 -0.24495773992645556 1.1946494570447361
Ni 5.47906784755037 3.3752980398138233 11.505441249487143 -0.9336776010782113 0.12078605564183714 -0.15742273302826434
Ni 7.457208257336329 4.563070256691381 4.354089980312553 -0.40563446111564333 -0.7611192979600893 1.6398022879699758
Ni 1.4128266184042673 5.0518520469949415 9.729422465028595 -0.12062227637046322 -0.10978816186943673 -0.6958567293068533
Ni 1.574973823975893 1.0550483005770868 10.405827904047301 0.4288479231176292 -0.6402743640558586 -1.1547083978754245
Ni 1.8679210086683606 3.254515483604224 10.910451652079471 0.8636204392498095 -0.07109691594682595 0.8684237741757237
Ni 4.092103384695348 0.45522851088478833 6.274856363474457 -1.1104702539926552 -3.964662671969404 -2.1768322048121864
Ni 0.16717071654401294 6.748070912079384 1.6928565998690808 0.23773499692577119 -0.8997351826944956 -1.4111455991963893
Ni 7.683511368090201 4.874553836133737 10.823958651247771 -0.9506540810315497 -1.234068582272307 1.1246282906605922
P 2.241701303999187 7.844419114132643 6.541484457537518 0.016155526713939918 1.6171159021160537 -1.1921176917618177
Ni 8.654544661924158 1.366633626697211 6.4282940534290685 2.217267687119414 -0.0013274605621719075 0.11079654852929306
P 4.054383116337043 4.278235057126484 5.993864413419829 -0.9903431720910556 0.5446049009759911 2.1840053255218583
Ni 0.6696994079839422 7.3305058944201775 5.152376839660764 2.326738060638115 -1.2355335968536076 0.8551360559278821
P 8.628035027516384 8.391104013784656 13.163329366146668 -0.3320111792025379 -2.8104589816445404 3.484550294249844
P 1.4548849951147171 7.877098297092401 9.987805378313187 -0.036709696716207746 0.40372824523186596 0.23954788176479389
P 6.0367228890054605 8.32857605544671 9.068381699322781 1.259060476330954 0.3026003301405885 0.8208126000556638
Ni 8.38303827714698 8.811687780889152 4.828280372054263 -1.0071795269221042 1.2300913427921139 -0.7154973863559161
Ni 8.259369815167936 6.45454099641424 3.871816277507008 -0.06447066887955993 3.154070721200484 0.5792970530415378
Ni 0.76428404460766 2.79130910821256 4.988610011973018 0.7301436755141812 -0.16220781312173355 -0.03331969719805229
Ni 0.09454671286200389 6.260870820130229 11.140229874364051 1.6777309446949493 1.449881582314006 1.3242734226931776
Ni 2.1266813096304955 2.6300221245529793 2.9716430699504675 -1.7932372399950858 2.3925691002003115 -0.8220310458437972
Ni 0.5672062795881914 4.695331688092902 3.401430286544055 1.1289914527252944 1.0101056994299635 1.1330579094851843
Ni 8.763922340525669 2.465876984217893 10.957874853617735 -1.0442039266652534 0.4151218317807883 0.01908118500116714
Ni 1.401828727507253 8.242461367262349 12.548832155701314 3.0684704694311606 -1.274823909812798 0.6135197216698337
Ni 3.533597371026191 4.9455082693305386 10.639085862711575 1.123252750469304 -0.25529254619356034 0.673828288751904
Ni 4.088107515168426 4.422151107981528 8.477412945626574 -1.1281915825318183 0.17250379573110292 -0.6422615696892164
Ni 5.933450011070081 5.769813604123839 9.514887745013386 -0.539822134875367 1.0983978962091536 -0.088112476668216
Ni 5.517278349901561 5.497761487165901 2.9880104105242835 -1.01017434788437 1.0521918299667363 -0.7611434663298053
Ni 3.505663283129653 2.2233406535109 4.753971073400482 -1.778971474104691 0.4236182992875736 0.8812540931711725
Ni 6.643771317668337 8.90522072685266 12.832084731942006 -0.9868873523319712 1.3226911658077218 0.9499025475775059
Ni 3.615484947234154 1.6809013652312412 11.994482956303914 -0.22137121085576714 0.07448974367845881 0.5164500358083299
Ni 5.532031618178045 4.232957785519347 0.5479817073086668 0.3543039291624672 1.2058108729781944 0.2216820572279666
Ni 3.606281497745063 6.3730974057092675 7.113012196021491 -0.23043923459530638 -1.425587485653332 0.6181214821079032
Ni 5.0873431381403105 0.09318608228929504 1.8469713677157549 -0.024745582375796094 -0.3539642864348614 -0.4744880895542473
Ni 3.6576913191122675 2.2367249664864928 9.175560724714686 -2.39126555089754 0.9973448002198695 -0.6490847632586371
Ni 8.874178740435182 2.9965599063662602 2.2113299206851864 0.6238902662708804 -0.23199269512535528 -1.6183963114903743
Ni 0.7448421044256293 2.6852335717895475 8.731072038153298 0.4625872243516033 0.17483038698175052 -0.16929171655170844
Ni 3.516004445470159 3.6815370405020937 13.122986808411321 -1.2365327275420834 0.06368596819473547 -0.5175664088009603
Ni 4.6899668632650915 2.2819282405097976 6.830531044592246 1.7030390844424343 4.552309382527218 1.361522793962939
Ni 8.472233114758343 7.416278343779315 9.33774400410843 -0.8291861688313397 0.03310346742218814 -0.07556472191019245
Ni 7.7665459068475595 -0.0173820324421106 2.120151947827129 -0.3266715121571793 -1.257782123839163 1.9095709162925243
P 4.177663091000969 8.8356999968426 13.241443065579205 -0.20839511031107336 0.4701807204281451 0.1803752280593797
Ni 1.2897408873979 4.296919447044036 1.1555175950550354 0.08047192940382271 -0.1993692526633792 -0.447568639455584
P 8.040124223972029 2.8295288602617297 7.957721439586637 0.9508366293560012 0.33179417809572537 3.1354741891452194
Ni 5.8054989389267675 8.626194337618566 4.289663058979522 -0.2604378378399257 -3.742443768401361 -1.6111290884049994
P 5.708552854409014 5.486106867712379 11.841302407953117 -0.2558011103988627 0.7842993356209782 0.31130274301059296
P 0.308003843062661 4.42497226586512 12.72885810249652 -0.05727517957238523 -0.2820944968777529 -1.0147108023021427
P 6.741244634970892 1.641904638551836 11.745332166572148 1.2260192296052692 -0.3761428794144296 -0.3405230733282909
Ni 3.404730578782957 7.9581534004822565 4.565875690088408 -1.0164558100177075 -0.21423871357604393 -0.3472326241379826
Ni 1.0145068743351908 8.303463125433764 2.888385613471816 0.6590783841362391 1.908021055306901 2.1909866419356976
Ni 3.7254916052982354 6.87911138334768 11.927443920261615 1.640868010230329 1.2182043615465405 0.3396620108795763
Ni 6.109915749113177 3.4519965354555757 9.208891086412164 0.9623839678739682 -0.9517694255829157 -0.3082433873589788
Ni 6.481032131426057 0.7675075643533366 5.701744151726683 -0.7650782826078373 2.5699374231125676 0.38429610464918335
Ni 4.121036439973616 7.496380728277335 9.23476156668959 -0.23296817166474715 -1.6844777765004797 0.06619819309362793
Ni 8.978866822161347 4.424648526435854 6.331430291223329 -0.6779618513043033 -0.15377768007650935 -0.27312083262423287
Ni 6.265375423045996 1.2484779847136434 8.233758326433922 -0.24691614920440702 1.2686252372012536 -1.659240599200246
Ni 3.1951324225791327 4.663928963454246 4.04135121685445 -1.166318985531159 0.7737706681755125 -1.1349229877183808
Ni 7.3828129364913435 8.902307071989279 7.26505595649067 1.6072089274149868 -3.559753776165876 0.8441029380421721
Ni 2.992906275664561 0.6761353478377208 2.9498470816327846 1.227310437612867 -2.237433106323695 0.16940458798048888
Ni 0.3731707402340114 8.694706850548915 7.701801720873849 1.5531643389647574 0.6883807326447822 -0.4794456906698388
Ni 8.400399960253537 5.028746301443434 8.605413041169179 -0.033563694888058326 -1.6293672086795812 0.962601483201413
Ni 5.4977984859578175 7.140544847025741 0.8626360832182187 -1.040242885134976 -0.9373573639226437 -1.3297092489967681
Ni 9.152511402320851 0.11467128075488385 11.548396846901555 -2.4877389979359417 2.3107622540351493 -3.1339927195036865
Ni 7.705164911059009 5.1984227611699545 2.0704681201028037 0.04459964098724577 -0.5274289034173368 -1.8639613459835254
Ni 1.4663083721187649 6.514155299888805 8.03503596511379 -0.9331001313081866 0.31671800048889326 0.6027987357079038
Ni 8.48091858116061 6.57706249584389 7.043333296175992 -0.251892776483392 1.1498502984521746 -1.178287727857261
Ni 8.213195322856839 0.6001666533665103 9.317328995699011 0.742813814782682 0.9087990926689768 0.5589686258968309
Ni 2.413375698489168 1.8102491417693822 7.063260845501919 -1.7160969460676574 1.2022275265023101 -0.24220023178597647
Ni 7.0307601817131555 2.966794378269883 6.311218776169447 -2.4592437187097262 0.9326280767677745 -2.5158100451405447
Ni 5.226588091515967 1.229294111105226 10.099587978389232 2.1612623753983877 -1.2609810903924348 3.0437153739736678
Ni 1.9968525487974471 5.919889953832889 12.97616820233047 -0.9372578622303019 -1.215701392619029 0.11677230649675373
Ni 0.5142952322389975 0.4694434467388941 1.0023166973686852 1.0505342397586552 0.3108304313598647 -0.5115325439020545
Ni 6.760816995894427 7.396317495540663 11.211696740828888 0.09896638866358438 -1.1118146838356917 -1.0587949371055507
P 6.463568701641731 3.540886133033632 2.5088510810282623 -0.1929288963546742 -1.6477814495207106 -0.1888657820288941
Ni 2.6526283864136215 7.571747267410114 1.159800205219306 0.7873046981062054 0.8205138378683224 -0.27580634987619596
P 0.48840625256561343 1.2247987578874389 3.2371750748030186 -0.7609686313148378 -0.7743944178024406 0.4974683524995046
Ni 0.9609048745469667 2.3554725891407156 12.894426771350576 0.14206321985305856 -0.39643248290140115 0.5495540174511503
P 2.079729842689162 6.339585749931401 2.9503345407162778 0.27573564453926064 -0.2906349302485962 0.12698781357717484
P 6.874532782848081 7.302988042932694 2.384817255979049 -0.29364209250603623 0.04413838508011108 0.7149769950760718
P 6.8641361223197 6.976186963637137 5.719938307651348 0.24032204092665704 -0.028535645545847633 -0.6099417745105883
Ni 3.573038083208587 9.096569228943943 10.764757809272867 -1.076706784388965 -1.651463526357988 0.25252578208170057
