# total energy = -381165.917106773 ev
CRYSTAL
PRIMVEC
9.26103684543596 0.00000000000000 0.00000000000000

0.00000000000000 9.26103684543596 0.00000000000000

0.00000000000000 0.00000000000000 13.55446354324191

PRIMCOORD
 96 1
Ni 8.669497203470602 6.289049601670331 8.2537331498038 -0.13418973064225276 0.902644900142123 -0.8074858010397707
Ni 7.7092017902225205 0.12176410999291919 4.712168259219058 1.6661686937786466 -1.8108829781013072 1.7591940343674477
Ni 1.2637147573078633 4.860053123108768 7.676977087063761 0.15853782046931403 -0.46116103342803805 -0.42355762125296725
Ni 4.111205698859648 1.928397880399725 6.246885953969102 -0.021369466814711583 -1.3137406414826536 0.4515811030490868
Ni 0.08498390290158374 5.573764174273533 1.2253814743688087 -0.6513072248312525 -1.1574448229699807 0.8874941605436134
Ni 3.2711185414457686 0.6203320185317696 11.232339996166791 -0.8805118156885094 0.1909548033474389 -1.158261148223689
Ni 8.675850274618696 6.571474175624093 5.843627078102987 -0.8880636598938382 -0.4007547644258388 0.07903416851603162
Ni 8.418597198304177 9.143912328402703 10.409055137563389 0.10525042190008325 0.3089342427784163 0.09477214807657872
Ni 5.751548295016922 8.43278510646581 4.028725054166999 -1.0429744251335265 -0.2975383422366489 -0.1415150606590724
Ni 1.5646799266530023 7.340436571496626 5.2944679785031905 -2.063863074111607 -0.9030588477510899 1.1182725236458932
Ni 2.8941110000933388 3.275999107765077 11.738273207160567 0.07275990547154566 2.0276316025833983 -1.4213405374515198
Ni 0.83696989247445 6.447163280549941 12.934156427563035 1.3279709261494226 0.9057813888885756 -1.614412901362594
Ni 4.758468811995876 6.613472976872792 2.7352768125616564 0.04711777942340918 -0.8463567670733553 -0.12735059623323228
Ni 0.6838173509330824 3.52778817245077 2.6775888891088964 -1.7450365119201428 1.1103967204422425 1.9221299839044574
Ni 4.651466794437448 3.8800131797036364 9.880011009587003 1.2583050862221685 0.5309526002998791 1.1134997848475983
Ni 3.7474970061495845 4.426025379046695 0.34025233906007374 -0.305500534506519 -0.9934014993014052 -0.5847616757005348
Ni 3.510553383228316 3.848859052382662 8.023076844670346 0.7708696924786337 0.7595486110388597 -2.1978807979523696
Ni 7.734725207254805 2.291597216093542 12.495507426208105 1.7621592876433587 1.4418234878962202 1.9503403849004024
Ni 2.084400042921076 6.967207533101081 1.9911238077949973 0.7938836368753037 -0.6301025657291793 1.0883255995748158
Ni 8.135663267334166 7.921001698614523 12.559267811398191 0.9579549855683374 0.2463780173127499 1.7006315034422068
Ni 8.246332655409569 0.6933386227222305 1.40756366142157 -1.1646940483332264 -0.2385873176237375 -1.0740845162747696
Ni 2.7593814387777784 2.7874331188179786 1.8847617278697102 1.211480926779778 -0.55521172995756 -0.34003636349985955
Ni 1.1181127389546024 1.8179044520208447 11.509257031619427 -0.18383079070814792 0.4703586407669061 -0.4046497286048709
Ni 3.6801322254918043 8.789705459304804 2.1628039792764193 1.2085598964782411 -0.5316228868940263 0.44167258568612316
P 4.505197981444738 9.259767897007162 12.754709024635686 1.9623091272265045 0.37224508702192016 1.676800719571196
Ni 4.212271391919637 2.496016078268299 3.780258849434567 -1.8569874857688533 0.18873388443672012 1.2773862712233355
P 2.6841540379964823 5.436163691593673 12.175378393704436 0.25502823678858016 0.10881114266814809 -0.02840271951240915
Ni 0.19222115079114935 4.871620157895897 10.040211200025892 0.21002313283279958 1.0629506111451372 -0.6573876266973776
P 0.27690962662331003 1.037467631727774 13.225333607263247 -0.8711645701456545 -3.8866780277638098 -0.2236636064343696
P 7.688447807069634 4.418514678316222 6.221065257660062 -1.1846674061313598 0.742843639579353 -0.1950135467978448
P 2.095318805142072 4.809923131673442 1.9195961911589834 0.6260834172674573 1.899010110057542 -0.8815438564974496
Ni 6.923421351777189 8.236265908561204 8.79238745552126 0.7300020077299945 0.24638984438729178 1.265662555028504
Ni 6.788701051498288 0.45899735110214934 12.088494126080422 -1.4925048163011716 -0.8186400178843771 -0.1200556052337158
Ni 0.4349158774776751 1.510206509024591 5.592666876198278 2.4942832268123625 -0.7741966999693376 -1.1980350856875175
Ni 2.5535826821408256 8.478942113174412 0.022495058044782534 0.02540172790255625 0.48035817518177915 0.4339649326292203
Ni 5.117926688879444 2.3376708734722134 11.633403080241049 -0.9462868052017896 -1.4069071356350091 0.8208028298636508
Ni 0.28956298101054195 3.8076289171766624 5.272293352326811 -0.34520068130961834 1.2258616209814823 -0.09516732663246835
Ni 4.883640983479317 6.466129883627634 9.659330693142659 -0.3966901074381619 -0.22005223493402748 -0.28475507442905157
Ni 6.630466979142111 1.3244578967544376 9.926313414571155 -0.8108439188787261 0.4412856346603497 -0.32287553544985687
Ni 1.3282178776380034 0.01706068173326405 6.952978876378149 -2.49252279247783 -1.1742276988552744 -0.303536983022245
Ni 8.171883181707631 1.3342468125030318 8.145541089034689 0.035136695802133036 -1.8477561969785727 0.25420805488012993
Ni 3.2409090398640146 1.79762278173757 13.327114252353313 -0.09753351287179976 -1.0315021628278687 1.585327039740231
Ni 7.692578229419563 3.275610144225398 1.5914156133839545 0.646075544118668 0.15660717910550448 -0.25222342034993334
Ni 1.994077152385562 2.2988949129808574 7.482131358483443 -2.084395903957636 -1.5410960949463137 0.9324342155894135
Ni 1.0179083223039038 0.8376728051568704 9.25460764738075 1.1162377526040517 0.08180144684852363 0.45456049739238485
Ni 7.729335283919251 2.0865393423893117 5.991479528364392 -1.9626788518610971 2.619958749336017 0.7338987716812393
Ni 6.310794515745733 6.085556843161477 0.44449827210877285 0.4644985824417033 -1.0349662101170694 -0.22639926019797785
Ni 8.654188709873226 2.8967318734678438 10.396666648824604 0.3570575806482044 -2.192401005784721 -1.4485065563433506
Ni 5.270391135397046 3.567545802827983 2.0102348830445704 0.3182508921936519 -0.35940216962098104 0.5545910656544255
Ni 5.998271572650125 0.6289725657346441 6.789294683948132 3.0998315002409456 0.7129532797778237 1.7989281197322757
Ni 6.296847394537234 1.6941584801828933 4.192409246597016 0.23512352744485313 1.5051759840109369 0.10342442443493799
Ni 7.119060751199187 5.741203717068785 2.6884057799266428 -1.0088805687736109 1.5080569051031576 -1.0152818443142644
Ni 3.1170334135128366 5.685489320528064 6.442653155696993 0.8754354296068665 -0.6739537585861748 -0.2542111402039235
Ni 3.300337112105007 9.126325619787206 7.6366248981330385 1.6380153712728822 -0.02030580143688761 0.4228755075842781
Ni 7.637317623675133 4.021577386073561 3.9627290547274243 -0.5143733557849594 -1.2379308934411906 0.823654440379833
Ni 5.241413351690943 3.9467019046853076 5.988213160734753 0.4197814420399867 -0.447014566724327 -1.6879605928427575
P 5.272900876331643 0.8559865051501011 2.622964516582943 -0.2673988425387911 0.6354849130870153 -1.8156156076902858
Ni 6.131695327796762 7.739707644977363 11.312812848111761 -0.4492092603828006 -1.223445812451138 -0.5503618580644264
P 1.9127745115559422 2.066989294002101 3.752729491861936 -0.4337972967031045 -0.938991299981641 0.9936197859597984
Ni 4.776500050371006 8.898587467305013 9.440995271180377 0.17429662596546758 -0.9215797893734129 0.8904190474998923
P 7.548448715895087 8.104509140013192 2.7706271155928377 0.6902144434194112 -0.7959106946076615 -0.6091285345806735
P 4.823036759582629 4.678314539711975 3.8108776888366505 0.0033334352486071627 0.4089966927196569 1.0523016160717233
P 8.547112604021528 8.400769702735545 7.159087877743178 -0.4795966144254063 -0.17408013907928727 0.13972788685166257
Ni 8.516134436397074 3.602904440792158 8.022331331219295 -0.2171137211309938 0.4615598115283535 -0.11147249155039513
Ni 2.169027395911287 7.091796259275004 7.984622242151058 -0.7319449903889782 0.17017077672255207 0.9745262596634571
Ni 6.705824034436634 3.699682273879015 11.071882348908781 -0.3739774963319947 1.2526993099996169 1.22375383060986
Ni 9.18287350962724 4.411689294298517 12.268429585639701 -0.553494233045821 -0.34309880447526714 0.3808773087756215
Ni 0.330364330219228 8.047498198340207 1.1357920579366896 -1.904901278730997 -0.7373008553842528 -0.8115980234359312
Ni 0.7218774332906956 2.7128447295661555 0.5373299774752182 0.46406689422092334 2.44468716105179 -0.04023287937811781
Ni 3.6354940287952826 7.262532731120871 4.814870377456696 2.248518674713895 0.5372911409233972 -0.7130792638327268
Ni 7.108660607031097 5.103618387241244 9.495389043893521 -0.5249714430157798 1.1969439095058676 -0.37334706183684735
Ni 5.723691096746561 2.6535555728750486 8.060771116079927 0.5919245119975612 0.49364589342962084 -0.07889147229058026
Ni 5.528496227084197 5.269844734234163 7.74975123923408 0.38178850773598116 0.6994783852198405 0.04358199835600881
Ni 0.6348310975251461 7.173089639067965 10.127461278597941 -0.9689937598810021 -0.8749644035077189 -0.1548824831049139
Ni 6.421389815527863 7.4602188196445125 6.807037904083166 0.22605164705057196 0.9616995402124341 0.057813054353726245
Ni 1.0833560683732648 8.676174410901762 11.849664029991708 -0.32295858208196637 0.5665634075249533 0.29880461054358215
Ni 2.3099618517883975 5.216195548868406 4.157777600010576 0.3010273292265138 0.224254188830517 -0.6664052568149555
Ni 0.3256689846331001 8.588592787217321 3.580723331890116 0.38263440067604426 -0.35772143948444846 -0.5157828345379762
Ni 6.196281797456834 8.373690431544542 0.5625737112004007 -0.3207500044664218 0.7402231712373702 0.7175339571699706
Ni 2.5291705895076246 5.111740316391212 9.826972126537077 0.2630073983393148 0.937597762068224 0.9754564847872104
Ni 3.720584433618445 7.487585182971945 11.805625948470691 -0.21466397403892062 -0.7796404966927283 -2.0228375236288647
Ni 8.837038617669103 1.6689684604703332 3.308603513426856 -0.23451803265037033 0.5829927567255702 1.2519534329725277
Ni 1.6879721076946617 0.4721054223893396 1.7327214368310917 -0.8648113742341171 2.3420978309236373 0.9862774866621142
Ni 2.3930055675099142 0.05072269778150429 4.571106927139718 0.8353699290445484 1.5759949637060278 -0.18747121567421263
Ni 2.444450626150823 3.301216910587614 5.616983580153891 0.9907962004680743 1.1914450911748253 -1.3811225704717376
Ni 4.00555579265344 6.677235214270209 0.4697188532423077 0.003576404497348679 0.8540623632477292 0.33095856956830744
Ni 9.17600182042624 6.225259581162936 3.5761280054999056 0.9763208896700346 -0.2805595482904652 -0.05072657982059005
Ni 5.850548776901946 6.200282565293534 5.203341229985673 -0.26510618984987244 -1.8612917695711622 -1.8467640082686325
P 7.854951985162326 6.340920667997555 11.29307757899137 0.7178147216351831 -1.6894839714658196 -1.1839251286486967
Ni 5.832276751573681 1.5740520957519404 0.3492753670769661 -0.7242316809051205 0.577488024857257 1.7814908980924353
P 6.201217929996095 3.9115840536742685 0.1738092838093329 0.16215639105850782 -0.25844471866929686 -2.4831246390923813
Ni 3.6899859684970115 1.5900644281354022 9.117937898885124 0.8838321383109939 1.3231315957792504 0.010758266957768568
P 2.155432194095832 2.9933152247848622 9.592791996954862 -1.2729773435223626 0.011110765201180865 0.6071981503271799
P 4.527192943509933 8.961080942680145 5.959016816563497 -2.2286265637756584 -2.077178303163274 -2.2854813679811734
P 2.4367732267604874 8.196461973000694 10.062318220634664 1.4008444743806971 0.46236276704562307 -1.4275412669455931
Ni 5.042467762181673 5.4320888354637 11.875404155281815 -0.04705478739595768 -0.7798441280631021 0.33762929672026365
