# total energy = -340869.65090987174 ev
CRYSTAL
PRIMVEC
9.26189527169853 0.00000000000000 0.00000000000000

0.00000000000000 9.26189527169853 0.00000000000000

0.00000000000000 0.00000000000000 13.55571993685126

PRIMCOORD
 96 1
Ni 4.439346670687145 7.078421765664593 11.393528450840673 -2.132701018820927 -2.1405423692422167 -0.13161451371590882
Ni 4.806330735656459 3.456576255780931 5.413828615771766 0.5864938279002933 -0.16281690746064217 -0.7472790496428872
Ni 5.162561740548814 8.189876949484914 1.9232315673339107 0.43572279586059154 0.29575836751809065 -0.21829462881297243
Ni 1.655647085527335 6.89489731654749 10.164362917473333 1.8541523303129035 -0.6918584067807375 0.016972366188280446
Ni 4.886353508322206 1.8941501432722003 9.800663120465511 1.3889127559401178 -1.311624109360283 -1.027411794808579
Ni 6.454021853392143 1.0297467462674026 2.4115353423256876 -2.031672091201359 2.969633921477221 -1.2640484164638488
Ni 2.936400447768626 2.881134720396345 9.658518039570485 -1.3910272311799592 0.5317964363574131 0.300277852654999
Ni 1.2878664975893575 6.26696862228596 -0.12751499157756918 0.3141497255410848 -0.4590689267856997 -0.1567503895515881
Ni 8.847832707286067 6.791580877995822 11.491359995182542 -0.266332863168122 -0.0017545207972614943 0.35159115821699444
Ni 6.283297343143565 3.699562070698276 13.016405099533987 0.8132800391240446 -0.0002946484222833635 0.3257083769129616
Ni 2.9040301247979334 4.7021158932913005 1.8995498280481413 -1.3100652495135954 1.451012867704972 3.526465189316075
Ni 7.237179907593245 0.7793180725405447 9.57837671464894 -0.6245950056473888 -1.6899159167969156 -0.2542815884305427
Ni 8.307632682317356 5.536695988446132 5.048976639027875 0.36033676562010847 -1.4078054790795627 -0.4421189291949224
Ni 7.480962245479254 3.2970586384635525 5.726397195328372 0.7260471368473044 0.06190985013091919 -0.011956915251560053
Ni 7.409302963984476 5.808680796559826 7.380479020603333 -0.46666576529635106 0.26887465575336916 -0.9804223134329179
Ni 1.4516908960745105 4.526556673860835 11.457985682795536 0.3695408007168797 0.1436375063187139 -0.020026065412939706
Ni 6.853922693136233 5.461859876971684 1.3267840541245655 -1.4103241317363582 -3.704940629249581 -0.4060489229452427
Ni 8.451423601951118 2.7598224198898698 9.575963991005487 0.055819678072781286 0.3870561838928237 0.7245008754061071
Ni 5.05275271361304 5.782747490603334 3.1583469420392682 1.4041601690174912 -0.6597265592431992 -0.09756153789625778
Ni 3.092435592571847 0.28587487202189016 10.610726053406975 0.34490371889448984 0.07906399331270254 0.38163886953199433
Ni 8.951038003097919 7.495484896814888 6.201592610348641 0.08667677266295395 0.628848124496788 0.9063208063318133
Ni 4.799430623893036 0.8028664405385377 7.219003438686239 -0.9925995722254001 -0.62824828612926 0.50296562816865
Ni 5.07305478741898 3.590216138511725 1.5242050504763542 0.378432961000187 -0.2104411942068247 0.803999385153067
Ni 5.384495268166478 -0.22898460826933448 11.536907216147629 0.044588585243652244 2.7763481560037606 -2.035521032633804
P 5.036183183485838 5.365350931233596 13.652236042596261 -0.3130536642634286 0.06133675123626857 -0.4331151830344153
P 4.8097298511157565 0.37325714644228963 0.03077820322286367 0.14625411800595456 -0.9452069418740495 1.3549016891019956
P 0.7196788783566008 2.640167998585613 5.39575958484658 1.0809645312240546 1.2154761639821003 0.281548908786928
P 6.061725029430295 5.297424193417556 5.577812318850652 0.7550707777731641 -0.19197681685405002 -0.2087650920559824
P 8.053458498258781 3.858097927147302 7.767414133558676 0.6078442685516112 -0.46245661231101004 0.6441713851174197
P 3.303579012532613 5.162163479064483 10.406726333047724 -0.1646112803569036 0.3247827797748988 0.3236620359068942
P 7.082135785553361 6.931750396690661 2.642199132155705 -0.5889183781813857 1.9089934465224996 1.6807309078635377
P 4.439837551121323 2.304424305398887 3.281528292953608 0.6183521100614706 -0.3122129135296881 -0.43458122605698063
Ni 2.742910199648243 6.606907953900646 6.023348367562179 -0.13419692973110436 1.3721288516135597 -0.12748429359761917
Ni 2.1778327247512683 2.7734188817270584 3.4056302762294033 1.6782832176539937 0.06290872370907875 3.2300622462354496
Ni 6.405461737988611 4.886686936541647 9.426755788995312 0.25665960174441604 -0.010800690159929786 -0.1764614948272703
Ni 4.3877579156236965 6.526375777010755 8.980461191084556 -0.4791685257490522 1.3994864176909056 0.671279039967489
Ni 6.894248983898577 7.263455903664162 5.01004518965019 -0.7810054953610549 0.2998312520358836 -0.25043984608694936
Ni 2.6645360442897306 0.6360671213843757 12.949507358250722 -0.3440408566735623 -0.3463602488353583 0.6387296452765581
Ni 6.513344290767618 2.2046551726262686 7.617419596664321 0.7093010277372171 0.7604914345681032 0.811401334044093
Ni 0.6010330774161519 9.039035267345287 10.834734245501158 -0.2699048967900965 0.44847238221677604 -0.5719843214302085
Ni 8.81468438513668 4.586545967675191 13.041117687731527 -0.7114936645131619 0.04445334521736861 -0.22495712843481258
Ni 4.826067833868347 8.13747314766283 4.182874610482927 2.966814706860871 -0.9378512728399268 -0.6030982692261937
Ni 9.247696499450218 3.8635624451881343 3.317356081322 -2.406258681872262 -0.5443927849651851 1.819002778994964
Ni 6.468563028517747 7.618214267253986 8.444386414141926 0.05984988227809693 1.0533411130798311 0.12555699466791923
Ni 2.8413548814380833 1.6147095096960156 6.094611239951623 -0.6807175596725696 1.8291244408099983 -0.4105103011507059
Ni 3.1113576440251016 4.155247303933777 13.458050226162543 0.48710037900161923 -0.19518272538585738 -3.6045398221323146
Ni 5.746051862674897 1.2900986142806126 4.844109079108579 0.24651248600808512 -0.6409917018378574 -0.1433233175124048
Ni 6.511501173665709 5.977608499181417 12.02073749586191 0.810181859814695 -1.2310771037441508 -1.5689108031657366
Ni 2.7104750434126594 4.298195391123954 6.181489667284867 -1.4137359856313847 -1.9460031909776292 -0.621562132358336
Ni 5.132571724589128 7.810167040806949 6.476001256379768 -0.36905614777097734 -0.6782037921117804 1.0401274426030345
Ni 9.02652244722128 7.605664399550041 8.883375229288937 -1.6145041755248195 0.22593903273210764 0.1163807274852899
Ni 1.4928970668603794 8.99901461911743 6.415108927804426 0.3362817815534338 -0.708294955070206 -1.5018978274802972
Ni 2.6416776874680794 4.847638787287157 8.395897615329774 -1.1070928528799902 1.2849471142897289 0.5726908605789298
Ni 3.0577590577500238 2.1546502016051616 1.3234747790466177 1.7956887868593718 -1.1822258865694026 -0.4463234541945733
Ni 5.874041989465169 7.608498539415287 13.267972060154436 -0.6312065974266355 0.9027199763544324 1.880716196844361
Ni -0.002657237671041975 5.168674591238559 9.637900135145577 -0.8431189768623479 -0.48606011066256294 -0.6830904307801203
P 3.4657455318155486 8.967644580805059 5.361192340385573 -1.2094759805346074 0.035658886854190205 1.902914587318271
P 7.654205991163604 4.322739412832777 11.106079056671426 0.6623334007384271 -0.5781228302277786 0.31142975550676044
P 4.668708238082348 8.870459516733105 9.158095074991541 -0.3789587515966699 0.153922947405122 -0.12302008717867845
P 2.3226054052533844 7.903915941839668 12.021808170922114 0.3701218700313303 -0.8004049829335892 0.11778969201767456
P 1.5107910479703586 7.14200467473292 7.80940941779722 0.10609065841319147 -1.7836521674098123 -1.2162351536353118
P 7.577786095646813 1.396397383017276 13.48144762527229 -1.929079932859729 3.321616915815995 -0.5735802051624186
P 9.88762860961161 7.568431581712507 4.237165060313344 -0.31482181190744485 0.4433348038798946 0.9136757040349878
P 6.91638491291144 0.2100996043960177 6.44208419694667 -0.24355494604165798 -0.6552163300776717 0.5702863649024952
Ni 4.877249065552481 3.9863196013121858 11.219201063443142 -0.41470608439960843 0.8418200555452664 -1.0815371158980729
Ni 0.9492516169574486 2.822682901149409 1.592729180518892 -1.3843529044835774 -1.4917571395018696 -2.8948490151558466
Ni 1.1964701178826922 5.5390114621922475 4.054150015420387 1.7698990794897778 0.34919231896751474 0.04604948605989489
Ni 8.757612588242427 0.9539566596095551 5.512921630210518 -0.6845955545707371 -0.708294955070206 -0.9126063822302088
Ni 3.6702018635975335 6.852533408888563 0.6214203606559483 -1.0548760616671187 0.17918275041317527 -0.15373705664656104
Ni 4.350284288516565 2.0510466443089768 12.350385935959363 0.16344039997725401 0.368067815715779 -0.0361139721137378
Ni 1.0440378502284267 2.95542438006671 7.846091152883179 -0.09462250987259187 -0.25532751319655383 -0.5693885356785743
Ni 7.615787650768057 8.994846766374422 12.24737606613168 1.4348396003792194 -0.6789653528681532 -0.15954672134980263
Ni 0.021309767980248782 1.7446353725380401 12.238374430396284 -1.329751157978297 -0.5740139502657275 -1.0763671416613592
Ni 6.607009834745476 2.149982206532993 11.33630938981617 1.4260595401937441 0.17171472417090425 0.82658344110117
Ni 0.8698632840981377 0.3558744219354525 3.3384889471080457 -1.4467090981232955 0.1905015178601042 1.3518721582470525
Ni 8.023588886933894 7.058916214827316 0.5722952696583651 2.192148780564599 1.0805066177510294 -1.4962820239554167
Ni 0.531740210089904 5.131701106460588 7.102315602345505 0.0902925150386703 1.1668123802278096 -0.7900208114857878
Ni 7.595050267897848 8.82928113163219 3.4374726711859815 1.7059513729932234 -0.9597992378659277 1.5422240379031698
Ni 0.6841187587532597 8.623694848662101 13.223793747268054 -0.44681273512616604 -0.3297977164909869 0.9725953611893314
Ni 2.1082666315229788 8.965931130232933 8.62078661363698 0.5774420021106701 0.8460459207011559 0.4865311367617105
Ni 4.848296381831054 4.887594602250124 7.503294526665787 1.4091776768367408 0.47822853043328606 -1.407714462027653
Ni 8.262888467647421 0.02022890483556214 1.1761819369192297 0.8868323585898985 -0.498279021326258 1.7257506671073377
Ni 3.094760328212947 6.913597082521117 3.21923927061461 -1.4089856154305929 0.2771114418408647 -0.24575015392076385
Ni 9.063940502958504 0.7829931924703789 7.896816699334078 -0.48300743987916817 -0.4916931405786242 0.09961944886655101
Ni 0.7846140240926598 7.308987379407774 2.09416910116713 0.27434673461153397 0.04935618183562467 -0.3665714336759106
Ni 6.734129343407209 3.575285963796773 3.5682719307250403 -0.9018041494083824 -0.06578398837434478 -0.8703459308991011
Ni 7.679537273946105 3.16684565687701 1.222438619040125 0.7119562059718771 -1.0770510551022614 1.1122468862771038
Ni 3.2081166609277703 0.08221228464007314 3.1701947581033916 0.1218324946284805 1.6195772191723528 -1.0796990342480697
P 1.7456634428813154 2.654746221291155 12.635178092457569 2.3965082873537176 1.596787989191979 1.1358303300239987
P 4.033277408883405 2.9632043718536574 7.502941648466878 -0.3660667261253502 -1.5635451679784493 1.1209138179234825
P 8.507198733547545 1.8382638689359605 3.0099528605982275 -1.2313002754985505 -0.3504344189047319 0.013297745550170647
P 1.7537861247826878 0.3322352873666117 1.4816948048766732 0.11718059767876594 -0.62173388204951 -1.4567037474421622
P 1.0833823801224187 1.5562854761340332 9.570961641524379 0.3288484652038401 -0.515116404598571 0.2501102306616725
P 0.4612923844590937 4.895921045841155 1.53658172074409 0.38524124217127204 1.975999223119087 -0.6026267289064138
P 7.184099987437296 8.002008671620098 10.399609492941662 0.7723503907892183 -0.9151602590003142 0.698843579849319
P 3.415203370885342 4.867801932668329 4.28740343108806 -0.8197229665359108 0.8686736854030008 -1.312889606336268
