# total energy = -340862.86578001286 ev
CRYSTAL
PRIMVEC
9.30394900490814 0.00000000000000 0.00000000000000

0.00000000000000 9.30394900490814 0.00000000000000

0.00000000000000 0.00000000000000 13.61726982626354

PRIMCOORD
 96 1
Ni 7.589677541851053 4.208389986567781 12.184187912117105 -0.49515847341940533 0.49532533801457274 -0.2321711296847485
Ni 9.015619327082739 6.330462517273358 10.979863393668337 -0.9608479908454162 -1.1365823776986748 -0.4604953748195811
Ni 2.1261476602349556 6.350382271434084 7.390908912278745 -1.0891385823944146 -1.1249730755945204 -0.208278382227551
Ni 3.4498111374382185 6.125273232705106 1.3453872670163771 -0.9521250091501214 0.37062992001600037 -0.2735615197060772
Ni 7.370969619825755 6.450548583108238 8.83668206415853 -0.8858563678298743 0.595502973377439 -0.33292289238352984
Ni 4.934525966590174 8.582548427073739 0.4994378268559321 0.2129775874754332 -2.520250083189769 -0.7097278308619906
Ni 7.248259840458262 5.104844051441287 5.142534347613681 -0.263987502864397 0.7501021209139791 0.302839185624272
Ni 8.935605368286737 2.1039205267973227 11.20999470390407 -1.6948609195070163 -1.2068184883071023 -0.695328624717525
Ni 6.717357919898109 2.917392673240419 5.469485339177181 1.2961931195171936 -1.6988353307737323 0.29818677445392516
Ni 7.833952714896282 9.109700856308917 13.109249758444792 -0.7674907487040717 1.1594970775133193 0.10599372782401101
Ni 0.4575133036314375 0.27388964174844593 8.565861795085294 -1.4738177814146296 1.8842856593631743 1.4214256409661583
Ni 8.91592751679214 9.016168260055872 4.439202345848148 -1.3572470494057205 0.4521220631542213 -0.28021219225337546
Ni 5.767824827707023 6.078167340451135 0.43172834021199175 -3.6792959320982828 1.437189845778951 -1.9094739857033438
Ni 4.623085587899791 7.724956955908476 2.848937009910963 0.47301227633966925 -0.19962482031761106 1.2944781937086158
Ni 4.441407381689387 3.979429113078158 0.6450539279159541 -0.837858499794357 -0.3293153775379296 2.769125413003076
Ni 0.32073223225428543 7.253256060908663 8.819701427391253 -1.1891516671549585 2.2751216220134043 -0.9546932840979299
Ni 2.175132950125762 8.119844450464129 3.707560288986746 0.42180978532392516 -0.6013617461510611 -1.1176384896063205
Ni 6.185479084724747 1.066530247058491 0.9532974698339756 0.5475590985083085 2.6776291074642917 -0.3632989335722259
Ni 6.538405770655985 8.767315544251616 9.463593292114927 1.5540724526013234 -0.9155572373284167 0.7152317913993553
Ni 7.8306498131087725 6.742106423432685 0.5973721212376264 2.0642721366245675 0.18860815749213322 -1.7233078619937998
Ni 5.462069161670636 3.366643140033865 12.46938836429675 0.8581303626695157 -0.8814834355731593 -2.1383600168789174
Ni 4.998258015166058 8.731234831203839 7.744195661024564 1.0804991615518618 -0.5184950912628167 -1.7679576394926906
Ni 1.3851532741431192 4.021278274318205 10.688153898980126 0.3512106349491242 0.7693612262539072 -2.16100320819973
Ni 8.335584412855017 0.9371402325264019 2.109941111999287 -0.6470620764016534 0.20897335141204654 0.3621655912987311
P 1.6691097883819455 8.259468808563147 1.4616773217827954 0.06437656650385687 -0.18785302449366356 -0.18088327804404977
P 6.974621405324641 8.489909009895626 1.483192703145092 -1.2616418639048852 -0.7928775642082925 1.054756762480435
P 2.3966134488628286 1.973395430524174 0.17883119790905902 0.9030989569604059 -1.1008036774371686 -0.08239460034783229
P 7.63826276194788 2.0673653123659874 13.124991109245599 0.40317262983871216 0.7038456610496007 0.6394127873865116
P 4.253160587698751 5.241156203804099 12.568290269342953 -0.17277196179082505 0.8074210092401063 -1.0267114263074446
P 8.149189104655125 1.7880607724757656 4.26893264153026 -0.5012635578758787 0.05317889801582455 -0.28608742008722987
P 5.113338556601838 7.043163595376981 9.253506408952463 0.09341897648279396 -0.044551304247813596 0.6548525189803496
P 2.3531733123955583 0.5497833540462709 7.221659851132942 0.5536389861538015 0.9915402777229504 1.553972950908982
Ni 5.595869247885202 0.8787160866822764 5.981794248660832 0.00010027302329014989 -0.22851604943066448 0.10652363218555204
Ni 3.392694196386051 0.33160203551723494 1.9112245845396822 -0.5492814805160541 0.2949708386197888 -1.799134065095495
Ni 6.582450663788573 7.511794187306714 12.012501216412632 0.5670115508059654 0.07137999440488353 -0.23092491598247325
Ni 5.110231037736971 6.060052552337669 5.025330645085196 -0.6043977047639075 1.6671364570085545 -1.922621064608263
Ni 1.4105251422404086 8.311189459370933 10.72158391704407 1.3294426255989424 1.3448795289793032 -1.688609796390982
Ni 9.22137615252152 3.814553838214913 4.838446879578703 -0.7859551260568464 -1.5926564835221089 1.6103101920481298
Ni 4.429768141869178 1.2698029181951187 12.975024481774762 -2.2054922917510402 0.7216250965202088 0.5670915121142814
Ni 5.60160978423138 4.2257139390419844 8.872481797955652 -0.11370060954996547 -0.7099597443671385 -0.38342784311161704
Ni 8.839337411116714 6.1786592903296915 6.7230910130853285 0.15682675131547832 -0.0022980520055573325 -0.4965139590060352
Ni 0.8205422170581059 5.933807272465237 1.7924680529736337 0.4450013929490401 0.3686416859413781 0.1420033131494006
Ni 3.8848730824684203 0.7376263566634468 4.11050872469366 0.4361670824868617 0.1574654133407417 0.7863407915310393
Ni 8.91982587129627 7.951852352787317 2.2208813962648097 3.1148302876426226 1.37374530417106 -0.12670473511911728
Ni 6.724624303830629 1.6308705592364154 8.368071010521062 1.1738980834299977 -0.06578990191161573 -0.6687025374895644
Ni 1.258907994270687 1.4272815538440824 2.3422114000405068 0.5095803052716902 -0.5114384415263515 -1.6263171089993476
Ni 4.202919264733821 7.378105748476515 11.67389423792127 1.4887301797500876 -0.4862881675129689 -1.2543219332047044
Ni 4.367534029033545 6.612344250952707 7.1126129204273 0.33215361831767315 -0.6691697069339702 0.4679960540720005
Ni 6.724996461778517 3.0325476462657783 2.6532572913061276 -1.114256717618281 -1.5547098290750065 2.312234724815618
Ni 0.3865818595536536 3.751612625278292 12.651219155265789 0.6963493526725556 0.6790676827739724 2.2429059565128084
Ni 1.8349991936531862 2.0936861832303926 11.657798406675097 1.8766456263194131 -2.5982578673238157 1.9524196360269344
Ni 8.805257047038836 1.5307879831005355 6.411650634394945 -0.1721235295735487 -1.619362017837753 -0.54706621803229
Ni 8.211748855695161 3.515943604777982 7.281303744651271 -1.2062371618823355 0.778792032649504 -0.062318398423247504
Ni 8.711650019196215 3.1818853268046836 1.5987086693799024 1.8545647352599737 0.2583668142435099 -1.397810829760696
Ni 1.6859313276264998 0.539234537013375 5.19561430532613 0.4711171161994854 1.010290818857576 -0.4545435281115204
Ni 7.064246343124858 4.756848458319569 1.3825342125848545 1.3838181150260298 -0.5799233737716271 1.1833512584230976
P 1.1901611173470077 5.59904189439095 9.340670452322268 1.377283913451938 -1.6633615633471548 -0.04294256499979701
P 8.386486316177448 8.707481850179864 10.889921191217546 -0.20381134759513286 -0.6778649207151229 -0.13510812869146407
P 3.5985905810552916 9.494865724475988 11.30113525494706 -0.6098993513084271 0.41817887343955723 -1.0285507935090286
P 1.6932721431485978 2.293218666990742 4.118365909368454 1.1357891923734182 1.526294511157107 1.7849276916881258
P 2.9424761189280955 4.567131640434775 6.096178854734062 -0.5440703686287598 1.0083208396153989 0.14957958283476175
P 4.921919116105455 2.4310752748372915 7.646055749376662 0.191197001265232 -0.2946859603895183 -0.9292499043241609
P 6.311445246136263 5.43528309337137 7.158843311108863 0.8497547370113108 -0.03672229512169804 -0.994474677760926
P 8.388356409865587 5.163524055874585 3.2640596624881755 0.24802815132166317 -0.771154056488272 -1.4945678694777873
Ni 6.786179228411365 7.498731443335833 5.895351261315062 0.07418866749827224 1.1219036926405774 0.5906551583668344
Ni 1.9160086749597873 3.823811267168636 0.8491090611380172 0.2990491224542205 1.4880424096544438 0.5318198333961809
Ni 3.719206971965913 3.6071967336002104 3.2643592496362253 -0.36559184337146067 -1.1464006493406773 -2.0551362357615703
Ni 2.8948678134444754 8.281640118308598 8.545299138069591 -0.7315667811139529 -0.25604176565475906 0.8980004593915759
Ni 6.11992346220421 0.9221264505137153 11.389293890432597 0.46363700577235634 0.0761427059008495 -0.0629082094884465
Ni 6.433438621454071 0.2606780345984088 3.6526967643090424 -0.4200771189035346 0.37877851726506373 -0.0658382386510479
Ni 7.988370351423864 4.289836753463151 9.388617421538466 0.8851755397127659 -0.047400600771150624 2.0949268853959464
Ni 7.29777545542481 7.102280885399049 3.324792118004079 -1.9337110038738374 -1.0689772769551913 1.127942956856122
Ni 2.7158226247153805 5.603005376535962 3.9739007067622762 0.1865888130692593 1.0144920014231174 0.7466619848841786
Ni 5.985983816759186 5.557853313508406 10.836800296130829 -0.9522306814900503 -0.2593392054591082 0.3706376333254842
Ni 3.795387703898662 3.0009421325413586 10.671486805283944 0.7956399574447781 0.21861755937002994 0.6479899875325614
Ni 2.143741427221378 6.218163856498043 11.97967037264479 0.618189102121045 -1.8647959260696787 -0.704553999970535
Ni 3.3624470591714237 2.23151487923085 6.083092850891438 -0.8930269174363846 0.051336702600763194 0.2497767585816537
Ni 1.2551305910996198 4.051395156251071 3.0906163812696703 0.10687535909801592 0.028310416908918987 -1.3258032290741424
Ni 4.575719185082299 0.8931195296604261 9.29079012256679 -0.9495868161093001 1.2731493503238525 2.017697374188822
Ni 0.4184404406826375 7.799500192870517 12.552317250219584 -1.3179289685323883 2.0670047050643823 2.4101279350196814
Ni 2.679648872180631 8.16584317282313 13.093726120043497 -0.26682085854813403 1.7503221857991147 1.5890587388685213
Ni 0.5618003341835862 0.8151338316804181 -0.03929336653292383 0.45700664494003224 0.4519271735345958 0.3787967720975089
Ni 0.8450125325266359 8.467114335587462 6.707567374684035 -1.471841374414549 -2.66731666979469 -0.3158515387235399
Ni 1.0259743346873558 4.181408535345874 7.106376483615561 1.316598422646423 -0.08980786209276792 0.5317244454688972
Ni 2.134670077241599 1.6727941520660403 9.343693305253991 0.01831319648689104 -0.6724200955504677 -0.12271618278501445
Ni 4.763351918458918 3.8937397455768608 5.139334719656711 0.3107723244284196 -0.34563236953039833 1.1449099237277636
Ni 3.475880801687799 5.643105395420933 9.677902307196183 -0.19853235858438065 -0.07230713420484322 0.34175668862507597
Ni 3.24327278030887 3.4117393793692385 8.45929250591772 -0.3352443414278549 1.651453241945343 -1.3098654747979634
P 4.924152063792786 5.497210175899995 2.8694447736293514 -0.11163627082176902 -0.12500677859140405 -0.6605207730097205
P 0.12084898962805098 2.581259614707643 9.118668002063288 0.6599993532886118 -0.13029836600764655 -1.5390088733999818
P 7.79698812672227 8.79400857306391 7.430902866148568 0.05838281081426719 0.45047527157941775 0.20401189364171318
P 0.4806261729850447 5.917646313578184 13.282856789160368 -0.6614939355562672 -3.103909012744429 0.597842420143893
P 4.9255848718921555 1.869442411730255 2.5516172341583347 -0.34547039003123725 -0.2802263333207625 0.1409167649534412
P 6.750024083774009 2.7281038369956967 10.33078271675623 -0.8796296701938722 0.9587679683879359 0.7411595670087107
P 0.5715201693875608 7.222878668412275 4.8996566276627735 0.5948365434380336 -1.3114047942606253 0.6365164396753231
P 4.3996884757311 8.186535154725723 5.229657453609219 0.8122050608923108 0.282612574164752 -0.12043330028810872
