# total energy = -340852.4699045528 ev
CRYSTAL
PRIMVEC
9.37492832307699 0.00000000000000 0.00000000000000

0.00000000000000 9.37492832307699 0.00000000000000

0.00000000000000 0.00000000000000 13.72115523309562

PRIMCOORD
 96 1
Ni 0.5240678665919698 3.4831702334743038 1.900132966561247 -1.3588917840979953 2.4373250642597637 -2.367629913756471
Ni 6.064866112004141 7.864796094982239 13.653729005000939 -0.3814025851514722 -0.5191622925331705 -0.8194463158357564
Ni 3.404355211302273 8.212718433848469 7.578413597919726 1.8744391055863976 -1.4751732670012594 1.3614356335657716
Ni 8.871232147112153 2.6066988122913224 6.976383827630527 2.620165208919868 -1.9166211382710865 0.3430620377000608
Ni 3.853161153545835 7.215741684367726 12.486319809097138 0.24343718951687104 -0.06933365339881607 0.8354815149217482
Ni 7.895461485433613 4.321279448076109 6.018935525810798 -0.29194644997116814 0.053081196095695685 -2.1887466968615854
Ni 8.156712612217007 3.8858702783654153 10.657660358360483 1.1644009425728397 -2.0265872204792834 0.5046337598996922
Ni 3.720037171763649 2.781316226705054 0.9402884330694389 -1.7303220885281037 -0.050215444512126416 1.841937019193634
Ni 5.365149588886041 2.6730920544731136 5.282096161632058 0.9645064135336099 0.10812568656534925 -1.0120828777609923
Ni 3.0267237246707075 2.729800995726666 5.469279729931765 -0.7085134988389153 0.34167055666917284 -0.2256965777039984
Ni 6.53140004365264 5.617935155419482 12.395430816774594 -1.7579771312412111 1.0124795989787787 0.7650762257253081
Ni 6.22203678486177 2.71174488383142 7.545894784144523 0.15054117541708267 -2.1395190701840248 -1.1591216964517714
Ni 2.9348775521692936 9.310897534268557 3.404424585771652 -4.292472668606401 -3.20202282359973 0.35473150361818906
Ni 1.2173531889000277 1.017414093162797 5.55616187790123 0.17664198626919256 0.2811352182882771 0.35110701949172435
Ni 0.6759576423412966 6.228664859165996 2.040143770668587 -0.4597726377209436 0.1612786164392448 -0.6509650110004853
Ni 7.428683805649456 5.756721593891559 9.975896822926389 3.5221534493145983 1.4133600903492045 -2.223016673788049
Ni 1.868770081444759 1.7179743598274029 9.782785487466057 1.3466636174629194 -1.8037157709289067 -1.2835276082343832
Ni 7.679763135233295 2.8056254157727447 1.8724844280350479 -1.0610191984503792 -1.4982520031975939 -0.9755127919464427
Ni 3.2131254239506513 0.12699184118474022 5.906147638485085 -0.07908199103483154 -0.6029640576411744 -3.7558268745764862
Ni 4.367863466771579 7.452880495577613 4.48108260079884 0.041391675572909355 -0.8462706351174523 0.33175715421020285
Ni 5.855523963187506 7.811958999114323 6.968919509722429 2.0523715285322397 -2.3990068854058557 -0.14908233148336905
Ni 8.724927016147872 5.916282873464292 7.475792820329421 0.2286217217705934 0.5273440570130145 0.8277046991898068
Ni 3.7950365981198098 3.951372902359228 11.41196708893757 -0.7706259518989437 -1.2054766295672272 0.9834541582807063
Ni 0.9242113685371663 1.8714325610804028 11.686348740290269 -0.29452192400782823 0.7503708011943335 2.4809361160814953
P 2.587630208140268 0.6776432544486513 12.966820508918813 -1.103971790752505 0.5358860330457546 -0.9309267778059516
P 5.848389642755376 3.485495215691344 11.86851109699543 0.8304380389605697 -0.5041113117373188 -1.0410070169945105
P 5.691800215452006 2.185530158660005 1.116540834977735 2.394756594769934 -2.507234901877024 1.9687106598774742
P 6.536453130003387 7.429471299626196 10.882714886998732 -0.4637259659417369 0.4161865255998768 0.44059066547585407
P 3.45354546006362 7.040749272822214 10.40008701594703 0.16140280072193494 -1.3857808951793553 -1.6130075363746348
P 2.047821836941799 7.386665377033417 6.078183197646506 -0.3624067607752597 0.37767705667076895 0.08180710327547847
P 1.684365241891548 3.618956694892133 10.212449701117869 -0.4023992420077973 3.197917028961473 1.5846122730613936
P 0.2822181539140867 1.155263038805421 8.37614780883552 0.8897719008341967 -0.7706046117427051 -0.7816089332730087
Ni 9.224948191664398 0.2806816031666149 10.29300658496702 -0.49340703794593727 -1.22545332979947 -0.5461609326092013
Ni 0.10823260966740544 8.511872395726606 7.19286310935778 0.10429320019313651 0.6315038169520802 -0.28809776564903933
Ni 1.9979097187017738 4.393813268290811 7.390626284237851 0.6660489019168013 0.06219369991992514 0.11939843126569114
Ni 2.0727310214203394 5.443252116507688 11.635456942043467 -0.9700687381127358 -0.4298776499337242 -0.8743434820942685
Ni 4.7961289411218475 3.0422954805679057 9.463590741372725 0.09684317167299451 -0.17969131461847762 -0.7085345818848378
Ni 6.212596232069188 4.929918542812945 7.6802515689974395 -0.3228950758338826 1.9146061647235866 0.49478386368880584
Ni 3.049692298992282 4.883456398185302 9.23302000492598 1.674725582209722 1.762445708535526 1.0903577995134963
Ni 5.519282784976247 3.671484418126329 2.7046865003184757 -0.8801557179006713 -0.27786066130206344 0.8443561917035587
Ni 6.110925134715118 5.250550465413827 4.750236792134513 -0.43881300475014107 0.3519909647585744 0.05323777627821799
Ni 5.236666196609644 6.805785444976656 9.02004038393107 -0.8645876882590853 2.4154076953613823 -1.0289092052897117
Ni 2.1803833230263137 8.570296948858056 11.164025547853909 -0.7574174236284698 1.8001450228585125 1.810618925806643
Ni 1.490547974330639 6.737264094072008 8.333338136271424 0.23586554781720023 -0.8209460403097346 -0.295691004615265
Ni 7.745856379709662 5.664266051051 0.6711661164899674 -0.04696094213057074 0.2991447674918203 0.7073626730639238
Ni 4.268273603498892 9.240126200573224 11.646187484969374 -0.33869733297346183 0.4260667608280662 -1.5640437048814226
Ni 1.866295100375006 2.9551836468552244 13.568836216815571 -1.3349311595173396 0.922687677725611 -0.6912742521424934
Ni 1.980969223273576 8.850532305437852 9.117721511802992 -1.2792464643605257 1.1326732724522557 -2.422185380404848
Ni 8.661280627956373 5.604529007958319 12.220732777977528 3.420755568391386 0.4985975810079414 -0.9793537629590876
Ni 1.311514968690188 8.763907967996486 1.0606531374427828 -0.7040156109685617 -0.15224530259238298 -0.019104067819302583
Ni 4.427056764023179 6.206258780542093 6.7579573732965015 -2.421227644477269 -2.2222743963053855 -0.893035402076817
Ni 7.272694373756936 0.21775520946813684 0.8004276278148109 1.0717049602989994 1.3515484563590467 -0.17496922655245994
Ni 4.147843274627486 1.5362507497664248 3.07823145570646 1.1955082055006057 5.636329669858461 -2.2958799376066783
Ni 8.321270728570717 7.8799178543213 12.869949374851535 0.32904618303694294 1.108950217803703 -0.6265395309682693
Ni 7.068864682777479 8.742795629477227 4.990342768149615 -1.536196086541535 -0.43508207695279905 1.7112645576760204
Ni 1.8574170432800952 7.085739553707615 3.8440365358367785 1.2092119282399432 0.9362276211935747 0.489027677931319
P 0.5309903136446434 0.9741300492269976 3.4008021134786497 -0.823878126354865 -1.0133244634775773 1.058127992945513
P 0.5784180758866208 4.97250884205495 0.16259406887600988 0.2151224017325779 0.10004239533658255 -0.338351776708585
P 1.0569481657807884 3.7384776557189703 5.752086629342748 -1.6694211392776732 -0.08819783729317068 -2.214384709144664
P 4.8831939001930555 0.10908010318523007 4.2331410597151775 1.6405232252964002 -0.7922908384668871 3.0907241386230386
P 4.031172292002183 5.2205694447279525 4.204779089145766 -0.2340367221385776 0.06019955230803181 -1.16666094225161
P 8.408663810132234 0.9415709232601293 12.091781576779233 -1.3595885530547036 0.4219501675565313 2.5075583466547138
P 0.350697317641409 7.390827845196184 10.846243603454562 -1.105674889486541 -0.618079316016058 -0.26855609607168585
P 3.935782396605441 1.0218953088875777 9.312026275635217 0.8229275895161375 -0.9963073600942906 0.004898722853198015
Ni 4.8861282527492405 1.4255234716798473 13.100135739238207 0.5483206592646815 0.5376762921769579 -0.9354159239255567
Ni 8.085481907035241 7.822271420238295 9.067968767343976 -0.09103736362449483 0.3682328805387336 0.07090022655498757
Ni 6.658824069031758 1.147547472819031 3.644736810209234 0.3667051310402975 1.966467629479568 -0.8597000211494807
Ni 9.291210184850065 8.468025856093137 4.629188655488498 1.0072512607003041 -0.5078278413569576 -0.07432673573803328
Ni 8.170193759104526 4.816744408441497 2.812013491912631 0.21367049977739977 1.8355095184007357 0.8191149006382666
Ni 1.4196828913523614 7.303491013204434 12.76982607815889 -1.4806520307276436 -0.9075508220841725 2.813025713930452
Ni 1.9906722740584044 4.677198600777565 3.684953377607066 -0.5742913722968302 -1.3512460946272793 1.158157018545657
Ni 3.6866718019634517 5.227019395394581 13.463732958212876 -1.251123995092697 -0.08887198054205984 -0.6024819757984333
Ni 6.0177383474675885 -0.014561138627048666 8.966294857511416 -1.3631073648412395 0.3976103052595862 1.1721042247543685
Ni 3.4912982963056525 0.14331171635984086 1.0261487138548016 1.5395166662743358 -0.7173652928025904 0.8477492765455077
Ni 0.14316734246410526 5.852898983265041 4.736817519773736 -0.8968462911824747 -0.6861875816482053 0.6738059201544008
Ni 7.2248634895982935 7.112364350064053 3.3604617970273294 1.4419597563637683 0.06563614994257083 -0.5487145522689905
Ni 5.496557958790331 5.283925210142319 10.430438346300539 -4.0507192945498565 -3.205452160996254 1.2863097989652106
Ni 5.720290622539053 8.887010151431829 2.253247140716983 -1.5223941476614362 -1.7797998835432574 -0.10884251012671577
Ni 7.267097541565108 2.152089789433452 9.431784422147906 0.6026938346989232 -1.7255889447184927 1.1541826072789414
Ni 5.46519882364516 4.036525376058354 0.2117430679528611 2.055098440545099 1.3654956625677581 0.012485534061520432
Ni 3.3859991017016022 4.968908869589853 1.9009973349500016 -0.4813071693586098 0.6015401807104543 0.7052985914460433
Ni 7.7958903720175154 3.428983147931977 13.073626254499793 0.2152915803205905 -0.5004585454760802 -0.21400500029868302
Ni 8.450935361812226 1.3744957369727742 5.213887933332448 -1.9164254773205125 -0.13151038403787674 -1.6175686733827561
Ni 9.195942163521151 1.579553543558813 0.41620650408502735 0.6292636147676517 -0.2611767728884792 -0.800260486935925
Ni 6.4149071846649335 0.11945908630009329 11.341357941501736 2.45029370860529 0.5163369072692333 0.4124823372754122
Ni 5.279068997285758 0.45135498524684214 6.614941904670768 -0.10058746920677517 3.047416476974339 -0.6461264519612615
Ni 2.6028457167622747 1.4755199642745231 7.5728702028191766 -0.056282733752128875 0.7095085157623329 0.3221695105217678
Ni 5.495114219832973 5.933860864016516 2.2922834046425353 0.37780021251219453 1.407506202671589 -0.29188500060561345
P 7.23265405501104 3.3833272471376645 3.9696671374331545 0.11519442048667258 -1.3992491048691191 1.9821701278164896
P 9.011284200903988 8.406648200548913 2.443023814182954 -0.42549083371993823 -1.1706047573907064 -0.9276668761077572
P 7.278694327865429 0.04578902477609522 7.318233087947567 2.063797253870678 0.32853941860385355 -0.8241792025350516
P 8.053250903558682 3.872801628322855 8.28652161935425 -0.9423422187317448 2.1654687001702513 2.6245355700734216
P 4.333373105576039 7.272028753848025 0.9764906561715578 -0.5880308333701099 -0.350452416626861 0.5128510056031619
P 4.406403796990351 3.7191746783605533 6.971787300287723 -0.8055315055268772 0.7938396710112458 0.7958657003023389
P 1.867288842774225 2.5163713781736208 2.867049008465611 5.0276595629714445 -0.8033728073126616 1.1332844236736934
P 7.6466602634253436 6.653799107465895 5.719992499819288 -0.352356061407477 0.2070663641973208 -0.5107925804122364
