# total energy = -340867.26312413503 ev
CRYSTAL
PRIMVEC
9.25594546367252 0.00000000000000 0.00000000000000
0.00000000000000 9.25594546367252 0.00000000000000
0.00000000000000 0.00000000000000 13.54701179138782
PRIMCOORD
 96 1
Ni 9.175613094589789 7.1763103665555965 1.8833599786051376 1.6294327718101937 0.33639748119569163 0.20240906793096752
Ni 8.187402079142846 8.15087811841645 13.311199138489414 -1.6975168690726248 -0.5164199539013429 -0.11612130317631615
Ni 3.4300219833208527 5.438488097345701 9.21502953826778 -0.7971977888502012 0.8050867046799749 -1.7738781187421837
Ni 7.058139711057904 8.985431183529156 1.9530859412376795 0.041485006617664036 0.8503702591081227 -1.483262214656981
Ni 3.614094970387713 3.079175371224039 8.698441339058142 -0.850101321717452 0.3014801004932163 0.16977482683571404
Ni 5.477344556324264 4.354792748687026 8.768384816408645 2.5987785157139762 0.4861066476297821 -0.29022638195626793
Ni 5.009965591073542 8.336302473518296 10.051503212060348 1.447771992170171 0.367987854407463 -0.2963733753942702
Ni 0.9523349709017046 4.22554272649154 5.5832251674599425 0.3097590526725568 -2.237676332682753 -0.1973905316704536
Ni -0.0005275888903711492 4.609738510027078 1.0349646470792717 -0.5713513158318998 -0.36505756813454543 3.1129513254523546
Ni 1.6041293932007563 5.6858717512571 10.91004491098314 0.0986732829031978 0.06578116016086737 -1.456195697457492
Ni 3.288285690719916 6.59452791560334 12.478125173458835 -0.2255975902322889 0.01107502686723899 0.4964303981532934
Ni 5.586027867740722 4.414178894662838 5.847242680930744 -0.3225574899888058 0.32447270473364764 -0.3465093728187129
Ni 1.241425914988759 4.0653315667821674 7.91195624983097 1.840189183264592 0.8200623521532007 -0.3072028619096064
Ni 5.4493916010800385 7.551583418682051 3.2405805478958296 0.43127350183998625 -0.7034713084293175 0.6842600256081892
Ni 2.6386849274913544 2.3975027570281786 6.568241956133779 1.3545749018901962 0.8458831698710464 1.4614055237932058
Ni 1.415502480974903 1.3996563023728783 2.9065381047546084 0.8757231360506145 -0.027396132624765722 0.5438004027968247
Ni 3.1264639965030945 2.1486751756273432 12.530010301245932 0.5520767838730041 -0.6563740978311986 0.7110347225988722
Ni 5.430379889135787 7.0196997696243715 13.123627404044303 2.7493903964679935 -0.7091485613197529 -0.04814982023234934
Ni 2.9281831331779937 7.822171727824334 8.081618655434342 1.0562220341720518 -0.30002665587614136 1.115212396663331
Ni 3.3550580811609243 3.852259702635784 1.2376865130289356 1.290797402422919 0.6628872163593681 -0.6611447797469646
Ni 8.427177345898365 1.6787693372701065 9.116922070116905 -0.7986792584917342 -0.4242014254845533 1.5515268033613343
Ni 1.5512038971456295 8.910374721914778 10.738770119683231 3.3015430278842555 -1.3646356285603078 0.8704341197375333
Ni 7.094783999075086 6.834525325049542 9.042806012559748 -0.4427902442303342 0.7297423263107045 0.032220550596602573
Ni 5.968113295714774 3.3316035154030206 3.4170710644540576 0.25087050586646475 -0.9521489204095215 -0.0006479179966440454
P 2.002449749485529 6.186812774691783 0.99221791423013 -0.5231315615935636 -0.2054527398532978 0.2537545122824791
P 7.671651542995989 6.147521286277301 0.8657150566427515 -1.0006697508280444 0.8840118584219677 0.5541148973489554
P 6.9513168446759135 2.361747039773727 1.586071043637351 -0.4909693750387222 0.28153913859491514 0.7947236162780958
P 0.2119250525057345 0.21370219403119525 1.6233650990247797 -1.2276598505324856 -1.118579770473667 0.08499167165104717
P 4.850430115381663 0.009859433088128915 2.111193224547379 0.4573645425000833 0.26386743234676496 -1.5081216969028222
P 0.522473129323638 6.049093562414024 6.601133883867514 -0.7567358241804129 0.09293895152258187 0.16079653459650373
P 7.490114684981089 5.534407459993354 10.508877425879453 -0.01545875775723144 -1.5871692351552924 3.5795181032769965
P 5.2210474269492275 5.328129459803681 3.6249503432057355 0.1586758887090751 0.8622700958695021 -0.18569124095565442
Ni 5.335163978341963 5.7516167317537015 10.926302053562928 -0.385881189748116 0.05707026265043074 0.16226514872223022
Ni 7.496066257902292 5.317309259578349 2.8951051609408114 0.8290650698724432 -0.4756435433149292 -1.0535884532039468
Ni 9.539084816273729 5.933949601076882 4.302666040723812 -1.5360415632415416 1.1200725529691098 -0.680348092148293
Ni 8.997176978298999 7.155484489304103 10.923552112171187 -0.9941635742784104 0.024590801965486683 0.25096178002869035
Ni 2.497818693762258 4.221127640514223 3.292113949756012 -0.7583466203109585 -0.6097967642922917 1.1515737089011846
Ni 0.6678340501608793 6.605338859883227 8.649658804184247 0.8333963502579453 0.5609625163984081 0.5537279463231819
Ni 2.430426154976427 5.873332414356869 5.4093624138135805 1.5584489844024643 -1.213830143738245 1.0897942137005425
Ni 1.1485610143379918 7.723651444506606 13.153132581339673 0.684417634231976 0.2426018380997693 -0.9622037335423622
Ni 0.7833288118303909 1.0785397870457507 13.253136592712252 0.8508063182042765 -2.8803600775110523 1.9150962169861274
Ni 4.42974739490151 0.03583254160164613 6.090627766409856 -0.45372874551970893 -0.7714029392742844 1.0246455449173515
Ni 8.423947020938023 4.738914484659004 8.834670344119239 -0.49821551507817424 -1.7004980631881357 -0.6109707299957349
Ni 8.037835256695347 3.4725993323683486 4.937289758627644 -1.6701526181270594 0.7239696854929855 1.080035591651882
Ni 8.215197683314505 8.193353652064049 3.717801359938335 -0.8575081557044845 -0.09432169080272143 0.9839362401234475
Ni 1.3815886968640279 2.86738082754908 1.118816108055593 0.4242806154619209 -0.928552106926188 0.5593524915988108
Ni 6.028887833507352 0.7615653073053087 3.9827268816573023 -0.33392845082990874 0.6133844816435501 -1.2595803533901662
Ni 7.0616569703270455 9.021945888310107 8.348549014936719 0.36055505227850165 -0.6452268229651276 0.24445148971399833
Ni 3.200946589499878 8.891307474297856 3.395639848370455 0.052853139245289615 0.3842871057881188 0.7418830754382966
Ni 1.0315288401300478 8.607094413460374 4.491484551020379 0.8140513700724302 -0.21532346199979047 0.004405842377179509
Ni 2.2060342695506767 6.715438330952785 3.239930780525583 0.5314030575737364 0.2321024812303422 -1.6502731055943127
Ni 3.3673870004938076 4.020421719482504 11.028866259445623 0.5564869971255577 -0.45875808041350025 -0.06065798000168908
Ni 3.5631039669306137 1.1351028696608048 10.14890630276285 0.30786209276016013 -0.8958985825572249 1.440755194532706
Ni 7.671762614341331 1.3119562192804812 13.390476311226763 -0.3921749931766278 0.7744083017595115 0.12065672915282445
Ni -0.18716539844007093 2.3770656294853802 7.103578998437027 1.4949100833085545 1.3974747865775157 -0.010432508187233647
Ni 5.813187280854558 1.4093657891447966 9.026929289337755 -1.2741456527988508 1.4148173916210214 -0.9801086388472412
P 5.0355305123929295 2.8092257223174673 10.478031062089086 0.7110928295303172 0.06289252575916265 0.46317266454142814
P 3.3144522484932355 7.162713382696733 10.431917016287013 -0.6962519078627428 0.25014956854004017 -1.1098866135750434
P 4.57096535455752 4.5723537463742865 13.093810301387432 -0.19519429535008317 0.3655903007095639 -1.4327032707625067
P 0.1136232095005108 3.0582754464089845 12.886879757043879 -1.0460024133265726 1.1629693523326357 0.2797365381685376
P 8.744128685775195 0.5440450357780064 5.473616261498974 -1.9126503265487962 -1.436128237283656 0.40654617429663537
P 3.7523047477740636 4.619614603817007 7.06578234521193 -0.5410848036378746 0.11608582195269039 0.009756050945499327
P 3.7587746536401943 1.0797152921172795 7.99448411060864 -0.10081269784370381 -2.0063423541873187 -1.0505321828761263
P 2.9828117231950206 -0.06405391926378005 12.56994692905794 -0.9307411441577068 1.1583593643644503 -1.4740913467909904
Ni 3.976280115654784 1.9641949269608983 2.475675695473926 -0.5660700128283025 -0.20566459875378776 1.1227431578227374
Ni 4.793700425748596 6.7031001556744565 5.706773527261243 -0.8055106795912708 -0.25629270532330056 -0.3401903725792205
Ni 1.077882614919148 1.8778369559580417 11.290201399926433 0.5584042687529286 2.518134322398347 -2.901376274751403
Ni 5.0453973502374145 2.1559873725289784 5.532355416888174 -0.10402554835404666 0.873025020393161 0.15469376413287553
Ni 4.212066069923463 6.51042839528909 1.4349945764877556 -0.7321218822864746 -1.3487413259275547 1.5616836892896782
Ni 2.2097551596196103 4.542345971241247 12.871801821913797 -1.0773459606348608 -0.8510323181721537 1.6792795201289916
Ni 0.11505140188269095 5.5647021694351935 12.702097764555921 -0.17390144740957794 1.5619986494269356 -2.4144692427075127
Ni 7.13414953505313 1.4830338589424101 6.751058911403738 -2.094225231343232 -1.789476744511389 -1.0258542205134717
Ni 1.615838164188818 1.5801102147707016 8.875636233064743 -0.7871643158735991 -0.01960723270796623 -0.5822458512572166
Ni 8.661695235641064 0.27446377350015044 11.21336316881387 -2.0504203183431398 0.11234383841175492 1.2319589921284717
Ni 7.462994764826923 5.782938851139947 6.8401575678528905 1.9760488454101 -2.2221065032689533 1.5194924006336088
Ni 7.121043116302857 6.268959290517116 4.844736783338377 -0.45006080974981844 -0.01655636169678439 -1.9001534796333661
Ni 5.147296053642608 0.06948623364551387 13.0877541362827 -0.5828382334255768 1.040120500624499 1.0134049390065256
Ni 6.532133587357868 8.36236721589172 5.352424465408 1.0726948350160943 0.9380765014768555 1.3530831478360181
Ni 5.132995617929916 2.3493996085499527 0.45399671932618546 0.7763679965890435 0.37689235598594445 -0.6475081628001365
Ni 3.0535549142319796 8.262726963175133 0.8540266487346694 0.09818091664781156 1.748181485307028 1.8560333493857004
Ni 8.239346444980791 1.7839909250900927 3.310279668286581 -0.16715435849373148 -1.1932543764694223 -0.4227024723415236
Ni 0.9708005820646949 1.9149070174656988 5.232208245966938 0.3898738558472769 -0.2647261808026344 -2.5021006659742526
Ni 5.630715572349702 4.747050460705253 1.3735313963540614 1.7264903734868395 -0.7050836472217599 0.3279508930902352
Ni 8.104348480663893 3.477486471563366 11.118249073419943 0.7776710316711832 -0.5986425474476852 -0.3220216720899938
Ni 1.67005949260626 -0.058263399793320576 6.822613848856234 0.05634444022799974 1.2841685842524917 -0.38574312150835505
Ni 7.165499422275711 4.9776715974155605 12.847092149953538 -2.2253365801704774 -1.1150113363961185 -1.6538104293236096
Ni 6.5053006015125 1.3353645053111591 11.29379178116459 -0.6931426728097999 0.38139410051103995 -0.10201108902717915
Ni 8.781476425646204 8.09457420227386 7.0582637407268685 0.19697632695117043 -0.37832883132215483 -0.7683597815725864
P 1.013470490566642 3.6246374922496907 9.91486787099421 -0.29856986882495673 0.12304219866586551 0.84867358813199
P 2.914937875246044 7.839267459061449 5.4400060723987 -0.30012770023037993 2.2341492933661007 -0.11181419116053001
P 0.2614101136389148 3.5764602962079044 3.3913043635239664 0.877663547606437 1.01266214730323 -1.303516135541168
P 6.173280582451036 7.324933082567694 7.199749197206243 -0.8809743571472247 1.9127662833013703 0.5177767250395534
P 7.069015446955906 3.5412136559529332 7.133937573902436 0.5658339855580965 0.44551381380908434 1.1324269607694046
P 6.550904644720547 8.375482890587438 11.686411400649723 0.6230567146259915 0.24629085691558225 -0.14151917442413045
P 0.07884214330142891 8.74633160079113 9.33330848832718 -1.5329575249995793 0.14246765438032885 -3.095658342699862
P 3.1616921248671757 2.3866825568028474 4.515598140093974 -0.3304492340320567 -0.14061054656693203 -1.5539665231510786
