# total energy = -340861.2352515783 ev
CRYSTAL
PRIMVEC
9.33585835126233 0.00000000000000 0.00000000000000
0.00000000000000 9.33585835126233 0.00000000000000
0.00000000000000 0.00000000000000 13.66397238009706
PRIMCOORD
 96 1
Ni 4.756703715946525 1.4741413271437254 1.4152871442034858 -0.29568509107799396 -0.7862050372841234 1.6020381818473248
Ni 4.883297951550283 0.9069991516388916 10.645135624959629 0.7040346371319552 0.23271466089304438 0.33130335450223586
Ni 0.24435768304692546 0.3843068636382328 10.42950531081951 -2.710252292815952 2.3422685521735467 1.0894969941750978
Ni 1.5253765163025321 8.160893663852994 10.807477794748515 3.190762934415195 -2.3265161744352962 -0.42013779693814096
Ni 2.8933784729020746 7.445272134226532 5.5723449611438465 -3.0468593189192883 0.9141588143189934 2.4064882813845654
Ni 9.02987533420681 1.254982058648282 5.771634722881512 0.21409318913711514 0.3768093093538349 1.2683329027718158
Ni 5.6426393045788386 5.753381253157878 1.1043246488359197 0.09958705296671881 -0.046279342682513845 0.2708909148524496
Ni 5.196730714966577 7.119460022992349 10.511502152361382 -0.804081403343912 -0.2572717814071182 -1.1025170605838495
Ni 1.0104292561674246 3.043116300693274 10.213368059585493 0.489703363842105 -0.5790124319215835 0.19901135510332824
Ni 7.918394750150369 6.620140989287971 2.217799372178863 -1.6528668344634176 1.2000307759613076 -0.46269109691931926
Ni 4.54995180284322 5.3801429828627 12.638709158461472 -0.49497541087432173 2.4498442797726967 -0.3929679213915684
Ni 8.82414102963454 7.147934390145111 10.965610426127833 -1.3425462528604362 -0.2140181129248056 1.1615835277287028
Ni 0.34400769863770325 1.285435627714614 8.39455712146599 -1.0030498210244467 0.12058885202936649 -0.054833402900112016
Ni 2.987623960248677 1.0097103950950435 11.885701251556336 -0.48830236972952035 0.6224113677325086 -0.6718611377232042
Ni 0.25233890812197357 5.389553527810236 9.077687064206629 0.25666680083326765 -1.3837551229985783 0.5000080882022228
Ni 6.358914344271102 4.180270494477616 2.825723376547111 0.9793295945893715 1.0386074064140822 -0.42804959558604994
Ni 7.154600192816282 3.2915621559946895 12.358352406646988 -0.6533080573113652 -0.8918488379678834 -0.007523304960238656
Ni 7.856049889872944 6.615043610774722 5.080401255324938 -0.3452109657222635 1.3155064751338246 -1.400904123974039
Ni 7.530340473077671 9.049051186709033 8.274136688812435 0.9982989366030226 0.9587682254982519 -1.3108250104977552
Ni 8.355686342752138 3.1605707312338986 4.38076551549378 -0.9693696551631822 -0.3257058058098004 0.6310065656006875
Ni 5.097135780938488 1.8016992438394062 8.448461432450689 1.2580194366609496 0.9393183443037564 -0.6655722193906989
Ni 6.416581939649009 3.7531269796119293 7.896546041479022 0.7859031897729885 0.06102770463628199 -1.1719563863225946
Ni 8.43536789148946 8.785742645339683 3.860386653126057 0.4420829337506645 -0.22232868967303002 -1.1902667545960082
Ni 3.1008585829358437 9.011026236737491 3.587216644863769 -0.7172274816731454 0.2513803556233477 -0.33322191168118737
P 1.691629477042334 4.28930398102749 1.412239920125236 0.43171521736309515 -0.5837347770979172 0.13203334642088227
P 3.3731482197809166 3.489080905454033 10.077657358563812 -0.18108073876683653 0.08371306204893969 0.3974907489625864
P 1.3398823520539291 6.453309205347031 12.314996681710127 -0.33950748757958304 2.3090835807811456 0.11593052732174873
P 4.438453649759468 9.194802603098845 8.864816429715809 -0.5933036517332749 -2.1836101469659686 0.9175817239576132
P 9.352009117356342 4.988503736286178 5.143241849666564 0.7372046961260206 -1.0501161783846302 -0.20572527678839408
P 7.300977111697647 1.1883987188012322 11.616917229421382 -0.3930833639235101 0.7529552740920581 0.27938352570449304
P 7.876542098364849 4.580153303741314 0.4033342759969361 0.6013260078171192 -0.17851889157693127 2.0765486399990754
P 8.896979394397114 8.706630583945417 1.4045471730649488 -0.7740822858786603 -1.4376436454869175 -0.24925559597086103
Ni 6.98558381808395 5.797437167450956 12.65292020163522 -1.0874048875327595 1.273839691522658 -0.8033450393985196
Ni 2.6687110481377365 0.46277661799639663 0.40096950314454444 0.9516449841899094 -0.7489253269970586 2.2729025028748984
Ni 7.906743599262943 2.904926929350588 9.46892766964301 0.9958687298949751 -0.45816466980387544 0.5273592265216659
Ni 9.265484384644276 6.756005731968021 0.3538420915422017 -0.664916588084571 -0.8781633700609908 -2.157690855997045
Ni 1.5373824297971066 9.225032111571188 7.063413132577629 -1.411485241923995 -2.058350886044126 -0.251228917647148
Ni 0.512008332010619 3.3551486853971375 7.521497548301573 -1.0763599425725077 0.9912188898277896 -0.522962383005551
Ni 1.3094381188456803 0.8606680887310179 4.169643487221882 -1.3702208359575692 -0.656302621163315 -0.4121432087684386
Ni 0.2885928458151942 5.450068559903419 2.7497920420016797 2.2113901452927145 -1.3389724194662487 1.5044537611329316
Ni 2.742090892669118 2.7611920583066762 13.55720168498619 -0.9466673284696598 0.5938865208199384 1.190338231263892
Ni 6.531609047088086 4.431078321873999 5.388401482922809 -0.9581123370818081 0.8868611549453049 0.10839565239728428
Ni 0.7638412366245009 6.44622328906213 6.929998119058525 0.7520479317864402 1.636133837979453 -0.18527086558878417
Ni 2.645371402930554 0.991514807691524 9.485461474307778 -0.5271586804750857 -0.5066739302581725 0.09431731992734724
Ni 2.8425260539246655 2.8379514834640576 7.998424526394181 -0.27216335380696993 0.9371547609935343 0.20118059484050516
Ni 7.921307537872225 8.657299909835515 12.735559350213196 -0.7890165385909895 0.3738749093158593 -0.9414230493515852
Ni 0.2031015925929015 1.3202583783637298 1.1558595190391867 0.8692151597287675 -0.34770879244345276 -1.056783563102477
Ni 2.1440078163060265 4.663242440678884 11.845488910035977 -0.01084542735493616 -2.9416016979303534 1.4125314238003222
Ni 0.2957506482073329 3.445566470929762 13.220740160436872 0.600953712079365 -0.6936100993645216 2.1522606861204094
Ni 3.077378899857418 5.780091143132978 10.29322045452573 0.4652061500316892 1.2065433802688446 -1.315504932471928
Ni 2.6296218103447475 5.509612662755982 3.9918747455368564 0.05589269740256181 0.42302668845016184 -0.7609722308592636
Ni 7.247669362044443 6.741805891823971 8.819342398579943 -2.0727439215410044 -2.0265998188847743 1.3715889199496896
Ni 4.6096919587155245 3.0050259997151523 6.313397368188055 -0.4093700168986756 0.24783017637824412 0.29322968755896595
Ni 8.057293646707354 5.402268966519109 6.865066292506335 -0.5951062521596525 -1.5265181971321387 2.6248734130288147
Ni 5.439294979675783 8.895868427285253 6.999329001939365 1.5803128743550914 -1.4834136526331807 0.012204255375675757
Ni 5.726596676318116 9.106448042202535 3.3859458140409187 1.2639077771209264 1.2846583794047164 -2.0305778296959156
P 2.442577893654387 5.602075001208756 8.07185478455921 -0.913196193295408 -0.6380652722196817 -0.644792049420554
P 1.0177859123367285 1.7499599183441243 12.248425478478584 0.009882549221034593 -0.8352948528322388 -0.45293041798812966
P 9.238839845675757 8.384272740201896 5.831331933806634 -0.0177336698343372 -0.6590511304427296 -0.15587030093947996
P 1.7308214092742347 1.8693655432240697 6.134399093993515 0.9012333645065769 1.347162668586525 -0.009980508251479586
P 7.00397545850721 4.7894165626689125 10.481482700695906 0.8262461123664094 0.9702641419529935 -0.5889332905797212
P 1.3464081168538573 7.445738927130676 4.027264182771603 0.35054909010572527 0.5498188410767627 -0.2963864880203928
P 6.349149036716416 6.686518940257198 3.5397886186311576 -0.9264574291806884 -0.26487041968998254 -0.16862502950198702
P 4.000732607685887 8.509830695558454 1.7844055003266923 0.622462018464786 -0.5100276772217539 -1.5673588852975846
Ni 1.502447648850996 7.330618461110769 1.8312322972987667 -0.23174046990523314 1.704519525642703 1.8935208048081968
Ni 5.781360819832249 2.497631448769089 4.30887847466985 -0.9568918344111456 -0.46462713759976754 0.01011471983649871
Ni 4.381570266460524 4.874923686849946 8.401840024356439 0.9141169053374645 -0.7616633433890173 1.637093630789561
Ni 3.546496432663702 0.7559655067457892 7.039213654841014 -0.4862105201974981 0.9611179566773511 -1.5128676962282397
Ni 4.211209528164257 5.641108223853248 6.30133170520175 0.8101512636870758 0.2343887061613576 -1.495283664597889
Ni 2.1013989600157945 4.4798768520731755 6.080590942347069 -0.26502751409313713 -0.26264127324914766 0.5157722930150149
Ni 4.063730978029113 3.670121865397106 2.481555101150382 -1.2903662284227713 0.417206739334275 -1.1768286268132313
Ni 0.8308782991743785 8.955711277596468 13.00387938020143 0.3619388199999057 -0.037757678364747874 -0.10829537937399414
Ni 3.3131466598822916 8.13929982410731 12.374106667161836 1.3998533141120215 -1.4219390902674673 -0.06738655697477426
Ni 3.1649399128166835 6.619226075195849 0.6357719354436494 1.2963450717140255 -0.3654362916302029 -0.6598743976749732
Ni 5.3941747775612585 0.8854837331011026 12.93212957649132 0.10052833383406558 -0.9556003692932317 -0.7804665921384494
Ni 6.917067955613745 0.7050505375192249 5.2864408424565195 0.2119388617982737 -0.5625463159457603 0.8339447665622476
Ni 8.686241069892423 3.273450591313916 2.1390131322316894 -0.0654155492913325 0.4091411887173212 -1.304507810030476
Ni 2.038736680563551 2.2182932390714467 2.1990520355626457 0.49784861865705865 -0.214108872866399 -0.9329461222288254
Ni 6.586681273918954 8.317446668044692 0.8504733317045206 -1.3431808011206416 -0.021658458810040117 0.8884390409553861
Ni 7.265155424233664 1.5554846586197975 0.6796215272730954 -0.5794608323129117 0.3013201778765843 -0.13776690647054984
Ni 5.614827783349961 3.2047293399658883 10.213464218923747 -0.36057202155936613 0.5964514533336372 0.16822008075408448
Ni 4.5328391749773145 7.5039853457097205 4.295024061274866 2.0158850035704314 -2.774280217731138 -0.1010924338676517
Ni 3.3319210704869495 1.9888645266848437 4.153424300974507 1.6078882128701988 0.2537830515275694 1.2395666292724006
Ni 8.848087505617109 4.899803748640802 11.769557575490548 1.7577899549310694 0.6524595932681408 -2.034854859804715
Ni 2.807423227533063 7.605942251832777 8.676486031781629 0.2905999632456028 1.3332622564553491 -0.30474514439773326
Ni 4.513289888151778 3.2876971107483803 12.23282152527887 -0.16238110547480422 -1.9314872567496415 -1.4575681523249866
Ni 6.820199092145856 8.899191992762756 10.381640366428622 0.4103138688691837 -0.963882921016998 0.5079134590922284
Ni 1.3763202061513822 3.1900720427757774 4.094545844803252 -1.1351459023624644 1.958764090187723 0.7647355545564378
P 5.725121610741022 7.5040506967163 12.462854267683436 -0.6486265926752959 1.5115124677519258 1.5371011148543074
P 7.636358477466777 1.8455030899642462 7.382807774965646 -0.3691299384317062 0.34863927467752215 0.8126305784655037
P 6.945934428805988 1.740446678957677 2.7972340720214155 1.1175086488966754 -0.2692132700397105 -0.5558542486375653
P 5.226409407812031 3.342984062315154 0.5366428607338959 0.4174759338352616 1.0349584968075853 0.3683982024720042
P 4.3332011857331585 4.249346508432794 4.490377825244791 0.6333853502455092 0.17497256898656963 0.9610912172044737
P 4.798547031873961 0.610560450690851 5.198949848432876 -1.2349630690621183 0.07379863114870516 -0.2759215352978216
P 5.965155857909769 6.76630318343343 7.079180463293793 0.5192705359762606 -1.0741349098967308 -0.7854874423918086
P 9.148580769730541 7.450061429423046 8.953317563584019 1.974482529364245 2.4620999572115982 -1.2004701774915714
