# total energy = -340862.75158335874 ev
CRYSTAL
PRIMVEC
9.38470776681205 0.00000000000000 0.00000000000000
0.00000000000000 9.38470776681205 0.00000000000000
0.00000000000000 0.00000000000000 13.73546843753023
PRIMCOORD
 96 1
Ni 5.158708013932553 1.5683723156169138 10.584455064061757 -0.27503810425160374 -0.5231475024331634 -0.5812621471877085
Ni 5.382805444070275 2.7359706979019682 2.72540539421048 1.0580161499579972 -1.8805729863982774 0.9364744470970582
Ni 5.417181627603694 1.7635366925650309 -0.1970178566772599 0.9403133612271741 2.5298927484858558 1.1627631498591007
Ni 8.256102566663618 1.3886457824887453 5.727552673690832 0.21923076747399664 -1.0547271947940802 1.2347103296213637
Ni 7.548617623165459 0.25036147251736346 9.63309535786286 0.5590431878885082 0.19352462095714415 -0.058432175994963885
Ni 5.51619967632362 8.38713185262965 0.45692451518202143 0.8113542828562413 -2.075636669707767 -1.1509080502927276
Ni 3.845712358515301 4.780992306901979 7.136056497227 -0.3442455164852007 0.947661059841497 -1.0173022171784027
Ni 7.711836455819895 4.347822363316951 3.5132440801737843 -0.3792814250434113 -0.6467399171755444 -0.5838509909608073
Ni 3.585746576353356 2.902999721797073 4.315697571110223 -0.25985522586357823 1.1249291097304626 1.1305587972124143
Ni 1.7391833766302185 7.73587069170007 8.00931666769969 -1.255122831839445 0.5510396008577413 0.05163083680241431
Ni 5.542392394926341 4.274171178940684 5.605101010370047 1.625034385632182 2.152031857939055 -0.34815642150383264
Ni 5.712537141707903 8.446095969785114 10.542755054803665 -0.15526326348310035 -0.7132157894105909 0.3500880913089067
Ni 2.1557799267890885 5.697211914377826 9.065656527286484 0.7519196337386921 -1.8574610829711624 -0.8597704693760999
Ni 9.245335198406456 8.087112138903242 6.391566713627663 0.34922214376418564 -0.8034882498446033 -0.5582818842424514
Ni 5.522215273824281 3.7878744062585565 11.222893899148666 1.274525661846089 -0.7636209813360204 1.162628166943133
Ni 9.086433331197112 6.1718059568207595 1.9259465634338868 -0.5318069778803745 0.7097717967260485 -0.36175061524849955
Ni 3.8513994912538347 7.35627804317163 2.240090261931736 0.2856711584854177 0.8338028416677445 -0.2129210232058849
Ni 2.0973225838380487 2.571775855668642 2.6775368167196523 -1.3958161679281704 0.2497885856561956 0.0016611897525068166
Ni 1.957847061131619 5.804216349171173 2.618887087265081 1.9892799993883934 -1.7418005214813486 -1.4477069432601903
Ni 5.250227681368504 6.060597173072193 11.73493855529852 -0.648634820205412 0.4935258229119887 -0.04103557778507126
Ni 6.76488193131649 7.955876389372445 6.342242568005239 -0.13316797424595775 -1.0048966444251983 0.3047978520125396
Ni 7.934394793929368 7.075609596288223 11.606264830912309 -0.6662548472800203 1.5042393311292803 -1.3493252234554827
Ni 2.347462577258664 5.83173231152989 11.628845375602387 -0.4619030538003851 0.19744838149158253 0.5558555341891459
Ni 2.5852992191607673 6.874044848832383 5.877530622548572 0.4373245931300726 0.609031346881177 0.13666236055246142
P 1.629879688501986 1.709330622106658 0.7494139396189895 -0.524432282682858 -0.8514820041150626 -1.3590167397116337
P 9.240032838674985 2.925410403281594 2.785910480335692 0.2741647005077149 2.2655008110941885 0.19480374477988385
P 2.8317228684156075 3.0407109194955084 6.527135382606285 -1.256702774732055 -0.5452399634568288 -1.2843639880927493
P 4.938448929157966 6.647019389957988 6.009075128955768 -0.37996662403589404 -0.906546292079058 0.10636679489271358
P 6.349721241403486 4.159949904088044 7.943248326974802 0.5077810472794222 -0.1416158479029948 -0.2879452992315751
P 6.6673935899173244 6.694215083921831 13.255907774916077 0.07793887856932384 0.08707555076326938 0.7890689890954797
P 8.78814978835623 9.50558252179308 12.24117313904173 -0.46086612789543857 -1.6792972607408043 -1.224269336793698
P 0.33417254122157847 5.975355874946604 3.95714731371436 -1.2010103662657576 -0.6134377034789887 1.7767402707813271
Ni 3.631459486533885 2.2694568886073494 8.35219446358837 1.5797420894532856 -0.1423982345949741 0.18452421723074672
Ni 1.586775727003491 7.731488033302552 3.6397752758401807 -0.4063942220998033 1.3336368661859483 0.8417645197169826
Ni 1.1426162909484567 9.460066690469828 9.916265767762924 1.235348220315679 -2.598568713696015 -0.653939777358093
Ni 4.813078621808 2.215138201659104 6.077024165061517 -0.3320101507612734 -1.31950016967425 1.6801259272896871
Ni 8.667246601771186 7.96325276945906 0.11523951561523392 0.3565222769700247 -1.6631296498420067 0.10359411724358289
Ni 6.158939522852887 0.547427818796878 5.354826815632335 -1.3543735845126674 -1.071502100259574 -0.13984384360423657
Ni 3.9341726113097297 7.046714081928574 8.029960208763969 1.516675500010104 -0.022191191385058557 -1.160496465312111
Ni 3.710685187158813 0.7517648088450668 3.365382382854889 -2.3535047872089985 0.23859528804353752 1.797923589727162
Ni 9.27879168060592 5.3283459865096905 12.300455397781084 -0.7421371004306316 0.8092323514172323 0.19309036163320295
Ni 1.1887139741360482 8.307737227269914 12.320123867737223 0.030153640765244842 -0.6015890316705188 -0.3753669204803535
Ni 7.424176401856936 0.39287951739183435 0.5903919481537819 -0.16792414678022047 1.0528677729878382 0.7023145691170549
Ni 0.7743509843596386 2.4546453214943083 5.93131813505292 1.6895621330019224 1.8337298007924934 1.9679935792057912
Ni 2.606433580426739 3.664080729766798 10.529390292868111 -0.029004871872782306 -0.282906451256087 -0.5307032032932344
Ni 1.4134589490905352 4.8363433116740495 6.455271985006736 -0.8452151972697445 1.378662281856703 2.896724377801689
Ni 8.052473183560124 8.121966942518617 2.7151450935123953 -0.2740322886949087 -0.0613488354211266 -0.37427985806376185
Ni 6.447143889850227 5.747354406493319 9.829760349538523 0.3396956923309892 -0.6971682490294251 -0.3003922667456762
Ni 8.252348683667885 3.7769975302784227 6.54698310047547 -1.1120303993909235 0.7832145871972318 0.31925233687497273
Ni 3.97033188926612 5.7744011334775704 4.159113726650744 -0.5879776115346713 -0.5199336234815561 0.3355276769962286
Ni 1.41984055018328 3.2178191192341536 8.358664280931515 0.6561987485955989 0.07961318094795321 -0.8766854999638837
Ni 7.705830243026723 4.973200500990957 0.3767762978108921 -0.2782661242705982 0.23558066958692975 0.5448784663523519
Ni 7.0789036286169775 1.3865623774261138 11.842061237406233 0.5526912775285514 0.07067782613153635 -0.15618628951800195
Ni 0.4619190565078431 1.9086148856425913 10.66491766913378 -0.6454265976807594 2.0430199121140102 1.7704755208185379
Ni 7.495350023456019 3.514544800631806 9.83671066390512 -0.7485592019068914 -0.6782672983598641 0.3810570288865954
Ni 1.1372482382645597 0.7211556468978665 4.684399266597295 0.3259824565099547 0.5314213124061816 -1.1989048898869805
P 6.585268014678194 6.201180091262364 2.747766336745308 1.426677119173085 -1.1457964400977751 -0.8469589194337285
P 1.6390297783040833 6.775355264874582 0.14521990216064914 -0.04912323988921217 -0.5285553037122962 0.4502356447647859
P 6.74959424281637 2.5930791416694223 4.962693382485902 -0.2640610364148097 1.1298275754733444 -1.376720841859616
P 2.6991638751288143 8.893098972209415 5.060558050655389 2.289904950970166 -0.4363676285334421 1.1991062072645091
P 0.18802167607798773 3.8631303756154978 9.849058123548831 0.304994541404378 2.064421260607922 1.0190433682392255
P 8.73644005009002 9.088788892776934 4.506648214395631 -1.7954455605003143 -0.801182227419246 -1.1023828489988308
P 9.28636513954981 9.427032520107385 8.0353864466343 -0.10882476951490291 -1.5914493505878848 0.8890046836508689
P 3.0298058893929065 1.4396141288632993 10.235299837333462 -1.8889460409533207 -0.21579654498146708 -0.35630064787752186
Ni 1.8791562888335827 0.7993574759357086 7.574231305316089 -0.04619423916787528 0.045920159570882205 -0.6206954134826664
Ni 7.5482797736958425 7.307599565424472 8.75572937786359 0.982311817146147 0.9638404978148369 -0.7286493503568419
Ni 1.3923715113620094 8.77373487765262 1.5435366257171494 0.9344299058632036 -1.5364971627217214 -1.7605415495342776
Ni 3.3485574792680173 3.0226641269935257 0.7279698830058693 0.4078895756984072 0.920108347034209 -0.1422671083337485
Ni 8.754618228496854 1.9664059143618884 8.362235162131205 -0.11788687971717117 1.5579936420326008 -0.6794003835230428
Ni 1.2672076675768087 3.7337527981675875 12.589490311391229 1.331854320364229 -1.6792131856674304 -0.13151166958945737
Ni 5.643672158151196 7.450735124051742 4.094474676876482 0.4235918169250124 1.8250816381991923 0.13395267493078222
Ni 3.6508295227918635 0.2887364799119848 0.7223784742837263 -2.7751186544720334 1.1269230002320398 0.7932218349215888
Ni 4.633305165142384 4.384591647260147 9.184124382278048 -0.4987551896317282 0.25532905585845056 0.746846847201475
Ni 5.406135826888751 4.256396542955892 1.0231508415507773 0.5967736125597464 1.1981209605331045 -0.7433650593004617
Ni 3.5770094136807895 7.8833982934323465 12.008631349105109 -0.07776455777498864 0.31841904234039997 -0.11660132813652824
Ni 3.8662836373319127 9.175006200481414 9.122850688609459 -0.715289126999852 -0.35050820956546086 1.014347248315137
Ni 7.064113329613793 0.8778558617302136 3.221475401271997 -0.34640730002320985 0.09781967665365089 -0.6169873685034599
Ni 9.023424405113747 1.927806612458272 13.162342241247451 1.8417012490337445 1.72110031281952 1.7537970317215927
Ni 3.8710604534439823 6.013279477910989 -0.05251588463954457 -0.7491184168444712 0.07027236316300156 0.909631358762285
Ni 6.266169190625977 1.932292502638172 8.105986662605785 -0.08860561425455063 -0.38743593582974567 0.30115279906078457
Ni 0.8166825844317616 4.372241372204189 1.0502482459554703 -0.18604373919906667 -1.1913489319165933 0.1071790063813638
Ni 1.3723539302872676 4.078631413692994 4.4847123991100695 -0.47308555277976594 -0.13616562342170097 -3.2042517129302492
Ni 7.722178403473137 5.866371266873008 5.2513303844985 0.38068267626631214 1.119511538259317 -0.04929113292564414
Ni 0.28582065129504985 6.221563675929189 10.067810024300632 -1.3406156114966266 -0.4184087300621762 0.14500019099419542
Ni 3.0196328664744723 2.0697690826493744 12.260114294167447 0.3853939656990524 -1.3696405379740668 0.8077999898460798
Ni 7.439848863364118 2.7390864207884262 1.4459056367641465 0.5425858136634333 -0.07785094684120786 -0.4226065701936077
Ni 9.507647157440733 0.9510744110912213 2.416014111585228 -1.3847228862284862 -0.7004026968063228 -0.12290104510231091
Ni 4.154966624411209 -0.08838235972226788 6.864218121620304 -0.03492098024690115 -0.060515797996869965 -1.8691287491170778
P 4.59692065420625 0.223495870387657 12.591812088024088 0.45619289078948533 -0.412331927740477 -3.140283951829037
P 5.970278748194876 8.96983772534967 8.110093410603115 0.26254074311554143 0.08052695101147421 1.3299100521536644
P 7.58617522253776 3.45631269066051 12.585960722904492 -0.6532090698396558 0.3187352880292382 -0.3543949462143767
P 3.6400464938866226 6.812518706532332 10.067315450215945 0.9724776046645446 0.45524621060549986 1.5246700881798065
P 8.697887671723851 6.0598933200104925 7.266350960596618 0.20623718342780611 -0.08318958544530189 0.11090144953827354
P 3.9023866070433675 4.2582640997462695 2.6418251893105027 -1.3323495148330926 0.5079401985651059 -0.917833177846787
P 3.905033094555358 4.085454096037738 12.518478106760963 -0.9917048283252726 0.7754606542834258 0.6984627994711325
P 5.1215164181523365 -0.060425316111552316 2.28104887929817 2.9347864747807324 -0.8080270182552212 0.24785280208606345
