# total energy = -381175.21011273627 ev
CRYSTAL
PRIMVEC
9.18970194994780 0.00000000000000 0.00000000000000

0.00000000000000 9.18970194994780 0.00000000000000

0.00000000000000 0.00000000000000 13.45005771305615

PRIMCOORD
 96 1
Ni 3.5730204592199013 5.78806027688797 12.26716592561422 -0.6439093897052847 -1.6548247295207372 0.7728846660261334
Ni 4.787549852804432 7.043300050260786 4.974960959181495 -0.1818962926895964 -0.4771970038449781 -0.9807429299971303
Ni 1.234379149869564 0.6786420310707296 13.15780151586871 -0.4348321657255221 1.9411553759670248 0.03555398584520974
Ni 3.5585926271053165 7.408030132296292 0.7735165143516023 2.7831960321635294 -1.0882340683022742 0.724182829945056
Ni 4.958910225696569 8.705349551052983 2.2990052057239585 0.11963677252874236 0.7018741391455268 0.26787038285857095
Ni 6.131075093135728 8.054516477155467 6.680011832466541 0.45345286615050295 -0.769634791630268 -0.949562390629268
Ni 3.7538737942613167 4.650384360994058 5.084551831219244 0.6372381483326961 -0.1894676772789511 -0.022971778304824955
Ni 8.958930187594284 8.450114768154595 11.882574140681102 -0.24151169035938405 -0.8893209293397072 0.3431461127734348
Ni 2.5609585797427115 2.699015472645516 1.1281167878903517 0.8401321263198821 -1.0590805866667696 0.8916210382277935
Ni 0.4394129521175466 3.3668219261071326 1.7874053065831739 -0.5006153827689185 0.10924180244766347 0.5602233242395385
Ni 0.42441811539056096 8.221373896075535 4.199511850502698 -0.05874585058064077 0.29510016510880144 1.309228612544913
Ni 1.513534727031814 4.700477426507815 3.4898996047763235 0.0434560143011058 -0.18740950919834176 -0.32973061069847726
Ni 6.712627003777288 1.5370052258984694 11.851935674267073 0.29226475254253537 1.8120847117188918 0.6926544203194717
Ni 3.3377824678382875 1.8275560335206458 8.770096515350126 -0.059750380585755165 -0.8769341256395801 0.33295117451830397
Ni 6.7536590231350075 7.280026773363778 12.205900939398743 -1.528120251511936 0.1449215152374601 -2.4443390336837516
Ni 1.4605928539030744 8.062318534139722 6.663239707375887 0.9967069095255544 -0.507110760685275 -0.09712882123421336
Ni 3.0216934784030984 5.801780501949801 7.270993296313691 0.7957579710798811 0.07922134482617324 -0.8288516683100564
Ni 1.3279486954687354 4.682980233930637 5.999425260456038 -0.3801591996626743 1.1903451732424273 -0.24214212485453135
Ni 8.93170110061625 0.9591475754544017 10.306429974033579 0.7917131115865461 -0.42006606315994105 0.4643386598250713
Ni 6.3644291956106605 2.158559909275562 1.413090365378553 0.10278447685809394 -0.8164576655210778 -0.8346021976405885
Ni 2.0382850897114335 0.06499324831031034 10.504307232000006 1.17495454971897 0.31426285408018134 0.8905409177897372
Ni 0.5515695889491757 8.342291994778531 9.023670719100041 -1.3449237519536774 -1.2905402921067903 0.23854489442157628
Ni 4.830888487360087 3.784576588589232 2.449134610122896 -0.0886269544107893 -0.9278751354638214 -0.2573599702455503
Ni 1.2970161585912252 6.214434879830885 8.685778242738058 -2.353745442464895 -1.1956635001315474 -1.8232983210465243
P 1.8290907137519423 7.476475032671723 2.7450356622400482 1.042191524220915 0.0904408676910765 -1.5605994550865638
Ni 1.4055097802121066 1.1832292686276678 5.6215456338518965 -0.23984792950371595 -1.0951145974721914 0.12985742181548604
P 6.054809756372075 7.4684432331378705 0.767490826760817 -2.18639670857217 2.0585043809028547 0.1025790457155072
Ni 0.3056853278193162 2.958321293522732 4.575144594971797 -0.8351598699162712 2.0199697151627665 0.4478782002762029
P 0.5356263749774607 6.170333500010572 12.56307984331415 -0.6295934873032447 -0.6883709624527694 0.4656571215261787
P 3.902131256366152 7.8573606107947676 6.729965214510146 -0.7096108456681521 0.48476144645579744 0.47330949586511395
P 8.083427279596538 1.142059403740191 4.8328339472700605 0.6968784857031483 0.4397614847063394 -2.0597194842568785
Ni 6.311184062316455 5.48060041761558 6.774969023065269 -0.1629647458924161 -0.24476310741714621 -1.649111481186044
Ni 9.116891974994026 2.8847117806324 12.921349564855037 -2.297049018214115 -1.3791567049946183 0.5886424988121798
Ni 2.583767420066532 0.0897861452924361 1.6567378530455528 -0.11098501039101531 0.5724990562830979 0.5873242942213884
Ni 7.912599909419462 6.447605188266141 0.4474346429792159 2.6466470572604806 -0.5579484121624326 0.8012783866774781
Ni 6.337043883698901 6.685306019779415 2.6979467103047985 0.21346378308323236 2.157520134747136 -2.3307965469782053
Ni 6.883821962033717 8.97044488418 10.431662637817974 1.348206536470007 -1.7051206495618116 -0.29569794659380044
Ni 6.10209996278077 5.146049316894913 4.017142214633953 -0.8206457354604965 -2.7724187390423674 2.086821739790309
Ni 3.7711780030968343 3.1504687723022524 10.923638847342527 -2.229820069863128 -0.5582523165560966 -0.4633184460906731
Ni 2.9289510059824697 7.871439234233968 8.74681440537414 0.8705482767178941 0.6120667912733911 0.11157636411811106
Ni 7.175659327933627 3.6392322620132647 5.456028992451264 -0.3220838927864969 0.6013188087282677 0.4983841794455546
Ni 2.631949027567657 2.6898349603636875 4.107109397055471 0.006638074141807922 -0.16905568928150239 0.23762469660015204
Ni 5.137309910308308 6.51219041380837 8.377543691588434 -0.6831783625082364 0.7280469408861526 1.6875664427281323
Ni 3.9638217257834807 5.973076546928052 2.706622707947715 -0.7213391898486738 0.2059972995028581 0.37048568112865227
Ni 6.550410384359043 1.221734119939839 6.327485674665539 -2.0066657989650087 1.6663016198120852 1.0401025029023698
Ni 7.489671444720476 7.113610460138931 4.518048976546375 0.5702619394224631 -0.4522824999914856 2.267772123626868
Ni 6.123208708237585 -0.009615185185662251 4.482958099521189 -0.5039583310992224 -0.36108752774320396 -1.151563167378223
Ni 0.34691768268028284 8.309199877934825 1.0875148465854747 -0.2977836254782355 -0.501737926409136 0.8523798333389837
Ni 8.465654554209221 6.43403199843605 10.340511821780943 0.3186473563011222 1.0645950887270954 0.33955273899522165
Ni 5.641751031603704 5.482989740131371 0.5045468028682093 -1.0657402580751323 -1.8370007582342815 -0.21344912779521302
Ni 7.431610907586753 7.6738055033701125 8.531129342903483 -0.19392468460904022 -0.9565835591421074 0.2669738391862305
Ni 3.101993094337645 5.401449514429009 9.7794428378911 0.4945030992235936 -0.18466897033872712 0.19970195341244965
Ni 7.683978503466191 0.7366602955753269 8.33588861043621 -0.5873047538373628 0.9056955140429885 0.33712433205938713
Ni 7.9079499202156525 4.531037701330294 11.687428062144265 0.33060864242805643 1.989723514683715 1.743032851226553
Ni 2.7670192673257223 8.845575213623967 4.352896247344302 0.8438165171500048 0.6979154116080949 -0.9020576601800852
Ni 1.6544036687416646 5.760693344380178 1.2279702517060538 0.5437255836948313 -0.15989999092416332 -0.8590117368332044
P 4.837799143251915 3.3331876168463817 6.581086528551205 0.05499975327464721 -0.008013614333095876 -0.3474151724624339
Ni 0.9231882715917462 1.015857226396504 7.917134108378273 0.9052088042145572 1.5753627294386674 0.6186470155940701
P 8.599879341384776 1.4879505967088822 1.4600846633833695 -0.1779941294217128 -0.6924358765507622 -0.46196373183499145
Ni 6.71600881410733 3.289141375237972 7.941626502105528 -0.04745099439311183 -1.1398003704153403 -1.2814108190016964
P 3.2025560031464977 1.2409314073840216 12.4810213184199 -0.19672178773820312 0.6525747786897664 -0.5526833071087515
P 6.198408039571117 1.9952221462152915 9.515498974422654 -0.696470194521136 -0.975489394907675 0.9031544927886896
P 3.835414019963679 1.3807711024716853 2.969584192274092 0.6036574841637733 -0.07970779754428853 -0.45660375307465884
Ni 8.572714582320629 2.34650769424848 6.6914842564231325 1.3023660810971247 -1.1988357272119419 0.44737400694627466
Ni 7.786985873002738 8.770669952753916 2.748882471490472 -0.34155177170312145 0.7132402148906232 -0.15469530679477228
Ni 4.483664787603744 3.9384213895002245 8.70977347358799 0.6459040515378102 -0.10577672671719847 -1.2599243669931461
Ni 8.634974813260953 6.528336720193926 6.875508038648963 0.40594916414258475 -0.8927834339670108 -0.6277109255685512
Ni 1.4555293281099941 2.1736953484429 11.351754898811375 0.5954893465306841 1.2605149493892935 -1.2576132023614663
Ni 4.006461942988367 0.8884695774969054 5.933008527308434 -0.12745986811758692 -0.04162204641616058 0.9521568908293213
Ni 0.6997048280176262 1.226080848978182 3.2586131852477496 0.19072957471051022 -0.9988054439257961 -1.7364315438599516
Ni 1.7964856511133782 4.077654564256957 12.872391427536277 0.7369797245994082 1.2968865460397923 -0.48473162165912653
Ni 5.082998771583981 2.451536798221465 4.520389593641651 0.6537263757957064 0.3639882463297667 -0.42801000059736605
Ni 4.984227854661972 9.354932825480702 12.923057930453826 -0.26095205847218284 -0.6132237876959697 0.4195364159087162
Ni 7.525272350205762 4.666962583372854 1.927904822273275 -0.325479291621291 -1.163989051846402 -0.1873938254690579
Ni 0.9376344831102983 4.611622198026339 10.595942345331585 -0.12372019856949659 -1.1265424769641694 -0.08113861645354413
Ni 2.2791012301972207 6.538601617309845 4.574956206081128 0.5335710117593326 0.22330673731558315 1.6406777485963937
Ni 1.6128110775629325 6.82924432195186 10.834465655172412 0.291986044959852 1.3196469796647596 -0.2888225596302058
Ni 2.5405574413386494 2.9492142988567744 6.715519921961792 1.0131272598651069 -0.3935664742075157 0.8155436383472405
Ni 4.944335358350244 0.15454046135116734 8.163149782246501 0.367925890821276 -0.12722126974421963 -0.16672575559674513
Ni 8.415258228529996 8.896081815726996 6.265695956466785 0.748842280364949 -0.8062028205622889 1.0503396072493458
Ni 2.0475758784170672 7.79791242866149 12.810520839960068 -0.6679854568178818 0.2019203012200071 -0.6614484270303125
Ni 4.558073804566668 2.9441967215736136 -0.370404723010509 1.215077642992101 0.016650464072487454 0.4650377427746249
Ni 9.118555311053095 6.4095598220531596 2.680489033446151 -1.6492670329273016 -0.4593337504113122 0.9258673610051733
Ni 7.1863561410427845 -0.04770558093836364 0.41802667766081986 1.4248251535660106 1.5221722614586173 -0.6840962463368154
Ni 7.366106711846142 2.679230044274369 3.4183991284912767 -0.03300987926711735 -0.5661173211264702 -0.8091223082019291
Ni 8.092966190255733 3.0139465596307446 10.116905236200239 0.23033356225537746 -0.03096610936421119 -1.3889436091780532
Ni 4.187425554453588 7.719754013289171 11.27405321162765 -0.10779272870596275 -0.5542961601218259 -0.6573878838076936
Ni 5.8560456921642094 3.951305351681529 10.834021792566594 2.021218499968203 -2.333964403183226 0.27320259370476174
P 6.7728471208772065 3.620044164271066 13.333391908583996 0.5336630572525068 -0.020080058579326706 -0.35053494903833826
Ni 9.100203476191423 4.205308714514086 7.8538657671303245 0.8173531807521537 0.17210733162363262 1.5537682910973436
P 1.7240340406730064 3.0994383571861457 9.197284406918609 -0.7842422571307978 0.2766864384883041 -0.21988099946348583
Ni 4.827653712261787 0.47141608927617107 10.399800103099702 -2.1102617159808044 2.3063741522697825 0.6237524551414355
P 3.641676722740959 4.609490187166094 0.7220606160336451 -1.3055305948680354 0.5823697784295906 0.9717330131890362
P 8.735078236970613 5.148181327755157 4.909068958017168 -0.538672594651956 0.7096823223360358 -0.43356641163922105
P 5.041948372822294 5.723419913133839 10.666016579868744 -0.2851805920022443 3.052800881214704 -0.9224943307678821
Ni 7.205884257758385 5.217462491011114 8.886237806961937 -0.04973284844875306 1.1724412963788131 1.3766455085369904
