# total energy = -381174.4296343276 ev
CRYSTAL
PRIMVEC
9.17108673102437 0.00000000000000 0.00000000000000

0.00000000000000 9.17108673102437 0.00000000000000

0.00000000000000 0.00000000000000 13.42281245850214

PRIMCOORD
 96 1
Ni 7.5871940787998575 4.274670971915519 11.205524316634289 -0.3356220364822478 1.049226062470193 -0.009303279678796881
Ni 8.034651393427222 1.9221955512337177 10.03839808081854 -1.5920044517604066 -0.379848610400791 1.2761601121257182
Ni 2.162954916341272 4.00647171573674 1.776227619990828 1.0020365492685839 -0.49298409147590583 0.6560141433886185
Ni 7.216370363701624 8.730819405233914 12.497175566141578 0.19834106850918098 0.21647377355414976 0.31322824216807993
Ni 6.24761014524051 5.920881014457267 1.1275740906877811 0.9330983315359737 2.100499494387718 0.23849784323372478
Ni 7.121495472949008 6.3278479817987145 9.813055312265377 0.9776126118982648 -2.1077582328326607 -2.627001515115411
Ni 6.854314207381495 8.46926001574483 1.4559989553811419 -1.1751880058860147 0.46695681417420876 0.7138570225390157
Ni 4.585396556602745 4.841205674801168 7.4135936636673945 -0.8259211249268228 1.4705311402435577 0.04394503812238238
Ni 4.04178039910045 1.6307659327275947 4.020441114827546 -1.2026391601184319 -1.3091293679628875 -0.3079420540684761
Ni 2.484750002540184 6.002953068333066 3.1015550994491656 1.0860918251482907 0.08187549461956868 -0.05903150014185963
Ni 9.339834581195069 0.49816333526362616 8.660090151250124 -0.3085064112123784 -1.2107836436024373 0.7348683346833602
Ni 2.314938163277215 1.508240215912231 1.839300850890976 -1.680589754299983 0.3904436123078179 0.9769824345134337
Ni 8.828344740010454 4.391730721124449 13.272839473601508 -1.4810644356747138 1.611271784630451 -1.1516845234474358
Ni 1.176265223600665 3.0284303576485954 6.237499939385925 0.09625593171095681 0.3674744051061542 -1.1072576605926285
Ni 4.945948654722446 7.086526119789055 2.6524818393650005 -0.8206794169119092 2.5274735975214018 0.7309633432019991
Ni 0.8133644102057838 8.470819100464785 1.6957439983120657 1.340985850351852 -0.07717217560662838 -1.0703132221577956
Ni 8.78354398202819 7.291940117186548 7.949995844459588 0.752569094397233 0.6601569619123986 -0.6525549811954245
Ni 0.018010179841467865 2.169310479346739 3.2532201096805062 0.17409942235299694 0.9754757680609201 -0.3890007092137043
Ni 3.1877963292878597 4.6604527292387425 5.443084828288218 0.7574567615068375 0.2037720097167652 -0.45339347366747723
Ni 4.750742076697369 0.582651053346699 12.202208659538472 1.0778126158586339 0.4518641815071443 0.38257320842080567
Ni 4.5233724980082615 4.974085548374356 2.4885358270837012 0.267396528545946 -2.646607719382113 1.2637439978495524
Ni 1.62793206697191 1.671182911320806 12.841416886764561 0.027976173497951822 -0.8511834990380373 0.830484318817473
Ni 1.8661877254409465 3.9163015924037574 12.87387336219941 2.438197439562388 1.0924938720198927 -0.5982465975608471
Ni 5.213863607216997 7.558846250156423 -0.45254451635771437 -0.9202158191463508 0.4513306776011775 1.473098900970734
P 4.203640906291643 4.631967334296489 12.432960534961225 -0.9455568690143005 -0.5564348037313837 -1.2604740688490292
Ni 7.997939533815552 8.1711997016356 10.424075287754661 1.999917681607898 1.0377728263279289 0.7836899841717536
P 5.155471298911352 6.372125987845465 8.87783467456515 -0.1370660237487833 0.6585135127717047 -0.07056649736465266
Ni 8.175225808647722 2.3016217455514734 12.474410177904243 -0.6369080186867869 -0.4043591939476455 0.3583855554310086
P 5.748492099863076 0.6431893959139305 2.9533815218818678 2.3324569653997638 -0.5253715066676758 2.0223708684050914
P 8.877905291931878 4.433174861415514 7.366304789893812 -2.166509996950572 0.12367160471974831 -1.2887191797376516
P 5.835791673094023 1.200999644128437 10.220089228538916 -0.1402737320528036 -1.7654520994620175 -1.8564596382898417
Ni 6.975024049052439 3.826278206456182 8.980049185914122 0.9326818128238452 1.3003413373576123 -0.6786959012568505
Ni 8.803436068837511 5.01717131316467 2.102280841692538 1.4906489940393552 1.1598971411652153 1.378006136329943
Ni 5.0961802241200855 7.548061052328962 6.987312387971668 -0.29824590982663474 -0.1479623589463129 -0.9833243175710613
Ni 0.7986411477974465 5.801647717726986 11.359309682084769 -0.7563262474468201 -0.3351975473503194 0.9597596428772439
Ni 3.2272503437893336 9.068728090567902 6.166748674794323 -0.192110771328753 -0.2649861193322404 -0.050972120172492856
Ni 8.619748375566934 0.7898735890193411 0.7851101266455464 -0.14406225256095834 0.984931514157181 -0.20502259429441463
Ni 0.6974501297116924 5.179572914464554 4.457729528646162 -0.09016036033618022 0.03550256378198401 0.016393353756358864
Ni 5.39843172480002 2.799373299027299 2.1682402135419223 -0.09269341117067907 -0.6758913419285199 0.5392258960522649
Ni 2.838946537654417 0.24050257468309064 11.1921822198661 -1.5187722346381327 -1.643675911992769 -0.6361114909274206
Ni 2.7996209183651746 6.221169902607374 8.966318235074604 0.9055523035969051 2.7241609324772442 -0.306284206750079
Ni 4.287161991848343 2.190229727853913 8.849150267043937 0.69231914846724 -0.6329372069644971 -0.7517363140832923
Ni 2.5944820535653204 4.546538662729489 10.4737935823654 -0.5110885143861004 -0.45932243755740254 2.052199264620433
Ni 6.300674052238541 1.671265451100098 0.22438622422203985 -0.08998089733552245 -0.9372504060311342 0.8644118248028533
Ni 3.0601072907234657 6.611372123666002 11.465967584885615 0.7623066333999711 0.7256768979920792 0.800244288986009
Ni 6.899573519693158 5.8228145855720355 7.201714967334038 0.9634183226757537 -0.7284999692631712 0.7889774578229379
Ni 5.488886151817231 8.112101219662682 10.512424033291273 -0.7049455789819988 1.162002360433676 0.049061790523657445
Ni 7.364299990365681 6.61347230249465 3.1578912501417866 0.8394091321109286 -0.021667200560788493 -0.28681581361282216
Ni 2.0061293356868766 3.283973514335967 3.996387188924602 0.6740095515247747 -0.8988491805451165 -0.5021768137187674
Ni 5.780664271613697 2.755342912318425 11.521859854987378 0.005555382600590433 1.1715707208484016 0.625547085148013
Ni 0.5723831048028007 -0.03254635208341031 6.390171017815967 0.0293429719384914 -0.17815379492802866 -0.6899989849744955
Ni 3.403628681049294 2.4650229952894476 11.069229130415737 -0.06980622215986042 0.5243515500435937 0.7749541469606525
Ni 6.308726266262784 8.013677118400519 4.537394172292618 -0.9230334911008039 2.6115916083182444 0.8596154318554744
Ni 3.587573164744335 5.927667618532369 0.662710970825097 0.8306074746588985 0.8082499328993048 -0.43507667763616037
Ni 1.3679409332893697 5.873136337680261 0.6904892749914184 -0.15557025320055787 1.7826373529920527 0.0024551464087119003
Ni 6.036748522409758 4.113498296218424 0.11369762886577743 -0.48521781726692564 -2.0251206632360863 -1.373877201763234
P 6.714794467118611 4.554572534580556 3.1401727108538164 -1.0210367445201707 -0.2591039495198505 0.636484043775491
Ni 8.49595704880243 9.12742304473095 3.3333139601792796 -0.5897164486026489 -0.8011130647442074 0.6837748584416546
P 1.8789171936250575 7.890711189428933 7.762492979168413 0.03289623650738851 0.6459912119349779 0.12275397800148538
Ni 0.4096357535385496 2.775473447379033 8.484344618964734 -1.2896776869961788 1.4662415117292682 0.8233924449676979
P 7.437035878094921 -0.09015544959444226 6.398748735101701 0.2922392986212386 -1.4090324095081284 0.161324896296148
P 2.8538862377062304 8.172492824844504 0.5870302471924578 -0.016850495898435496 -0.5272602390499564 -0.5773502137278121
P 0.4581434647196739 2.8854347755688687 1.0818158712657322 1.391084823890772 -1.9631735321093287 0.289254762071618
Ni 6.803763178108569 8.355795332478387 8.547619613769818 -0.8539546340252713 1.3283583913958286 -2.075559793723245
Ni 2.157828278938593 1.5804533517059567 7.754050076855521 2.013435256478358 -1.308105297573747 -0.13508267477016736
Ni 8.161349954640114 1.9649144725605112 6.379822363710094 1.1666403734263198 0.27362065507878686 -1.113121318462257
Ni 2.52890878446129 4.180713189821702 8.347217615192653 -0.2736116562177223 -3.139063963379007 -1.8122790871178853
Ni 7.639551812130613 3.253635559902942 1.6995830151577924 -1.8383886397207436 -2.758617571493217 -0.6677136912137339
Ni 6.9966311290537115 1.8767436461037073 4.2916356478859585 -0.169376820066347 -0.7222611874423109 -0.9887735136110907
Ni 0.23377191423617483 5.474771849558335 9.138331135118689 0.5890438480156565 -1.0487987451247873 0.3513674722419626
Ni 5.9261910735917045 3.3271051345592197 6.682735099733022 0.6982383421651523 -0.3407986955871808 -0.46047352044271017
Ni 0.23053910621391316 0.5118539333221571 11.456169195975022 0.27385565390772837 0.31493622599812215 -0.6382709604725846
Ni 5.6861103688916605 5.99028779775507 11.385149218546392 -1.26772226577101 -1.954280086274441 2.09260157969688
Ni 0.5075361857565379 3.3549944088732557 11.087712538325144 0.9898050401993987 0.1712105308409761 -0.9589996247827678
Ni 5.674142100894352 5.8210170526007925 5.229702073754432 -0.4932784827878731 -0.5397316320440898 -0.9285737041927428
Ni 1.4162909017811809 5.416315343646574 6.6877012431204115 -0.3798979755814877 2.518659855884514 0.5923353742827348
Ni 2.7915870465141075 8.643006251154041 2.902065623987505 0.8918948607144704 -1.3271826259201724 0.8404141763366751
Ni 3.9551136308440733 8.849667516327498 8.703311648121938 -0.7614324583251338 -0.22236931310297833 -0.047489046719898856
Ni 0.9929627159667825 7.787619005093491 12.571537487522866 1.0204906422087134 0.8832441270180078 0.5384208836524662
Ni 6.806110976275091 1.8103266370335827 8.061123734863415 -1.2389104837456404 -2.7485753567658664 1.7034923699297695
Ni 4.4093942338928915 0.4015908763835768 1.5100395831007922 -0.3055606983204931 -1.3364411684039628 -1.855105181144476
Ni 1.6025648414695675 0.8808883694270768 4.351233036969264 -0.0003758952821799978 0.16474652038318724 0.4351373556707667
Ni 8.357620378709395 7.009874178086749 5.326359823739749 0.1604689760537559 0.3564286888149539 0.6939816237713274
Ni 7.88551118333355 4.029252694821274 4.945742305274216 -0.27573024522262185 0.485876533896847 0.6164461512880094
Ni 8.442819773111696 6.942732653176175 0.5820356734366458 -0.9647825500131318 -0.03605432252039597 -0.12216416693628639
Ni 1.6568485029837992 7.489751283802609 4.794239623275483 -0.4336255470119306 0.5201555096843752 0.7094372962047653
Ni 4.815370723882839 4.263188771507373 9.701350560515165 0.07956947219421134 1.017842920173221 1.0258007415677173
Ni 5.542335244451956 0.920795435605997 5.999768867069721 -0.3804399641278868 0.014236712424672254 0.4365864294124675
P 0.5095639130011395 6.83385351320372 2.9138376307318317 -1.032290463057119 -0.10031107561693693 1.1747594029890285
Ni 3.8973999829459385 2.280931774208999 0.44896504126242726 -0.14587925116503908 2.1949217153240457 -2.3918854438697257
P 7.919765191739642 6.375711882701363 11.998718756107136 -0.38462572007446016 0.5633788391493846 -0.20301867649050842
Ni 5.1974106778781675 3.469898952734011 4.5651257039173405 0.22680960826251906 1.369688103382551 -0.677729166468207
P 3.6803295344951272 2.390471232415788 6.133580523040249 -0.3231940951315402 0.11071015946307386 0.20398129751409388
P 3.8393286626708725 7.145954760879141 4.804628630162342 0.7568702928757481 -0.23235470645046438 -0.21061397233926307
P 1.5313972095468713 1.7764027877446584 10.096088801000207 0.6821008131733414 -1.1798329608571938 -0.37145035903476675
Ni 1.276551055440186 7.8637848792066345 10.032545093358094 -0.012481677406778503 -0.09737898957180648 -0.6037662418274957
