# total energy = -340862.77293245815 ev
CRYSTAL
PRIMVEC
9.33568739239938 0.00000000000000 0.00000000000000
0.00000000000000 9.33568739239938 0.00000000000000
0.00000000000000 0.00000000000000 13.66372216452271
PRIMCOORD
 96 1
Ni 5.12758882913146 6.674054742646452 3.5409673244410325 -0.915699933553868 -1.1655815931445022 -1.362994750522775
Ni 7.448879434064495 6.938170668051385 4.416934850535723 0.4108969950661633 0.05122203139976984 -0.5052662512773685
Ni 1.5712708342954846 7.417996980943732 11.075047973790092 0.6910271691286938 0.11637841349244472 -0.5724540619777754
Ni 5.120839127315767 1.4198739956439062 2.803194108218178 1.6563275393185084 0.778046669843047 -1.2274513340661055
Ni 6.250896050807018 8.804673273051533 2.386887810753182 -0.15615749316259558 -1.2135781756284392 -0.5571642256982404
Ni 7.186023826425978 5.204570905441561 9.193266583186123 -0.616519427728106 1.2393244313546075 1.4239034130826895
Ni 3.2840053361057606 0.8866671571472026 12.790459950677462 -1.682327048706064 0.540255879978676 -0.44669472149106293
Ni 8.880759123394405 1.2417024062213635 11.773496474994628 1.6032116333301358 0.069157532832268 -0.6480398669338904
Ni 4.846407267600542 6.8705149432127595 9.149405657777425 0.17845589954947974 -0.2593314921496243 1.5234686116725376
Ni 9.2957117462214 8.229221516593292 7.619820533782676 0.4896439713590794 0.10848512678729703 -0.07118047679956772
Ni 7.257357812005106 5.5988636525864965 6.8797386021254905 0.2188607857290876 0.06969746449613803 -1.301088499936282
Ni 1.6618456711085583 4.914315055992451 2.649901191504681 -1.1251504817126494 0.0017771465050808104 -1.3900219298438965
Ni 7.0917147147494495 0.4086454325826204 4.439985595699109 -0.10514192134667699 -0.003573576283871265 -0.890996260159601
Ni 2.4193619985344927 3.4940956399236756 12.320550938253735 1.0011317780661275 -2.27615263438108 0.23623193001768347
Ni 3.366103368978794 5.08785614458431 4.105128500849621 0.2701794906077218 1.1645649789545298 -0.040610574432510704
Ni 6.949784262876727 5.072666981577212 0.5136000283261389 -0.5047664288228146 -0.25487654170206425 -2.732936364677029
Ni 2.914312124623827 5.468640152410702 7.645795216164145 0.23139311386814346 -0.19007522895596296 1.4345603785759036
Ni 0.38189588816698444 7.406224679436694 3.2225755810332286 -0.10760375262360822 1.0970614367859173 2.5387905651961176
Ni 8.488445541927101 6.314033303060865 1.7639043366954683 -0.19498834998686418 -0.3271001150541657 0.12065235827745026
Ni 3.593614065034721 3.269684392004415 2.6464712600425986 -0.4395601673288107 -0.1903595929656012 -0.6324525540185947
Ni 1.6508482316356865 2.7258992863882625 0.8261635022408071 2.2258654560907534 0.5855111522720496 1.668794561437268
Ni 2.6416447097815845 7.850612723874863 13.188606469481483 -0.9517267452704382 0.5065497459754824 0.5308456424083696
Ni 6.401499356050113 6.729630088301804 12.356335560701499 -1.4246312923876499 2.467571778959447 0.5801701996751104
Ni 0.09936905411650747 1.574734374231338 8.737731728280544 -0.6910814194053969 0.3672769443833675 -1.0840161735661848
P 8.989239808177741 8.644304839040506 10.67707789947337 0.6108660860970706 2.127178289230485 0.820470900445529
P 2.7390439339076202 1.9223206785216242 10.792891766519814 -0.9267073404079653 -0.5562764237766483 -1.1222595333180994
P 4.2362547619736555 7.536868285534627 11.875700777301214 1.0687715887022884 -0.7349629512796956 -1.9362972765437751
P 8.807044537589826 3.4803628441133236 10.864953935697311 -0.06498900327687518 -0.6999082736684075 0.4878393140501727
P 9.03388306417033 8.631309562515687 5.132025147669244 -0.06479514209851421 -0.2695007193731423 -0.13290726438540337
P 6.226137808462319 3.4015323017458123 12.463896680299708 0.7834637270935604 1.5171413839029293 1.3704676618610527
P 7.264247549128178 7.252036470324684 8.460644799137404 0.4894169429499378 -1.1175047922419334 0.11517050922727261
P 6.8735023631035235 7.401304772304093 0.7919612787664331 0.761740733594172 0.22043610063600746 -0.7744358125633372
Ni 3.7985417338539107 7.084171479525273 1.6002264015867058 0.08420439986306144 -0.17597632766073562 -0.19784047472367863
Ni 7.666830386469981 1.4034525219318676 6.51748593330899 -1.0216005874434406 -1.0920395580912934 0.2619146794957683
Ni 3.791017170004051 0.6382025112637201 8.63131796463413 -0.3439997190229817 0.9015488388644667 0.28046416036318156
Ni 4.58310354697841 2.7410137638980916 11.327307576503559 -0.1891113223807969 0.21011363566407684 -0.41821255489097003
Ni 2.5704320881355196 7.251261608290517 6.037506515147242 -1.1704947141754036 -0.04847172234814232 -1.3689293708396553
Ni 4.387931671239993 3.3518197676260826 0.27127639745560633 -0.3693081158807833 0.561984015684387 -0.09472355422683042
Ni 3.5138406182641875 -0.12356715523168853 3.4154116678445545 3.5934905062966886 0.819019512710983 3.3875330588928305
Ni 9.150112369295334 1.6499333342941405 0.35049530440891674 -2.5556688290086953 -2.1326837924297464 1.3190222015965671
Ni 0.11054947305768835 1.2158052100433108 3.7007504108672125 -1.7055464242453207 -1.030973029797276 -0.2624805793015673
Ni 5.129904079546802 5.152104343610035 10.94002312970861 0.5311960837692529 -0.41282069445143743 -0.3644461598027917
Ni 1.3457579752915054 6.79113359530289 1.3021528477109545 1.1388269507584774 -0.3933286471650968 -1.5363554949375346
Ni 5.882295114722645 8.77289459396354 7.947012095906209 -3.197527506832538 2.008652233267418 3.1104972074849075
Ni 2.0637376676006225 8.918783377191525 1.9720574854279662 -2.5097149879864005 1.7217770271715702 -2.9477941998943105
Ni 1.7111380993061494 0.3414284850404507 5.160678238696525 0.8596678823599647 -1.225974492410263 0.1599102753368085
Ni 5.361559820701163 2.4600655945461405 9.083533049186098 -0.6537939958088482 0.2202059869030724 -1.49333373996037
Ni 1.4251579945756931 2.268431944240846 6.559543203958639 -1.1138669383790298 1.0913697857177784 -1.4117356673719041
Ni 6.518942300505737 2.9199228726061666 1.3575536160164403 -0.5239931382629105 -0.15544246937344197 -0.26921429848097506
Ni 5.622370912851939 1.4168025545687153 13.116503223280485 1.6651541364712033 0.2325297985757479 -0.24069202267156614
Ni 0.23653177055731567 6.317879606170222 5.36991059286456 1.2162639499907184 1.8499856005297235 1.4762703567201803
Ni 5.111923546079272 8.546532187428125 13.59047045891207 0.3426732869020744 -1.2063119809843288 0.2359377958160324
Ni 7.027914628707341 2.080821975100924 10.705211926294632 -0.3033968578999549 0.16655220613335833 0.1622353239255593
Ni 8.631580297443287 8.860313968516996 1.5277954727664387 0.3251116238692272 -0.030833440441088832 -0.4001294721370141
Ni 4.6323586324273665 6.829111170664215 6.916261677427502 1.859963794788358 0.5903831356523703 -1.323451183902198
Ni 8.773641448936232 3.5503618264287664 1.8952537207425946 0.3853656835642782 0.45667985772823283 0.6360104465731821
P 8.739164756259393 3.0469162250250745 6.16451107039074 0.6260060270623025 2.601060112659301 -0.9733034429999494
P 4.646044749801925 2.467431451714303 6.782371119335795 -0.5984980514500208 -1.156353389678015 1.253669901443002
P 1.7348974231248746 0.3732473075832253 7.390747977265109 0.398659572459707 -0.18052280938083748 0.7747464018252206
P 2.5172933568285707 7.382848118791472 3.4324633004398004 0.07463578233801985 -2.450458259207612 1.1775482785880753
P 1.7081506794153862 4.921680913160614 13.856243468787662 -0.7811592473300999 0.18393877704092193 0.42866948855823594
P 4.596472250989574 5.065357138532001 1.8239841514048618 0.73258442374519 -0.5780888916660496 -0.34438692715907143
P 4.562761084659745 4.50009061676383 8.662540236767468 1.1687905870001032 0.7574966136058374 0.6563612423153922
P 4.185132539092972 0.7998135252355608 1.0134299180932917 0.05722427172979177 0.5247989219936575 1.601898828055983
Ni 2.5606296166189524 8.037746572969695 8.415240684641383 -0.32339438406780435 -2.0061235533082935 0.027971802622577632
Ni 4.37803584285184 2.180956555564439 4.672938063799804 -0.7621482534452357 0.3976365305118313 1.926534026509424
Ni 6.85465361073024 8.720605410188028 10.173023611266936 0.9792213511462813 -0.32780768264415155 0.13928154334286336
Ni 7.28864169967369 3.002310311781118 4.077541545295856 -0.8336935697833899 -1.5296207473168626 0.18320729819153608
Ni 4.864705214431466 0.22318080435175222 11.047474088198348 -0.5447231717214103 -0.3035482958761546 -0.47888878972510424
Ni 2.668764880977418 2.974956748406318 8.21755377478243 1.8917945661457094 -0.3253584497727106 1.0240277088276943
Ni 3.5622648275560254 5.5606900277948395 12.727824958392752 -0.08117229790495697 0.4286828582946747 0.5230845104057121
Ni 1.1147650679254077 5.100328622628246 11.598218015022546 -1.4804013481694183 1.3306140201992245 -0.5308721247709308
Ni 4.518155171415788 4.559913700076361 6.056048123413006 0.3081104613255403 -0.7351010195194565 0.8923969971618695
Ni 7.511176474474064 5.091179649212784 11.603614975768954 0.06916370347985508 -3.8438604183776506 0.9180190686053481
Ni 7.599837495419618 3.3181459440448875 8.174813131832769 1.1683370444024523 -1.0489728088088064 -1.2447216911107788
Ni 0.6349200836587442 5.607237763967793 7.617238282714597 -3.4874903507147748 -0.29997291982007046 -4.916542397877939
Ni 7.489825757942267 8.963781389296145 12.803864130299832 -0.07554749551901183 -0.3854047643323298 -0.051146183856511915
Ni 0.8875689845267267 3.2924074545485316 4.094935797609823 1.4942565088849555 -0.04023673603285973 1.5231089143402736
Ni 7.187004073577635 8.427586197339961 6.447077114327284 2.619147309178315 -1.965371825312228 -2.8549691482417736
Ni 9.066016499370352 6.735810313200821 13.207449620442471 -0.37807892009487787 0.08212206341273598 -1.0520144238486075
Ni 0.7076693594111206 4.003628109354797 9.253591926467788 -0.9301896425296109 -1.44698574882345 -0.01534202967370906
Ni 2.915012301160725 4.490222795437154 10.162557372393389 0.37738497935164683 0.16112306469798704 -0.12724929476867763
Ni 6.829932711134175 5.172698869481982 2.7130272409339367 -1.4906852465939293 -1.3563011405526837 1.267355883570527
Ni 8.615690957899291 4.79212958246024 4.250237754199858 -0.6401769192460459 0.1825159285514663 -0.4163135380960444
Ni 4.153027110954428 9.05858529239208 6.335266389934463 -0.08855522063258942 1.1788505423392666 -1.1240258811899029
Ni 8.706004395471924 6.648764366133711 10.721020978929063 0.03364185642416142 0.05815681084639016 -1.4111671964629438
Ni 9.31820141658655 3.57891969344703 13.077684502506164 -0.8187148369863706 1.9845535404470016 -1.0468310798754552
Ni 1.4771391006749712 0.32643257075753584 9.98951947733938 0.8874185701106716 -0.24912755503342904 0.3286777439539307
P 2.0307453491820073 4.963280735139489 5.739719566867262 -1.1194709148293687 -0.027807509130571464 -0.14464615008888637
P 2.1241208921426713 1.7006727940013198 3.1281311018929006 1.0935796488849037 -0.0674156104404968 -0.0005000795648701065
P 7.779857550899571 1.5256379954640784 2.3160551515744734 -0.5543105582995292 -1.2320829193008458 0.2674983442311329
P 1.3620954278191162 6.01169707442848 9.297165312711998 2.548310588871411 2.496353736188146 5.104156309777603
P 5.650480666886588 7.991404221914233 4.911465804271636 -0.7129234549811528 3.2784673770117148 2.1522889682551836
P 7.2442691786086995 1.1572237731228783 8.619786523855785 -0.8120109426036337 -0.14915252259967215 0.836251046097921
P 1.128227128808159 0.060512990593554083 13.701843339577152 -0.20147010105646593 -0.6818791840808386 -0.6164500079427512
P 6.17204683706519 4.944712053380965 4.788957315963736 1.123244522939188 0.04638372947086205 0.2200604624641436
