# total energy = -340859.30256861757 ev
CRYSTAL
PRIMVEC
9.38267939417106 0.00000000000000 0.00000000000000
0.00000000000000 9.38267939417106 0.00000000000000
0.00000000000000 0.00000000000000 13.73249970913980
PRIMCOORD
 96 1
Ni 2.8985253920102956 8.156841504418715 9.534103397138873 0.8163242252670071 -0.10761455125688563 -0.6913814671443189
Ni 0.2569071378907815 2.9932810687773603 1.2831536208146574 0.5602192104744803 -0.7179502187717829 0.12259379827453726
Ni 5.620159133947369 8.391802555770417 4.019475008697979 -0.11338282119923053 -1.228246319163575 -0.15621431454246
Ni 8.677617728131871 4.401236519811026 10.895365007099265 2.678227146059607 -2.2189448177115207 0.5247179322440769
Ni 1.487858346701387 3.4613735490459114 8.51859914357737 -1.0130167024291714 0.4968487166376346 0.8908934160331495
Ni 7.624158660860286 8.686212262236102 13.224273577332907 0.4476912810763774 -0.03592808135517683 -0.5385720645183499
Ni 5.923895223491226 0.6338919270469896 0.4823522760454187 0.27123030046973934 -0.9455342433064812 0.6634937395951154
Ni 7.417148610705641 0.3681134660169606 3.330968382836678 -1.3832614711916111 2.8042636514671058 0.529872479861823
Ni 2.229774935373743 3.4669093297462354 11.103316139972966 -1.1106304337196033 -0.4505652601900627 -1.7958993602082811
Ni 6.139875114916226 4.550496179778396 8.813669390655434 0.4207173235906948 -0.644647810533206 1.7771290215793136
Ni 6.163097245820126 4.806286778849959 1.1573985103936955 -1.1020573473386117 0.5129803320921745 -0.8356573783779802
Ni 6.491697435119675 6.125238135437404 2.9246373880933474 1.9292727655968258 1.87884674773579 -0.5073156776072295
Ni 7.470864448857086 3.543518905031222 13.491699636822217 0.7810571745345968 0.9459862432422352 1.5116338238211384
Ni 1.0826954955126165 7.401526449915745 6.0452245241556755 0.4037930370315304 -0.859260619619217 2.582222411127508
Ni 7.640568966699042 5.768067688116694 6.026796004031089 2.565241817409111 -0.07007361688863416 -1.3620223593071767
Ni 3.5029951137690225 0.08022941290224955 4.758516744477827 -0.7095843633055908 -0.2217121391349537 0.8497948462206267
Ni 0.9218594860061632 6.0025877535482 10.139431634040108 0.956972824160726 0.44937586786765193 -0.8566746040595956
Ni 6.736538447619581 0.4998575405413404 5.457446588610297 0.09320223248629755 2.7578968912771087 1.50425064398319
Ni 5.26435855778301 7.371698912888069 0.16868086754635264 -0.4848277809173586 0.3970076386785808 -0.46914353741288234
Ni 4.514222742172546 3.113829730536272 0.7629685058881457 0.6072038067541349 -0.7702199747097768 0.3727798764794677
Ni 4.177309499143359 4.703114838882572 11.49250873297526 1.2092196415494272 -1.0956900103596872 1.3834902993729659
Ni 4.036175239322565 9.07342604820501 7.234788735221997 1.8190716845596864 -0.4216264656685254 0.25122351833050927
Ni 7.2111988032952965 3.789635961895949 3.935596671873092 0.23054285005270617 1.1820338251632547 2.841657775844848
Ni 8.376959157350226 4.649567888955882 2.2110837002328703 -0.6875063004596289 0.8215103974536367 -0.39422313395490816
P 8.172829589695581 0.9147624274947653 7.258875949143812 -1.7864721533571104 0.710432313128183 -0.7015239548949596
P 1.9626594425643984 5.806358401740457 1.3119697050296302 0.74395358481408 0.3451664856375733 -0.30078744530156587
P 4.229101888068421 6.83682990508697 11.83150962211601 -0.14500841852431154 0.5101742301019472 1.1411085477038025
P 6.624246543515389 4.595570570429844 11.073558034771024 -1.8707099775612686 -1.3464934104336423 -0.32237391322308995
P 1.1467416634116148 4.94592919268541 12.136852026330878 -1.3356839785229642 0.7452442786010456 -0.6128448070899961
P 2.3321962610088827 0.6921508584443615 6.895115107985971 -1.5354872333999685 2.0884538760770934 -0.7732186523267846
P 1.7892769144944318 8.851722722496625 12.22402556007433 0.13762086781098878 0.9815831665102384 -1.6801639796164742
P 2.6565273312937756 3.7361828387607905 4.46545157593478 0.535653091099342 1.0066401094788664 2.21078207939507
Ni 0.5758872662546665 1.584359201790927 13.034188003834606 -0.18980063513833764 0.01740225463684745 -0.706487469547822
Ni 8.00310630649532 2.836637240316508 8.750609342335427 0.7645157252361479 0.0801453993023394 -0.16865948228434824
Ni 2.7684251628735375 2.8729106779223574 2.6431626431081123 -0.3038136337223994 -0.7952391224619336 -1.633038486883581
Ni 0.5420758436585882 1.1858955835174632 8.408931574832298 1.1655363417288638 0.33262078776207876 -1.033620494722452
Ni 0.05068710932082758 5.555371734395275 0.2506563970389924 -0.18987005492369233 0.0399279465431893 -0.11810619481682885
Ni 5.435301589273172 5.660560950380578 4.7748857665283095 -0.49856312822558 1.5420396898065056 2.297520815644211
Ni 3.8341098610816 4.582735065348416 6.503560894640843 -0.7360770102794807 -1.5871962317384858 -1.4397290672610366
Ni 3.3884888973847014 8.83051786761064 0.17458444926947742 -0.11367592695961712 1.2359529437792134 0.2882607735894649
Ni 0.09688366839898586 1.306463010634681 5.2144774206014315 -0.05081528287965443 -3.9044284097686948 2.3071418836737427
Ni 5.006222288923173 4.0973315420424115 3.4348139991672575 -1.9673618591590634 -2.8146565646656554 -1.6540400288359127
Ni 0.9704786528416495 8.873171527040592 0.42709486370912053 -0.9296227142825474 0.20287160938968288 0.6791759262170626
Ni 6.860887094435495 0.8061203855811259 9.547341419155968 2.104224508647789 -2.0483433812094525 1.06587189855699
Ni 5.7404169326525345 5.876737878067792 7.042945785918325 -2.021143680866209 0.015301406243760746 1.2001428760591395
Ni 2.685613636668357 6.753042580249868 4.20559170891452 -0.3512746554178402 0.3869751941432432 1.3256826443358782
Ni 8.432054249337176 8.066683340436663 7.3281839235118635 0.6142229183844453 0.45135227486773233 1.17080376077539
Ni 3.7223433870099814 2.175927739714154 12.448277221440692 1.031460510956656 -0.8201888504287359 -0.7362143071882933
Ni 2.7582543386715868 1.2854645746900635 10.202258053649205 -2.444341861897229 -0.40309678229545415 1.6224841084065027
Ni 6.3072339629699075 8.016851931454598 6.5841018124909745 -1.0391961890380166 0.1075387037136277 -0.4637956428374077
Ni 1.359831689657462 3.038758914632392 6.116976686443108 3.0143191801997378 -3.231068318902462 -0.2508499370411744
Ni 4.084073816399094 6.05382656440323 2.6030498131928184 0.1418991834713685 0.81674640040609 -1.186603446811808
Ni 5.611039169810565 7.974611109907383 10.555595676535878 2.527692141290111 -0.3139628063412593 -1.1065596060843395
Ni 3.3929269046241135 6.683629519875302 7.45042991192957 -1.2230910002148807 0.723575021157728 0.09037684722236049
Ni -0.0014402412499994507 2.966484137116133 3.9045887938079575 0.859212797100417 1.483430364803729 -2.2907775833831066
Ni 0.3096387329990676 0.7746912252220174 2.959586929670696 1.1144354092879905 -0.4016939884106566 -0.5577347534897298
P 5.831879289036865 2.0712264230448127 3.943342073513969 -0.7117566883665614 -1.369070781513526 1.6839337310715514
P 0.2365279587702681 2.146400448419377 10.404702492127955 0.312032679198082 0.5661438034890314 0.5600860273307257
P 0.955560192988235 7.512429717505279 8.263874416857599 1.4269198313115103 -0.6352234318955124 0.9686044948623834
P 7.345849631821303 6.7836488796472505 0.7700777618824426 1.19969190456465 -0.3663009536233433 1.0227167033257547
P 4.790617704664297 0.5085881234932915 9.210249905222874 -0.7226576515497812 -0.9339406249316109 0.9994456486129559
P 8.614669333693785 4.8410402224330085 7.835338373630563 0.15303514548352998 -0.6735390396462594 0.04050567342353024
P 8.970601267366286 5.890427206952151 3.9694475017216138 -1.1189554086455311 0.2751697447334616 1.0099015538389575
P 5.949894627424442 2.079267379079012 12.789296324867275 -1.882977739185028 0.6773584133923495 -0.11827948716989951
Ni 8.32518553378347 8.085842771267275 4.951184431279057 -0.17702199531643062 -0.6896295174502188 -1.3597898704322322
Ni 8.27254870373463 8.500078673197084 1.8916926105220802 0.5164814032668976 -2.5306985322166025 -1.9091577400145054
Ni 4.544725832099244 2.1626231006750714 5.842299692504287 -0.24354594718059347 0.06024274684114141 -0.743211821552049
Ni 1.2312608372226577 4.778748615535637 3.030776131208942 0.791005029775928 0.5480162406503852 0.5336802836436874
Ni 2.0553040165220176 6.801025601438774 12.827678988746738 2.6154554621490242 -0.7830832038256901 0.8727658531945034
Ni 9.352476308897087 7.291430092733377 12.200954490304795 -1.0587368301741058 0.43407934671989756 -0.8279769790145869
Ni 0.8447779619597756 5.048782121561593 6.288111124587994 -0.7086479675342505 2.308252086018786 0.0638883140135287
Ni 1.206725131237325 7.57997562472838 2.3608640988932366 -0.7184220162018788 -0.9744491265686186 0.426722135023878
Ni 2.5731903750560225 0.1329375513126529 2.5590103320519564 -1.9658240823582984 -0.6745821361987931 -0.27108040515543635
Ni 8.506449512342034 3.199296554941777 5.960934287715968 -0.41719234115657183 0.42541832861078993 1.568199378921009
Ni 7.890429712545851 6.301257196349389 10.20700944237233 -1.5340944668174998 1.108958445333819 -1.050418025895765
Ni 4.135866205324156 9.40172599177166 11.402053138064057 -0.3437405518243241 -0.4091255049880374 1.3868232204009407
Ni 3.4958736602918266 2.0431159163021526 8.37828023857498 0.1711447106000472 1.613309640996086 -2.908034917718502
Ni 5.864634221960304 2.071883210585529 7.955099828608531 -0.10967914709539821 -0.8073456759174805 -0.4328981819276028
Ni 6.583065964712474 6.127780841487891 12.641535078760652 0.6507194706485825 -1.1975800004279697 -2.211705362540288
Ni 3.80032283345132 5.348905879631511 0.3444428430495429 0.4123195864453028 0.2541499479486849 -1.0750553648284713
Ni 0.7741948814948187 8.93293919324578 9.9596050819278 -0.9989771936169698 -0.34948028252157876 1.6512737789446852
Ni 5.364218412009356 2.4003145116603224 10.43286835667762 -0.5766578156464779 0.8975430601391834 0.6916460336596153
Ni 4.3042571480846785 6.17479744672403 9.712735534194993 0.003924531865386789 -0.28274061510218407 -1.426769421776575
Ni 6.628712698792261 2.6181334081993275 2.116068123253265 0.5856327654515786 -1.0229853836061091 -2.7240300633263343
Ni 6.472331585347695 3.641314569843889 6.558476777455968 -1.6997437015206145 1.211200676535198 -1.1085987480015553
Ni 2.204291578793948 3.56139290881786 -0.28042576145591913 -0.4970706028404537 2.197392545462041 0.8388684291161103
Ni 7.61561104015182 2.408514973240124 11.641877232020807 1.1589296350456235 -1.3492385772789472 -3.179043846206054
Ni 4.475969559265395 0.9791670137374117 2.258996351328129 2.1683041127365175 1.5760723539111825 1.1828879456334338
P 2.550549970259614 1.7620014661963965 0.6815521840730301 0.048935292248122174 -2.261186757099867 0.713019871349701
P 3.213989830495517 4.668680406390728 8.531562253095283 0.2998009130185805 0.1680007656544268 0.721979394535834
P 8.130072720794946 8.328835395974023 10.705307581638426 -1.0122577127759598 1.6406407247108712 0.9256668149585929
P 4.888244481252207 8.224950372391001 1.9922833754544522 -0.9286747485469812 0.19352667783967314 1.0462793211370434
P 4.349303390698668 7.403881502383171 5.574584646497061 -0.4754167720161038 0.24189555606136404 0.5199439078942013
P 8.315633966405624 1.2234638308464392 1.2725080330475604 -0.2047228036658087 0.08426302101513874 -0.8811833878342372
P 6.6483975596554465 7.117953737871879 8.597341401833855 -0.49928149444884334 -0.014151866020349822 0.01689883263786767
P 1.0360448147634487 8.478019994508168 4.397324880872102 0.8832654671742465 2.2267766550511134 -3.0793758034897545
