# total energy = -340866.70472572144 ev
CRYSTAL
PRIMVEC
9.27932340089421 0.00000000000000 0.00000000000000

0.00000000000000 9.27932340089421 0.00000000000000

0.00000000000000 0.00000000000000 13.58122776559359

PRIMCOORD
 96 1
Ni 7.313777145643441 2.1241670449869607 1.3482114606369446 0.9727809948375763 1.0835271497449082 -0.20928522622551052
Ni 8.182572360968821 4.937175385908474 2.1375357662609447 0.1937331374235244 -0.4491570669886265 -1.3228382329085475
Ni 4.618727564238054 8.086410732203435 5.411739472995448 -1.7927608145792997 -0.6933031096470641 -0.5308669825646083
Ni 8.216469729479867 3.254741253760218 11.505975040560035 -0.14861181960485373 -3.494946549882503 -1.0183314297738657
Ni 7.916506320093597 2.869445186058161 3.9508065029895545 0.5528694549776285 0.17642292827985098 -0.8760931177955233
Ni 4.236781332296328 2.647131155182821 11.268059683192053 -0.4788859615116269 -0.8612557956723749 -1.3082341098421275
Ni 6.261158533054496 8.70824603360794 10.000998689798372 1.6611676410196292 -0.8709072027192097 0.16469098455490344
Ni 6.0019406328749065 4.046675833066713 11.854510140538753 0.898866149825981 0.2152715257159325 -0.04107363011185829
Ni 8.05120497908794 6.899279047088864 0.008719780232638663 0.28417194823207187 -0.24437461372947591 1.9469064195181889
Ni 3.95123799152932 5.019102532523315 6.249986227637771 -0.8081699715909888 0.4916170359250501 0.3343526828515209
Ni 1.8436438181987311 6.103632738408041 5.34077677495237 0.5447373127887973 -0.0742683716962721 0.19594942834855283
Ni 1.1754397375854395 3.800244840581681 8.231880829842074 -0.21268756703884018 -1.3701480737381049 -1.25417743720704
Ni 0.3695527675608469 5.736403513435523 8.752517685720232 -0.9137893467947167 1.8918619290485357 0.6978575617869659
Ni 5.288824626832252 2.378828797359564 13.438638192275604 0.2953439056884914 -0.6207776887838278 0.8858879923987583
Ni 1.5779860675546828 8.758651318511307 10.122768467449589 -1.5631456185471853 0.3026455815562272 -1.5893389891131016
Ni 5.865460343780887 0.5628011736381727 4.882316025755915 0.3155712884789597 0.49611338113350684 -1.9143187153901546
Ni 0.8088368669448394 6.897432461725136 11.372485477409382 -0.8479683345348493 -0.6189216094116954 -1.1537573468160647
Ni 1.8974453354796068 4.765934751223878 3.4895331908597034 -2.1687800239316717 -0.883006299975589 -0.7218402978548084
Ni 2.315024169414876 1.7182523206105154 9.57953274727584 2.240068744174329 1.2023385981588777 2.3098903929531573
Ni 5.982945857801785 4.032970272352009 2.4357797170145568 0.6250747734972848 -1.004901786631521 -0.12051171893452793
Ni 1.3963061940047918 1.7709403190790929 1.6532153985135505 0.11188412516651698 0.6034906195686058 -0.6337075094716184
Ni 3.1829564076607255 8.061727731864158 11.651593607373648 2.0812750989404676 -0.08071361310098359 0.23377472672644256
Ni 3.84467424119238 3.8773281803630253 4.1361628444847165 0.14089851012099605 -2.6353691703538162 0.9778995470110642
Ni 8.302219957350266 3.382730961910463 7.130945708055166 0.048579965791232464 1.0533987057906438 2.587027802935951
P 2.797057183935341 2.358952486560041 5.646476662086662 -0.025786107825168495 0.07465146606730369 0.5594851605219332
P 2.549160058347449 -0.19370866051974236 2.415041357067846 0.9758197816638999 0.9767986006374015 1.1923645176653015
P 5.707127247995515 0.3363986728570109 8.207923472595478 0.2529299594986547 1.5406119562210434 -0.2550053539704447
P 8.808963810180316 -0.09970725825021359 6.016660423641144 0.9216093570597677 0.9467614308453631 -0.39237965298826616
P 3.1942679029289884 6.429736001913011 3.4112101334673333 0.7605220306957226 1.5169817183966132 1.059153091775918
P 0.01400899459105522 2.610941793783129 9.627311055714525 -0.7988916316128564 0.7675377998919233 0.3632948198071679
P 2.1136350128873067 8.791073274596057 7.893871266436606 0.4398622719502618 -0.13042794960697537 -0.09042389841021202
P 2.310792797928143 5.776072621123647 7.579289210909548 0.07495511335065155 -0.4980681908670326 -0.22071557954963925
Ni 5.216028334478255 1.5824587014507472 2.377842405278337 -0.10023471385304673 0.9186086225602309 -0.264383452751235
Ni 3.321450309940317 3.085384321733094 7.737877488089404 0.9975114077047208 0.025200667635343694 -0.5144193785315463
Ni 0.8023812416305403 3.223971017247044 5.689556849069793 0.4681834874924582 0.5859127585858426 -1.085758610178588
Ni 6.282333949135034 4.605625159546678 6.40619714215337 1.2065282107601931 -1.1103550685710295 -0.4058445202439204
Ni 4.1789433093208705 7.788247511563713 7.782301321106041 -0.7774370612835062 0.5163762451476009 -1.045500791099806
Ni 5.3878628458627436 9.052694519545526 0.7649243246495152 0.3742829433875554 0.5978097671337447 -0.31260346409988743
Ni 5.301425948058094 0.3337299394368695 11.902411863979136 -0.167551336821834 0.3149010018848125 0.8154760183340988
Ni 5.415552346995226 5.474912179014157 4.24755648267 0.20735638463391384 1.5018183803926137 0.1358681467859402
Ni 2.5586713648691632 6.553420103989036 9.60851485816293 1.1313992908358386 0.3265586407283989 -0.19450626814412308
Ni 3.9451878726491665 4.972371859700533 2.074220158661324 -1.0351307607193916 -0.7716747048784323 -0.7812767467445706
Ni 6.166212495659201 6.786479591403054 1.7385601199498044 1.1821528672396222 -0.09199921331713187 0.6522076251583349
Ni 5.033327735350426 5.832240365880656 8.42442215147359 -0.18841841007883037 -1.563892524015539 1.660956296339772
Ni 6.65005497824965 7.468287160173255 4.143266166574835 -0.21296858861436868 1.8791866475737122 0.25828196783918744
Ni 0.25541987309730985 1.2223652762003738 13.272065057279226 -0.08812096130864824 -0.35766487521490015 -1.3883643396358154
Ni 7.8897076340109535 9.150062460357569 0.8865808945548139 -0.5573547444424917 -0.6367982325818001 -0.35954615139801305
Ni 5.8523579390895115 2.533682146856504 7.713009829213754 -0.9968336649114057 0.8452830743932024 0.7372067530085497
Ni 6.540104274858637 1.8832386912993686 10.123229649824347 -1.7374692410958468 1.0638612958848646 1.7871131293752187
Ni 3.217531166782585 3.5500835600754495 13.162803807619493 -1.1657679981236955 0.7321717616878036 0.10523242417795425
Ni 6.968038833748279 4.400923284552522 9.515171359925002 1.5378482774329774 0.09477446206942387 -0.3661114633203566
Ni 7.237965073172804 1.9419304120309209 5.927119592147214 0.9004124112671783 -1.5500533041396014 0.30862391062684913
Ni 1.3847070397100187 2.813351675888638 11.504807701671808 -0.38564876202233583 -1.8489527883898351 -0.2656587199192328
Ni 0.7572104230773193 8.511403745563923 1.3722337731475915 1.210882888184463 -0.22263773627301658 -1.0913715854899915
Ni 8.504926777805721 5.315558357650845 12.056843932192088 -0.1406174885454675 1.0352706287313653 -0.8147100867023518
Ni 1.101928937326885 1.371196344787467 3.9062193538804464 -0.473965641391874 0.23930259852320723 0.6474940217327494
P 8.933947017537355 7.006492350066311 2.4725443964672698 -1.2409779077976306 -0.215674417581306 0.314959880147206
P 8.75471688537452 5.178465633210063 6.144527644722037 0.6783734849204252 0.3761966154705005 0.8904105628594602
P 5.91440877490483 3.108703261527306 4.677062031017328 -1.0675688266434389 0.45775946394565675 -0.5454790760508283
P 3.397447968879671 2.7023802469196845 1.4636490279755576 1.1470809632371535 -0.3153069790739796 0.9572330198006481
P 5.000729472120395 3.8205480002592522 9.371169251253908 -1.8919850848899606 -1.6946596021294877 0.5225360941014097
P 7.8754453138901015 6.405377777893988 10.031991630074007 0.4833421975107675 0.18771804157769606 1.140063908489372
P 5.6504584197729715 6.627580456888097 6.490373596769055 0.3091039355870612 0.05811181654106766 -0.7870108210148704
P 0.3420924657172292 3.3616390597408468 2.8185397456216044 0.808640483469504 -0.3853659406745944 -0.5181371937027657
Ni 8.511162483154592 8.141984600260551 8.909054304488428 0.6201140870578997 0.030424892148760502 -0.1675287111140147
Ni 3.8940495211943706 -0.011155602634541026 9.507077006091938 0.5084413065712404 0.2892570760644631 1.0157235598373733
Ni 4.76730809109238 8.203358045465055 2.8825067617264195 -1.858488238684096 1.0225385258766777 0.7551437971029447
Ni 6.328721286990691 6.584375926970926 11.759021262722463 0.19659426102140337 -0.03602501194435732 -0.7715978288939098
Ni 8.01041307326408 5.795252982665485 4.299966101435503 0.9080313612650169 -1.0327751160030214 -0.24686395581023293
Ni 0.9291200969816368 1.3714932831374131 8.1014738579368 -1.9498927558400225 -1.2369443611582052 -3.794551287729878
Ni 3.0369926500153004 0.5179207979084929 0.27361662635495 0.07257889980899113 -0.07008004464653737 -0.408803088651612
Ni 4.127155405225568 0.8942753095477947 6.909409284483747 -0.914977710675863 -0.2895918336960625 -0.43945115255477224
Ni 7.983772135679846 8.474871049197105 11.898703846334183 -0.5843785813295033 -0.09465387733115957 0.705249740485979
Ni 0.32585086590751605 3.7045842952818275 13.477399782131705 0.39896861905969355 0.22136786842165748 1.5599546224137133
Ni 2.708031354892098 4.115008770848081 9.875059712127443 1.0981538985191475 0.5894063735613978 0.5539565173942201
Ni 8.586566265394053 8.896245126417625 3.776762584694999 -2.3090149323267397 1.7366634573650994 0.0771022416006414
Ni 3.9601275833808343 5.2849087523423375 11.736001117142884 -0.6175249861744848 1.4434993329367465 -1.0169551182516292
Ni 5.205171526058348 5.429471332148954 0.20012624060795445 0.8395564563220703 -2.8304102279554866 -0.3468171338671188
Ni 6.92926982043343 8.521648118637067 6.779993344321417 -0.4487755152794916 -0.23752005270148768 -0.04838841860571666
Ni 2.1215873930718034 0.10008028705233349 5.612958817904142 -0.2209197251406453 -0.38212249403663223 1.5426487841454144
Ni 1.1853964516320727 8.00839946007851 3.8570825524907564 2.9522771753663286 -1.873691943007728 -0.02802116780327432
Ni 3.702886179093073 1.2946976023825791 4.007059617522174 -1.107714545624389 -1.1081979130187107 0.2663536891037284
Ni 0.4951530499263685 7.303532772570298 6.766616271656341 -0.585647677849914 0.5355168226317938 0.5049399782862014
Ni 8.65323820428041 0.6277128248687539 10.364310184416288 1.0524368560980069 1.2343825139682998 0.9414114793873594
Ni 0.9626834098489925 5.889113339218788 1.19862876685155 0.9713517185902174 0.07475842395881319 -0.6842230017226668
Ni 7.766431822166105 1.3630398194873825 8.40570668403589 0.667085827821748 -1.1193701275854464 -2.31249492045554
Ni 7.390294446695201 6.322634050816793 7.850465375200877 0.5574969264473109 -0.6671889290585155 -0.6586937471033107
Ni 3.3032349980358053 7.036464564764006 1.0916808525243673 -0.6348254251261454 0.934384397337249 -0.09599007964407985
P 7.399536652837276 4.130959927834253 0.10776727858656554 -0.9297314719462698 0.43380372446100773 0.3738864792800851
P 2.2798648129165597 0.786273264078303 11.701938576674682 0.0750031929797676 1.1153172976723114 0.28947921937759824
P 1.6565633784091938 4.807543237510089 11.792837901119615 0.3071239290425549 1.6149440912757154 0.4971950442334599
P 6.795851708073231 0.13763927659115252 2.7268934356400862 -1.3256931858588394 -0.3321883282103505 0.2461473893591825
P 4.7489999859535095 7.203548062549354 10.251749207342778 -1.0837179255994756 -0.8434791884152442 -0.37346867501637615
P 4.94370802960729 7.335657790305102 13.23494683560361 -0.02594140245611016 1.8064174861307856 -0.7448593844578011
P 7.307856937291389 1.2639088072225333 12.767345952822874 -0.19828064758489078 -0.4673558493848402 -0.5841055301737746
P 1.8347542263472172 7.411896711653786 13.05453451763505 -1.4779824543152804 -0.262357937680774 3.345003413060736
