# total energy = -340867.3632130472 ev
CRYSTAL
PRIMVEC
9.30307536945725 0.00000000000000 0.00000000000000

0.00000000000000 9.30307536945725 0.00000000000000

0.00000000000000 0.00000000000000 13.61599117246904

PRIMCOORD
 96 1
Ni 4.295453257471618 0.6663448806118794 11.376745980904724 -0.9362124516849232 0.375979614363688 0.3095747045758927
Ni 6.62177102763322 9.028876705912838 11.786465522337021 -2.756873077998284 -2.4238619967763224 0.6016602512280864
Ni 5.384713161882742 8.56751858299843 1.793606918356869 1.0486897303507485 -0.8963174152621983 0.7430776099670299
Ni 8.098801727320161 8.685016427255748 9.324312615692001 0.9610552217602157 1.2021635060335942 0.046455463249061926
Ni 6.414768293463021 7.255431412898366 4.125086965143838 0.5863632158596999 -0.9004959721199202 -1.5232621520886864
Ni 1.4537730107999038 2.9126255008527373 0.41407058986928175 0.1734324781929594 0.3422457124463525 -0.22299563383306753
Ni 3.417428986608134 9.195541304477358 2.9341239781523596 -0.6569880772661136 0.5257260617936171 0.22568089397471455
Ni 3.458911400507056 8.409970998477629 9.219428811579457 0.13599155973768193 1.018688298892652 -0.6043205716690689
Ni 8.355882917201933 4.237476490614008 8.971304622841863 -0.6762410119584548 0.3945296094517335 0.08524621086401449
Ni 8.356692284775201 1.927718194939978 10.002974768338458 -0.15703321089932956 -0.27746136898111573 -0.21953647163987353
Ni 5.4372011141630106 3.795282703342519 0.9293065445518489 1.8056973201353095 -0.350552432539835 -0.14747873444167503
Ni 6.368987858657773 2.7816661062675996 8.643826129929248 0.20484801638976333 -0.39018161689568287 1.5669991879653207
Ni 8.093564095782801 6.861883407703007 2.240157335910678 -0.03499939889332037 0.8810041819438957 -0.026128578766251777
Ni 6.448724519238096 5.180361804245665 7.603796240739097 -0.015524577998160361 -0.2174317665920449 0.15073066572006943
Ni 2.8562488629905554 6.733910300370964 2.092382632260212 0.36177658339042856 0.6980573365025978 2.1302713263335114
Ni 8.714451358311186 1.822295742752809 13.229869325123527 -0.8168078497716449 -0.7695229486427522 0.5932159771154751
Ni 1.4951158785655037 1.2249824736803268 12.155254322250794 -0.31553555014501783 0.006324913776763301 1.0007224584428505
Ni 0.9202313943481264 1.8715183155133377 6.645856690244637 0.34821658531780675 -0.4653753286197017 -0.26832032591179594
Ni 0.024979688172235018 8.576384414002169 7.09529292183555 -0.6375142848122182 0.22547417728054714 -0.20266746379867678
Ni 7.085222342547462 8.581696470143969 5.829360170178036 0.692191107529808 -0.43346305329213736 0.621312221131059
Ni 1.3731153457396539 0.6628739031223777 1.1652046313953048 -0.3122990454855912 -0.12757865308363833 -0.2157826610243961
Ni 3.8820803982689474 1.0056438613244427 5.320271687822091 -1.2607368355921125 0.16358798129871183 0.4549708454569262
Ni 4.1733596938902195 2.608759144005799 2.8129002521353366 -0.23991786350970296 -1.5424173848608986 -1.0239418339821076
Ni 1.5960914606374708 9.019648054962461 5.117107402625809 0.09294306528763992 2.0093392320321137 0.1087437797653224
P 8.36864673686314 4.7616954950523045 2.277029145564634 0.43051528351772306 -1.3154635377110315 1.054291135697926
P 8.211489881515641 1.1318958996788433 7.254531805492214 -0.00521316876982328 -0.26960921992654857 0.5430450126880388
P 7.142808380231769 3.3043221940126877 13.095411043822224 -0.5424999388178463 0.6030902988063935 -0.6527208173493275
P 8.838349718550218 7.379125105475192 5.019616752656676 -0.09883886194678462 0.46291375445308663 -0.6580373444662345
P 8.50596943512777 6.461209246632659 8.78136093831653 0.6455494964118689 -0.3436204813066921 -1.0335469611720391
P 0.8743737440157745 3.140253153527962 9.098723266870838 0.2539298615180788 -0.30298753827667824 0.8573297211450911
P 2.369809648380364 9.880517454502867 10.379170677008975 -0.008263011339740608 -0.9092526352666277 -0.5004593168070284
P 2.490368204495218 8.65526519163145 7.17102553869708 -0.39724597994163197 0.28813530375519414 0.03181868717249359
Ni 1.121429939679676 4.0269199815818695 5.575271779702249 0.6981732932551719 0.8653019407172905 0.20252502468354155
Ni 8.570197868758216 3.3858078327973162 4.290058403957381 -0.25451401615632296 2.086867248316264 -1.2637018317577076
Ni 1.0971489124816076 7.568693876055667 9.189868289004032 0.328472312811344 -0.7910299694765925 0.1350703334749932
Ni 8.1026438975243 3.290181519169368 6.559885108427475 1.1648976797036004 -2.942819115277222 3.116313042835736
Ni 6.176023465499791 1.3161619171930734 6.5619001545926485 -0.011495916454741491 -1.011632163376819 1.478827318814079
Ni 9.421131583606078 1.9775640737626794 2.5651984230279314 -0.3076355785716508 -0.49029471756920073 6.813423377407621e-05
Ni 5.023800345733676 5.274062381233767 9.940218081260783 0.011244205455251602 -0.02339369633359197 -0.9017383291674533
Ni 3.103124578988693 5.374033231145814 6.520657760043042 0.2133354850354842 -0.37622001250926823 1.877084770739361
Ni 2.8092218160609628 6.380812067687944 13.488532037849616 -1.7638207345061814 1.7390442988924502 -1.8249029465294828
Ni 4.979964253719385 7.7268926758653045 13.156111751202284 0.31129245859794774 -1.381311803664408 -1.0720967964207795
Ni 0.6113990557700282 8.510276759109649 3.1155432545468167 -0.9969894737629797 0.25362647134504707 0.6567361091563078
Ni 8.156573826515567 1.206981022481759 4.837612312809821 1.5497350015682343 0.9974782404739402 2.2731873811051693
Ni 3.237488899226893 4.264501925100747 8.899507206940019 -0.44092233778365997 -1.2597631588249336 -0.9386210611264157
Ni 5.803053863431685 2.0152043174574628 4.427539254506444 -0.5448085323463648 0.4171162365029978 0.961389465171183
Ni 4.667129732037606 6.878461488341688 7.9063973793105795 -0.05774929099532635 -1.121332650628456 -0.8828898290023828
Ni 7.579866869797001 9.383919281386817 3.1333530623889554 -1.2542941652905624 -1.8537309265047686 -1.1904917261226207
Ni 3.9767019797369754 4.850018894369723 2.914380060902375 0.23604655347975476 0.5899735589187775 1.9731656103250341
Ni 1.3373729294580525 5.182938756174349 10.892085514340614 0.8766273930324386 1.3953284296584745 -2.021150622844745
Ni 0.7743498665730649 0.7175871510753584 8.843572465166691 1.3417751790223664 1.0215728195292986 0.11299072796713443
Ni 7.006304352615962 2.4614821548975154 2.7402999808131128 0.6438155444398976 0.44548887410841986 -2.9035784246090444
Ni 5.840768531730905 0.2917472403216796 9.697104529017013 -0.30365268266450285 0.3987914700518809 -1.965471584114886
Ni 3.2417217986043343 4.502437385490707 0.8286407548958571 -0.49362738148685953 -1.680443972750738 0.859532385223365
Ni 3.2484758314571303 7.577671343966063 11.402262456536473 1.6933457684140707 -0.6841980620220024 -0.7711188323749624
Ni 6.423652730617869 2.0538865056143853 11.372838689171704 -0.027351395429759347 0.925173420261942 0.7556467048812922
P 2.2960176530795677 4.29916518461799 12.455160359834046 -0.49039241948932966 -1.1809773588742822 1.4416684503755945
P 7.4927900826039275 0.5571677071307868 1.1029651953184783 -1.923168966691933 1.6212386660351756 1.0984560031405985
P 6.596606208257444 4.0320273700614635 5.548503110100823 -2.8636849308482164 1.7217037507314736 -1.9085144500035518
P 1.2451608445587217 7.8049361766946515 1.2880126711793127 -0.42435980543928853 -0.3557740859500905 -1.7688881217267598
P 8.460551820269162 0.2510360513862516 11.52187954140518 4.044382553698551 1.0489879783174578 -1.206191910466697
P 2.961708527479943 6.258495230293231 9.375930730407896 -0.13956667868344996 1.1785139849354542 0.47417132964477693
P 2.7293549124228718 5.794709004659015 4.492582637555492 0.31681056020269954 0.07519679704781243 -0.6396110194402468
P 4.854735553676015 5.9926970586165975 1.2950337023005318 0.8058912028591411 0.8536479014181299 -0.4429540235017081
Ni 3.0900816670608418 8.681202166278275 13.781697997193405 -0.5261405236232165 0.7035152742933755 0.20246460375925132
Ni 3.536657202918649 1.213130355423492 7.928959198146118 0.13307027232582888 0.01688134913637093 -0.07760026428298249
Ni 0.7967181814370633 5.965708836432078 3.4295006574480627 -0.7353434745475659 1.0005784766658188 1.4490446882350076
Ni -0.0322807418676542 3.483211033856234 11.53564530230364 -0.23291854937373438 -0.26444978721279616 0.6121822338053329
Ni 2.5744587044351945 2.8446944431514742 10.671193288367077 -0.5308122180672729 -0.1701049564816232 0.300205861766483
Ni 5.0880380824396765 5.7573199440042115 5.322967719117877 0.7561475557771106 -1.4527499050007369 0.06438736513713428
Ni 1.6432859629270498 3.852143101133551 3.0144169626508615 0.7425502767086501 -0.7089631847818242 -0.5389451315870525
Ni 8.828972218390964 6.652247903150795 11.005084391259626 -1.3063507767764857 0.39040093199534054 0.258393039495755
Ni 7.0258594174321845 4.597272937696497 10.966918523795997 0.4426267220692764 -0.6394320706602212 1.1338539230239182
Ni 3.70877340375829 7.759630198742699 5.474772515098689 -0.29665542541106327 -0.5041961581416413 -0.13521508658297357
Ni 4.219568070170988 5.265261671758911 12.132828328318356 0.9166471279584859 -0.5986726293546721 0.16441896184043944
Ni 3.9331356769137744 2.799574526710619 12.985938962846044 0.04735252114203458 -0.8884588384497278 -1.5140619736466567
Ni 6.328993936847622 4.942044917757958 3.036923893340626 0.6886548122417753 -0.12892796802268117 0.0956614926600675
Ni 3.407381665008933 3.5813026625062085 4.915291133077419 0.4152814972871041 -0.9754675405308039 0.12348494263023896
Ni 1.3380799632002185 6.941945675927748 6.19592925626443 0.7228142317323035 -1.4998795114986876 -0.5237149449008593
Ni 1.2605574346019415 8.063198857171884 12.034331085574191 -2.0248679237953318 0.2941977078991901 0.7266683153710711
Ni 4.957376386272293 3.171967338094328 6.946811184442917 -1.501457397508769 1.5872779928190146 -1.0424946572836304
Ni 0.9796417651487334 5.098197040945536 7.783853546872328 0.6542318546772152 -0.0396950045967768 1.4612990801223285
Ni 5.273150679829396 0.7045870332950592 -0.05290659068023558 1.0713324074509292 1.298919003088789 0.4500222432023992
Ni 8.492647430933275 8.568690770518337 13.510780343038958 1.2743927358126503 -1.852210118984868 -0.37403097527774937
Ni 0.8674708619541014 5.245139119333845 1.0914256604002852 -0.15796009358897312 -0.06986021532624742 0.11091353372313156
Ni 6.57739535723675 7.092181043062464 9.5905461713046 -1.0978934457689091 -0.9680938737745522 -0.001744236384616351
Ni 8.545916841560148 5.411031562627315 6.298838947744243 -0.2344900076259123 2.8383567364960727 -0.8878749409218
Ni 6.779206975247361 6.42009895575593 0.1980708513300207 0.9829363381040233 -0.6262058017779345 -0.33412693999396004
P 2.69393810378569 3.081076289923781 7.1578449412510174 0.4656866892125335 0.7906599877316834 -1.5171102735546775
P 1.34154070730661 2.178073261195617 4.399803065047316 0.033855000876232014 -1.2437788675815353 0.04707998420693827
P 6.004288690757898 8.541851397542693 7.778216813393665 0.07206802161084362 0.4629829171281252 0.6397501161212724
P 9.077866701784497 6.194192372058346 13.152026770726163 -0.9521424926516183 0.9017869230172019 -0.6425397630512676
P 6.003693293922389 6.462809375628088 11.594139320162098 0.2745639928286626 0.6886008190753883 0.6728253014086865
P 5.239213060205428 -0.34358769854333326 4.367016235869481 0.018612730005180846 0.9741434224027418 -1.0334963104397619
P 4.739172749134096 2.9953856609883753 10.352442940939989 0.5539912272868974 0.3158685080044044 -0.43809669540940677
P 3.4768384271011854 1.3825114520500172 0.9946941413964249 -0.4800501570230571 0.6231806417983655 1.007537424482155
