# total energy = -381163.39329391345 ev
CRYSTAL
PRIMVEC
9.32814075192834 0.00000000000000 0.00000000000000

0.00000000000000 9.32814075192834 0.00000000000000

0.00000000000000 0.00000000000000 13.65267689337367

PRIMCOORD
 96 1
Ni 7.573396056839114 4.306093559007964 2.006219981422649 1.3836538215340235 -0.6088644822860095 1.8006908680596536
Ni 4.720664110025656 9.205951249238598 0.8928000644898789 0.00785420593709615 -0.19808112997957497 0.18569715449292537
Ni 1.1186772569537764 2.8700729601190824 6.603759165722144 2.3725859722101657 -0.16919555729347635 -0.3709916742307933
Ni 8.441267598489857 2.5597723643086394 6.9154356622655495 -3.7580308242063407 -0.757535951484205 -0.3002575409400248
Ni 9.157939309763584 3.529908310945702 10.545531934108364 -0.7397338903057776 1.1305893933400335 0.8956275882840253
Ni 3.552342488998433 4.956003768276119 12.73396035076578 2.0312234336997146 -0.006491778371930756 0.5650726819120397
Ni 3.7895011346585776 4.690944654193638 7.450839214873206 -0.649050824696908 0.579519453464989 1.4233480547998518
Ni 1.2017909893653516 4.959949571734043 7.314298557390104 0.3011792814233459 1.0525420142173034 0.5887821097138376
Ni 6.869326663465278 7.973871787466918 3.511085988918757 -0.8155320683830148 -0.138093179461717 -0.7133703127105844
Ni 2.318182851881324 1.811179756030153 10.360838482227756 0.4221108615041118 -0.9772963662094266 0.02658623512896066
Ni 5.887362634595009 2.014589189135294 7.50297885654711 -0.03524288236269414 -0.6481090296089289 -1.290082121523449
Ni 8.539623512580501 0.21850982704766161 13.299440626988998 -0.7735230709410806 -0.9628125707709548 -0.4146217522159182
Ni 9.020582439981267 8.581870661187912 4.268768870175367 0.7748381902080784 0.8614581414911681 -0.8031066981354685
Ni 4.949707273396455 6.825689621914061 0.5331041659590079 -2.883608923465653 1.1464590133824384 -0.5708250110147846
Ni 5.684494233642491 2.060950047730752 1.3662237199442833 -1.822399720491655 -0.3463831316534938 2.3078414808439285
Ni 1.5360089375779582 5.869900355462073 12.415811990300137 -2.3642638254977153 0.3878509118799772 0.4217287955743447
Ni 6.111088757845202 6.18150689095126 5.3030133956420356 -0.9908702482391193 -1.3438832265043048 -0.5370993366275654
Ni 3.39820429434424 0.6118887083355424 3.0724805509278146 1.0279450416042297 2.4628705168290357 2.8157713949963896
Ni 1.4385018842784973 9.043865478825182 12.156152003975212 0.3821132380652516 -0.7501152335401018 0.20313720434624372
Ni 7.547333232107582 4.926638781785475 12.225043120471193 1.583913447222156 -0.97125658777325 -1.0975944264712516
Ni 1.8366735641873733 4.966591207814519 5.053947378553904 0.1621659041402046 -0.07005613338713741 1.1663300412747526
Ni 1.1330332652794122 1.7342972215143053 4.208751613796459 -0.19677243847048045 -0.33430151789861134 0.5210991045445671
Ni 4.172785102229757 4.316932858341549 5.272226800529672 0.7017561255104238 -1.1882659221158953 -1.089781358184736
Ni 3.9577341497026586 2.199734123019126 8.786698904472605 0.9938892375711011 0.31351260617771814 -0.01078217821716853
P 0.06734637641883827 7.93404995540575 10.387952588400678 -0.1358079829719661 0.10798864676685273 1.158940947899533
Ni 5.302040470581371 7.303290418712338 7.202470009885089 -0.29498523679749195 -1.6448059118321543 1.2447288901996305
P 2.8012219546275183 2.1320864476601202 5.7446915231342555 1.5813294885450635 -0.7598414596889301 -1.2182634969192503
Ni 4.135621790228892 7.834108257419485 3.2351931723870275 0.5008930619103374 -2.0642289420914577 -0.5626087937525794
P 5.468118685155522 1.9803362569899177 10.897839945313763 0.9002913123082817 -1.9222536539665152 -0.10060958069396223
P 3.020461242267165 7.952099907394122 13.357492444151394 0.783611051304702 -0.1521018350359832 0.09449549737642435
P 1.3774678605782802 7.001664993624989 5.708457293933411 -0.3045299430631336 -0.023574959106462623 0.3503770833042353
Ni 6.835558794629151 8.175331639194503 8.778125410481643 -0.3058252648357894 1.5307908563655637 0.4871577146021158
Ni 1.6289078894395606 7.595354499723159 3.2228100657903536 0.4739959804091771 -0.541939438328686 0.6738172330083104
Ni 2.77588672485986 1.8953102557630368 12.910244483929327 0.32297915090725665 0.1787289507052083 -0.2870798659074862
Ni 2.3438259102875434 6.250236630615512 0.9883258207338718 -0.08622297295498699 0.9625950554435099 -0.009462430964480477
Ni 7.219402450634078 0.3512483344375015 1.4393610060243007 -0.10835991406334242 -0.7202043049132822 1.2818422501121602
Ni 8.581040456677853 4.214034139796984 8.61629989518992 -0.2086131398591504 0.5828338625502028 -2.322773676673729
Ni 9.10803375775439 3.9608870612127722 4.707142970280361 -0.5614016608183557 -0.36262993252965936 -0.495921576837675
Ni 4.506228814775679 9.268393822163748 7.5945606749612935 0.07906964973965737 2.809940390136909 -1.1087167616366584
Ni 7.232182003204657 0.8960387948931673 4.976673994948489 0.14553112379700098 -0.7065396629419961 0.551294911401657
Ni 2.4266597984822447 8.841892579366661 5.234095227538422 0.4264938210631558 0.8243812912435287 -0.3987343915617004
Ni 5.936568576062019 0.8960406605212796 12.868890038373745 1.2738615458995286 -1.3461455401759201 -0.8659532011480441
Ni 3.0083346595359584 7.1038174609245575 11.397691155795691 1.5905412369513188 0.8902169587914152 -1.1000814545591635
Ni 7.453445497346358 1.582192561502729 9.065554338446974 -0.594793348904924 0.3612443650360424 0.9301269076124756
Ni 2.235022478766936 3.9565308195701006 9.29900224979137 0.5169768548460774 -0.34746016676775643 -1.6463010083204423
Ni 4.121797485915317 0.10929036045796818 11.361020369616524 -2.00723221299144 1.8117512396388735 0.34942628935519177
Ni 1.4682586526727652 6.065035727888305 9.839142632176646 -0.6138819901052589 0.2606545818364221 0.11440097805109976
Ni 5.961614633472241 8.334413748346805 11.388557973370979 1.0638170729104903 -2.837551209875642 -0.12215362541332511
Ni 2.991273490447208 3.1128378182572694 3.197811581897 0.5296310532749782 -0.9251798480198453 2.2289240404114192
Ni 7.124367354583671 7.203740502629698 1.1644504426937987 1.0489890067587224 0.8352323750254196 0.22836281168225186
Ni 4.382155217154314 3.669988997772259 10.73881287219078 -1.5735691278733546 1.9205346143928796 -0.3414260447585346
Ni 9.001012001081213 9.1884050168406 8.63874433419727 0.12438765695016642 -0.1268453744620396 -0.06720915085664554
Ni 2.5723187133651564 7.956708008831981 7.487606080900166 -0.016897547086287025 -1.6487628395973732 0.19221824344089475
Ni 1.8395746159023003 3.820591827153278 11.495785881950587 2.541465798035436 0.11427268000335158 -0.02944170229988478
Ni 2.294004311543411 3.8111424207634994 1.2233026143164554 -3.4024498281036624 0.5018112028492325 -2.2428925867763696
Ni 6.77243526744294 3.670753905298381 10.137877266503686 -0.27288763356750423 0.14603634556819364 0.4340695765278847
P 5.696807379184947 0.5994925423420808 3.3563881058308156 0.5046610135932018 -0.44439435549266054 -1.0236752105842821
Ni 2.249425127795384 0.8569053796055084 7.923194798233208 -0.0961705710860021 1.0280309164498165 -1.2751792362696877
P 0.46022993344285207 3.5467829172232035 12.907117691212788 -2.2268468461674162 0.0006196358618699005 1.9739832211303228
Ni 5.540598337325885 3.649103291052897 3.1118956760604597 1.2732072001449815 -0.3096078718066732 3.302055191633984
P 5.637340483099224 5.829322944015343 2.597217386154492 0.188573704709772 0.7871440041586251 0.39971938118278905
P 3.599281692308764 6.067768873073107 9.285759088634835 -1.1297794958442284 -0.649668660786565 -0.7503448330524045
P 5.739157137338544 5.959170660644875 12.126620976582554 -1.091605041657036 0.756028256590427 -0.542077506568447
Ni 0.06616170256740504 7.972267347290175 1.4348415219217858 -0.08939777113854282 0.8934825169165644 -0.5827605861101061
Ni 4.313322867943875 8.103691519674761 9.459242914001528 0.3518564960632392 -0.6366516797016067 0.10288886364644216
Ni 6.138541475520539 4.294377414461506 7.7311834200813445 -1.0463862790285525 -1.0039088265906324 0.20195861065711024
Ni 4.455138588915052 4.279499030264373 1.422486399746799 -0.9811301381332201 0.8271246583166207 -1.8964629181556563
Ni 4.767911141974548 1.2645227346479377 5.210857896583263 -1.0632102925644271 2.9812807616875303 0.6922954943181562
Ni 0.6427014222414811 1.6212961267405879 0.41698280816714556 1.078752096953768 1.2030111987458703 0.8031671190597587
Ni 8.29577659013707 7.327179786692814 12.42722590309237 0.31108368502125133 -0.3362223890704081 -0.37108114862080605
Ni 6.921704172723527 3.1807186971303367 5.150363039407555 -1.558714322248709 0.39397245139668274 -0.1542916435984504
Ni 7.27572576335025 6.2234741953417965 7.709721234275222 0.6416851283604561 1.6784094588192127 -1.0306097329205863
Ni 1.9499824875996523 8.724208758030587 9.696404358103841 0.0391599580289132 -0.19304716710009331 0.6725702479750869
Ni 0.35083976188086546 1.6701382707256618 11.544689591663372 -0.32572200375971644 -0.5510198033633994 1.0289925090321375
Ni 8.230106480577307 6.274564421202425 9.693919341458 0.1319803816957598 -0.21370829499387065 2.2878688943767433
Ni 7.981287659214079 2.123317995531402 3.0069205134266888 0.016509567619248985 0.1977548569884078 -0.005806579379448064
Ni 2.9031318902724634 5.4348825203314535 3.1719810278654745 1.501801411111749 1.2343434332002485 -0.9116684437969718
Ni 7.4340522931169915 2.5626267753207546 0.21873370242116083 3.4007181901245365 0.6004124948639143 -0.8101126971396564
Ni 0.31138172730163277 7.024155140521095 7.840759221640524 -0.04343415992423487 0.48567753051216356 -0.7555901406117439
Ni 6.3523611134933935 5.178545217674879 0.5086765642680773 0.34992045538279093 -1.849871957769995 -1.7106312949673959
Ni 5.676639939288894 5.969730115761587 9.685304803648561 0.4457614110435162 -0.15135775778110705 0.8798721252219814
Ni 0.2681775114725137 0.34607867893778266 6.26707019307454 0.5362146200297669 0.685997062903954 0.9003962133172624
Ni 2.454448329217832 8.999706061402467 1.4629798579284654 -2.762615122688384 -0.6053808946127832 -2.142930666968735
Ni 0.40870315060390044 2.0205965116575224 8.74661495166163 0.6252969168104199 0.658442293214137 0.9102335111226583
Ni 7.871532757356101 0.22594062381972232 11.170906335255065 0.08687834715079876 -0.2533886443026281 -1.6067204178143426
Ni 9.241967199950281 5.390405946129614 0.4303257804276974 -0.29505439947253054 -0.14668991999179254 0.6986918847628031
Ni 8.252503346067789 6.497367058536933 4.864284826195669 1.039016726037359 -0.197731202839324 4.331789721038469
Ni 3.7878687100601462 6.6995451770878285 5.5944842069130845 -1.9255063565758581 -0.7615535572840304 -0.7559938038080658
P 7.714680073798228 4.781754102569248 6.361737760386785 1.1587213756895591 -1.2742639235442699 -1.6405039420226908
Ni 8.70232494027104 6.324003566183496 2.9086075087826306 1.299502900616717 -1.3279531855376097 -3.438998316651658
P 0.2970303830462783 0.6673361086528985 2.46099015419429 -0.2547924666286902 -0.6673539938814701 -0.3428542925646289
Ni 5.400732197732265 3.0254144849058346 12.975763477611979 -1.4851401484059843 2.4199973716145933 -1.2735985220461292
P 7.687283324966265 8.747613062701815 6.573831692355582 -0.3874930143199262 -0.5224507334764551 0.8371694441471325
P 0.88974043438539 4.547580461889093 2.9044975300508087 -0.2139906021209798 0.3867589643673791 -0.48282026356902646
P 3.435917966638291 1.9800284283513563 1.3267834088321195 0.46902038157145676 -0.6384550514589327 -0.16786089764245282
Ni 5.211604147828259 8.477554065277852 5.216059267760893 0.9940591874900622 -0.656816841795572 0.5251671039663536
