# total energy = -340863.5572026371 ev
CRYSTAL
PRIMVEC
9.36776455535146 0.00000000000000 0.00000000000000

0.00000000000000 9.36776455535146 0.00000000000000

0.00000000000000 0.00000000000000 13.71067033491248

PRIMCOORD
 96 1
Ni 6.832884746716702 4.4180905704379985 3.2317971816989837 -0.002590900655627796 1.8049321598345107 0.5172463064573801
Ni 4.23521307590081 1.726975450794709 0.11050870504081814 1.4629273597543708 0.09500431869204283 -2.465787690475831
Ni 6.823694969944804 1.4339892547520336 -0.1386382276612602 0.5274846963559366 0.15364475404307085 -0.18021684810464447
Ni 0.8324111041301857 0.4136626724476295 13.393843905075315 1.960294410789321 0.14289779993921195 0.31832159753058725
Ni 6.392515515044808 4.067380210818939 13.33124100985489 -0.7417190390566064 0.5329464908014564 1.6710882425674511
Ni 3.924606115222111 1.8195008587213464 2.8247266049846713 0.5482065022843204 -1.6110298438229738 -0.08901056300245316
Ni 0.7691815054785281 4.671891408441074 11.133571000817454 -0.6563316746290373 -0.22774831802670453 -0.5158512258820663
Ni 5.539814770231388 0.2750750307135541 1.5324688136636027 0.4025712488092873 -0.6628039126169423 0.20790660071042902
Ni 5.0893845597083045 0.7252026624499583 7.302070158131748 -0.7274067361989924 -0.7926078554866737 -0.7554027071912861
Ni 8.9616248725299 6.4444878713449985 1.7100769407857124 -0.11043222321133885 0.756898317900206 1.9163678846096996
Ni 6.895386470082756 7.88100642245627 10.668066183993314 -0.8397251206894505 -0.16749991475860831 -0.7490893633787487
Ni 8.169430517288024 8.907816434428188 0.640983651122344 -0.6698435930725432 -0.933900772832611 1.260050093937733
Ni 0.8888125393883307 2.2610785319870974 5.5855350806421145 0.5832426679528472 -0.09405146786047029 -0.30607440473211805
Ni 1.1599353103464685 2.1319157979086856 10.247450756887071 0.9734952472957815 1.4425518814218123 3.3906212108998512
Ni 8.438660063082452 9.168886657523 12.002731844270937 -1.19390537978986 -1.0816870112123758 -0.7003916410627292
Ni 2.689831735935083 4.2468853102104775 6.952461447593602 -0.8532632643852014 0.31607779580173306 -0.6085119840425972
Ni 2.3592433340184056 3.453051596217245 2.8701096758808324 -0.8500578700740263 -0.1330900698201708 -0.06834917799835971
Ni 3.540724502239863 1.5134466314892756 8.692455280426952 -0.13225497551338514 0.7379608575657548 1.3553403193013112
Ni 5.949935490999656 0.7390482180757121 11.348815057765025 -0.42638969138512367 -0.09182540674342894 0.0759547582597595
Ni 3.3002820961192803 0.7263164896244523 11.55236346099219 0.08398842719751341 1.5376518451514551 -0.6923294328798851
Ni 2.3419223378397733 3.8993225193940257 12.57453549286241 0.9926931603804711 -1.1227092192610084 0.9521895438394699
Ni 8.233103211190762 4.140045958443413 9.510913099642009 0.06203660551677057 0.3255996192492392 -0.21493933918749436
Ni 5.770964354172845 5.020006897350841 8.577353560553043 0.5461861294201819 0.4596682509325954 -0.08446510972361582
Ni 7.570324519663224 6.4057896370486604 13.516636559434165 -0.826101359258429 0.9368207746928834 -0.8651602729331036
P 1.199420436843459 4.324469134089025 5.004627838710245 0.25981511665426227 0.6118515899387914 -0.8775599321490369
P 2.0428845660635138 7.668358172994424 2.5104924459715394 -0.12066829911705025 -0.29624662000841884 0.5226124558652999
P 0.6936885665902843 1.4324716769364911 3.4798640111780244 -3.200670423336894 1.0558872765404526 -0.4479787304098091
P 4.405050642541483 3.3967138617562953 7.905353241855008 1.2397977714466004 -0.2645410613750218 -0.11700807665664364
P 4.3914580165516535 2.759705889800102 11.69868419215053 0.15765953162941881 -0.04035860632270469 -0.1535344537174517
P 1.2601797560509276 4.283766198233883 8.938575488485808 -1.2066745065300704 0.25404607538096896 0.40446692317010347
P 3.6223926713503642 4.831518112001862 0.30013098986930753 3.9094862839075764 0.034768513829436895 -1.1085249573408262
P 7.037898268279368 6.991406054090859 2.908828519258617 2.01070294514886 -1.7961505569871388 1.2041694807200294
Ni 4.949636251978268 5.144345232818114 6.005602493537192 0.48048107391288863 -0.6823622943648442 1.128782936258914
Ni 2.3074208619469103 6.689679733962373 13.185825204727301 0.8772501142181021 0.7364886438956025 -2.0365954966449054
Ni 6.476647406164493 2.5346547204136956 6.890982684088395 0.8525541541333188 1.5107025702561208 1.2447152633528755
Ni 0.8943901062486648 8.353966106105158 4.988983672340145 1.6439854728133882 0.02641757076158031 1.0200676957386818
Ni 7.474585968583925 0.28699082689485234 7.897167689415371 -1.2711737146547204 1.1800455910886323 1.064423853256554
Ni 6.53527087511305 7.727993360486676 7.36123133675075 -1.9240698812396477 -2.5106387853522505 0.9240747878811246
Ni 4.353752765270422 6.235820921707878 10.419245249488648 0.1473200973766237 0.34390613086791094 0.35257306251428955
Ni 0.08908369132521503 2.5344486295992392 0.5380918752285492 -0.12898633206444238 0.6514648334550394 0.052575974324503
Ni 7.804406213828538 1.4899335431126572 2.3138265391707877 1.5682209761875636 -0.0605160551071861 -0.10585437403266931
Ni 5.840060983601505 7.060034295304845 1.3100068943279128 -1.9115946315907724 0.6773638127089883 -0.8017602114099031
Ni 8.660591766959131 7.965409978740466 6.6341129665027765 0.3813321369248529 -0.4441696410763641 -0.25852416575698056
Ni 2.300619865069849 6.079875749514425 8.643576159896465 2.921577689399942 0.7386457994479214 0.7241550620309141
Ni 9.312466380849067 4.20066476118648 6.743593091024171 -1.3854152843098204 -0.08531074555336275 1.1203152651075352
Ni 0.22526850151801453 0.6773118410524341 7.427782744620873 0.5504356487251553 -1.3316226639693969 -1.1031924893843192
Ni 5.669473995817355 2.822554220445015 1.6670114547757562 1.1550547254712495 0.9396780416360204 -0.1266689967851754
Ni 4.171643427405299 8.248513183453527 3.0141259370229765 -0.05318583999436001 -0.746166790415315 0.13779621704658848
Ni 9.116867462401341 8.547494748644025 3.2072686276729527 -0.04195449005491485 0.12536699014430022 -2.359760538310723
Ni 4.639291588699787 3.8581511953242105 3.769762592109571 -0.23393696333591968 0.8911978346474457 -0.3455729770473726
Ni 0.07232663455704974 8.366087993100912 9.103747908508332 -0.8958201639108057 0.36241138876095 0.3099850526404339
Ni 3.3606011304049552 6.179773587940026 4.63971782197514 -0.37640641748846143 0.42756545686077974 0.07819367489260727
Ni 5.741043715019492 7.095191514698251 4.7788815812132635 0.1206688133376825 -1.0446824089635687 0.4140867056480546
Ni 9.168418269308326 6.938131578553876 11.122808376420684 -0.5466779814549358 -0.46553525123633377 0.021573355295401556
Ni 5.802037228334297 4.600911858389426 10.999933285736052 0.8485103230812483 -0.2712313289110039 0.7553034626092605
Ni 6.860707006668317 8.833960980738443 3.8012560788877994 -0.4782259593301248 2.801648839552078 -0.2299700082683717
P 5.144373336110994 9.457507475404915 9.361165640305117 0.8416290225803827 -0.5831215689939505 1.1280877099641025
P 2.7924836970629654 1.1351294704973507 5.817314178344094 1.2592893045123086 -0.6915421610918994 0.6118395057539334
P 7.790373302916915 4.104523396242562 1.3906455461425615 0.8067160127532818 -0.4009355129780773 -1.3006951211526052
P 8.306096830565508 2.3426530234546643 8.016216985162549 0.09895816113346828 1.0275166958175592 -0.02369245852093339
P 6.1097682853749 1.6139440068296587 3.5372706075448592 -2.1849862013778885 -0.0008638906621920605 -0.14273144956467676
P 2.493380350936652 1.8715668926644717 1.0434434142514086 -2.8731383629516323 -0.3146050679109485 0.9891306398401933
P -0.20002987095853839 1.7540951284243147 11.942213276605813 1.9750456009565664 0.1895332404095639 1.887704712347052
P 1.7931680732923925 0.4616368669473657 9.191948219660672 -0.9555543465466446 -2.403598875651912 0.14274661907332836
Ni 3.2743895956121194 8.158029948142868 9.722688273471704 0.2581621544318715 1.523725979098982 -0.5518973208723463
Ni 5.112447995398837 6.096990654878602 12.918810198411853 -0.6516468675588584 -0.2826830223913712 -0.3286821148293049
Ni 4.078021991056326 8.188643801853939 12.477847987260184 0.8221801698271518 -0.029101545351646656 -0.0950318294958686
Ni 0.21012925764333207 5.207437125334657 13.64330934176337 -0.2871580274435893 -1.46650839223741 -2.006852718164834
Ni 8.318986874233328 1.483085707414128 10.009474883104959 -1.5936278462964426 -0.8322570944471797 -0.5505534052499421
Ni 7.481667998389791 2.706178484627195 4.708216788041876 0.9054672000822666 0.1724570016535675 0.6017456118530411
Ni 1.3986821511299323 8.637565802325772 11.104147789948085 0.3500567238503391 0.19389717380521446 0.9444379249185091
Ni 2.8885220165996546 8.872940247963585 0.9028285883242257 0.2759642156102989 0.426366294346356 -0.053671007160894665
Ni 3.847930964480031 8.444074630844078 5.460274020391934 -0.2770574486744777 0.5489053281235579 0.8966783981460429
Ni 1.3186814440636694 2.382325505237524 8.099071113232604 1.2225161015480173 1.7802243726751854 -2.548936138270552
Ni 7.5604227928050225 3.0111179479083416 11.831074121028042 0.09658400447433689 0.05798686092742916 -1.482056624384654
Ni 2.0203457251734167 8.499091510539648 7.312558307034721 0.7487350653631235 -0.2846920824016 -0.07346515906868638
Ni 3.8724183003431705 5.593164187882719 2.5869568220170165 1.1150529882673315 0.46096151582272227 -1.7868195093942
Ni 2.018387862436081 5.3740802843512565 1.2422198783474803 -2.55177540749156 -0.4141088171352416 1.229153918579509
Ni 5.782561646368166 2.682759073893511 9.712213239438741 -0.5756638271643247 -0.9171662336867494 -0.7523569783864269
Ni 9.229083910872859 3.624050765630309 3.130556942650128 0.37347767387744063 -0.37571170541428195 -0.18747995742496099
Ni 2.373557277858833 0.3574804428739519 3.8394128564079755 1.0947986088936694 -0.7151641713862136 -0.6681302099258623
Ni 4.832492359488382 2.4272345672604354 5.366493332049972 -1.2928725397843928 -1.645148639883554 0.4709255690139696
Ni 0.3123643532601545 6.4128154602687655 7.931375954285848 -3.2772594727465427 -1.1817234930116873 1.5345276977001767
Ni 8.61150468206133 0.5387110844483478 5.31102024223331 -1.4383648399236584 0.6096301568074404 -0.9559906627531147
Ni 1.4367246419257282 5.610944204511733 3.3176808447415485 -0.6639454824205533 1.5847907076207868 1.4958174256141723
Ni 8.59794015936438 6.034610712448362 4.419140696815297 -0.9779584252734577 -0.15493390516813962 0.1934387461115572
Ni 1.1495277242164192 6.406295496320507 5.938296980641445 1.1304595526303887 -1.7128635267320242 -0.892187709364541
Ni 3.1585946611804943 4.065103844095626 10.18288718860002 0.5362876393595474 -0.46946801063183663 -0.2939593666361389
P 6.368505935160636 9.2795480571218 5.902745378371283 1.0162976871732883 -0.756714226913858 -1.4334589179816086
P 0.34627753355538704 7.5310080129235155 13.35722250412284 -1.1177523894763655 0.7159092770823542 0.21700882012201334
P 7.068099940361526 4.577454976598569 5.964003999415594 0.45886375275342905 0.33384720397001216 -1.0254431011179823
P 3.2658555623407652 6.583224460531341 6.711482268579003 0.4364761290868483 0.5328241062909791 0.2599570415487652
P 2.2374530304389575 6.366416923723191 10.854463147575562 -0.09430317885996017 0.6692931198857118 0.8395528567776445
P 6.150836564037487 8.562604952449398 13.215550057606922 0.08114298732891832 -0.06456117171083721 -0.20755255980511994
P 7.673079526198334 6.408609334100995 9.145071927136131 -0.15701495606688445 0.37005502134913687 -0.5781616538855139
P 7.930421379104343 5.243268823757194 11.73703300883872 -0.3965787786712783 -1.15407642071838 -0.27982061324191165
