# total energy = -340894.6396024598 ev
CRYSTAL
PRIMVEC
9.04610845592017 0.00000000000000 0.00000000000000

0.00000000000000 9.04610845592017 0.00000000000000

0.00000000000000 0.00000000000000 13.23989411990003

PRIMCOORD
 96 1
Ni 6.426083854182813 2.0191003875972493 11.334143011735332 -0.537122733666333 -1.8212926034704053 0.27848286826709456
Ni 4.571034638081552 0.3003081756679391 6.014287823097992 -0.8279021599125936 -0.27434262084647587 0.27678928261475555
Ni 2.789846895113169 1.5973436868165785 4.862324748523996 -0.4186149325357113 0.12621802529068585 -0.18365749835507725
Ni 3.2303471320030046 4.285982723826791 4.948807351762813 1.254289280194556 -0.16657817427528732 -0.6327315187115942
Ni 5.002705873406453 4.5772312221716955 2.521166627407812 0.0744789450451814 0.0547207885816477 0.9593716634102057
Ni 7.07458125601377 6.191310209085742 2.7456096169852575 -0.3559417218762063 0.5825214735161064 -0.6705899843202644
Ni 5.066345244317634 4.687693248923144 11.479901143308563 -0.45682332528463265 -1.0608898719613664 0.07920360421436037
Ni 5.986886256868132 8.060426123377036 12.559482688044788 -1.126491054900944 -0.3137887426572402 -0.8613442416211231
Ni 1.9208325146465506 6.591166282009132 0.3363288737534024 -0.8202847525766518 -0.6133654554801565 0.17706621829080474
Ni 2.8365790898718277 1.5351064626703195 0.27578327183321216 -0.7356059841803331 0.27428811345945664 0.5223211498771263
Ni 0.590054115447336 0.12918837525510674 4.543203381714055 0.1463271373357351 -0.5023506202924702 0.44506001410111734
Ni 8.650693726976966 2.3866347160621246 1.3340512811317897 0.31922302629893407 0.8903694252088795 0.5982813074535245
Ni 6.636794851572173 0.6783459403183117 4.923770438206185 1.2530788048262225 0.7329436068568216 -1.529529987375269
Ni 0.9875364895893339 7.508577341135996 2.6338648520966084 -0.5609090374526534 0.1440599385681132 -0.04015368940075021
Ni 7.660633373210771 4.149341260058006 3.8515515209020323 -0.3732653007563185 -1.4337638508165371 -0.4150434131343691
Ni 7.473234196551775 3.6994783012217503 12.524422686646 1.1715347254041437 1.418829340993892 1.4970214732246023
Ni 7.970127871715996 8.859975439276921 6.736034276539342 0.10630894507158466 0.5218964036348819 0.823490403998143
Ni 6.8781992939511065 1.0496380221131807 0.40836846070269683 0.11195148806934267 -0.7290869521148927 -0.9995330661204398
Ni 1.9346911523488861 6.27497766346492 9.295252453314715 0.48937503396840887 0.8563866405055315 0.31342930243529243
Ni 8.680084532391385 4.995695139581837 1.4715874049976765 0.8484846120496354 -0.8465084621598711 -0.2960787269719869
Ni 6.496191192428961 1.9020075635639395 6.967506996768539 -0.30977550773278906 0.4970204663288086 0.35242985206820593
Ni 3.4310440876583668 4.586494436928348 0.6337893345723238 -0.3080682952336952 -0.4542702198454758 -0.6470335371565631
Ni 5.884629050218523 5.542233856332493 4.886408202280476 -0.612964620497312 0.7064041658053963 -0.0786436179458323
Ni 5.481416871167479 2.725185313979818 9.225968310911199 0.0008592626765017461 0.9295388963194895 -0.03334926488440708
P 0.22497670995893204 5.503407960106368 12.627972582151786 -0.27056232786843726 -0.037063994731832944 -0.9495143110001518
P 4.154606095007589 6.258468516071472 12.590543405025688 -0.36036324798266967 0.26445390097785426 1.1108104109408936
P 2.46171741379671 8.48439007454894 1.3291392444004788 0.10304621515991286 0.8156338840682017 1.260123627488146
P 6.164217115144165 7.740347678323683 5.835854244237158 0.15094021062771423 -0.5052238280752073 -0.026431711828967384
P 4.761057186107178 1.0015760494548853 12.48132702736798 0.4425493318641217 -0.18687600529237494 -0.0293717682938978
P 3.9373818997424563 6.277510573749941 8.304630336231734 0.24671431760624607 -1.4616587774545924 0.5379873956594734
P 4.5758109831904505 0.9730898548565469 3.7240375802674883 0.5951255354333621 0.5963959175053535 0.17154117470751745
P 0.18260293011214357 5.656929461703193 3.67731443161699 -0.6623118034718722 0.19778236779223357 -1.6728437918059773
Ni 1.5619191272589115 1.2396967545714501 2.4148504320264554 -0.23913907636214946 -1.086310626027316 0.23005356912111347
Ni 1.8962180543410316 6.419362595819344 4.741153034320985 0.3429543084776029 0.5077131701559643 1.043933703723002
Ni 5.9142369622288005 5.516361986992624 9.253970538722934 0.13339474554478317 0.40422729635547155 -0.5872764717025886
Ni 8.775150083053163 2.294789579905589 10.263552393900122 0.2914851940640335 0.629953955966457 -0.4981939178116195
Ni 2.419861071336719 5.136941072404466 7.152719729085072 -1.2252854367630381 0.05005989277086863 -0.6092324071483894
Ni 0.5862131379222629 8.893663146067716 9.283085437838448 -0.3950867675067841 0.6614533121263189 -1.0402390284802343
Ni 1.474018094260482 0.9687748612638483 11.421685818850595 0.2812941124636446 0.2523740869951847 0.07429433983820108
Ni 4.2762310192294555 6.73548789160643 1.5552376717713494 -0.2880008350598588 1.1033902072174224 0.5475128186514054
Ni 5.597243240058278 7.802946746796373 7.940255813347425 0.09613431853142798 0.6709697362571864 0.7885467980434226
Ni 5.5533515232621085 3.0293516547783352 4.585160135974631 -0.9670446065744314 -0.4534580083568255 0.37587162803091395
Ni 0.5684737198189471 7.2592123235755635 6.985076348038432 0.39293655393300064 -0.38814838851573796 0.14760908937195225
Ni 4.965707291028807 4.542457982401605 7.155023772833626 -0.3839657178929581 0.2280414237870911 -0.04794798863418839
Ni 8.142537647152558 7.126035519232363 9.086167946172665 -0.15370620340862562 -0.10337608769550584 0.5484697832480361
Ni 4.779248909618534 0.4109755490746374 10.168794410915812 -0.32474627011000845 -0.8286647491102309 0.4612260823380186
Ni 7.9400495620813585 7.164228187887233 4.769976648753721 1.0108508051261043 0.6803095256008735 -0.06140514258035876
Ni 7.3649432357589175 6.13188632457749 7.03525601461717 -0.7168351313307332 -0.8374023860935449 -0.2957748225783229
Ni 1.9747382731767185 5.359448194835501 2.439887345583083 0.9766029396868277 -1.367872904550683 0.6707375656417222
Ni 2.5018278573816675 5.167525964096108 11.504845786561951 -0.25903658661702483 0.26591017380840654 -0.2691680186240719
Ni 0.9930093850266138 3.163930605886459 3.7459101651894704 0.18601005774765383 0.9029431481088321 0.07146741191236725
Ni 3.54806454282639 2.671985151886192 2.653036269121778 0.14087588441317675 0.09154001429252621 0.08850842655505402
Ni 1.2965153599293935 3.175165872222164 8.266605925188655 -1.50111132702326 1.252390006289314 0.49445270560163224
Ni 3.4043399763677047 2.7573804129240815 7.226651761861604 0.9566393520807074 -0.7938833797649876 -0.5948188028262208
Ni 4.04768109654701 6.772377920686145 6.225040432584891 0.18242028351386647 0.4240435597504504 -1.8118869938857893
Ni 0.6159069879600674 7.21196450065174 11.335507164845978 0.7757342196597865 -0.21722299301534848 -0.08420388564242917
P 9.319933854820624 5.432441241584943 8.116213472404649 0.28294398936224174 -0.04345395741857678 -0.5440924801159468
P 8.622876944382527 1.7392499855349444 8.051404439708277 -0.1969830118193898 -1.2049495534191637 -0.33480314012537826
P 1.9889316168810034 3.281484781435969 10.388034079079167 -0.6405415016743162 -0.46833672524087083 -0.16483110967719355
P 3.862471078062926 6.058395741879203 3.7891650359711204 0.35799063398543507 0.6661679439931688 -0.3594229955565874
P 6.807974356298867 3.9129212232756707 10.4917947489051 1.5191661276424417 1.3761940228218688 -1.2390938034010401
P 6.345745367606807 7.7819326375388505 10.090612516525338 0.5385517528033757 0.13917792788546351 1.04471351931182
P 2.114392090963047 8.293580515113325 5.96859683538864 1.0028235639462535 0.8069263289918748 -1.3586411015397697
P 6.779650991647423 3.8664332734373534 1.585278892362528 0.34580977564852705 -0.8317678135155867 0.27349030014850967
Ni 4.990113690846628 2.8313956698956932 0.5487993391800375 0.9606060500379392 0.05160743976364661 -0.3012985806100295
Ni 1.526024170076883 1.1170224818029306 7.063258242428905 -0.8006597792568727 -0.5780032739307788 -0.6771748366266337
Ni 7.01049862580271 0.7652953227382259 9.133394963047719 0.17894980846676278 -1.0785626066507812 0.16299302802719026
Ni 2.6349142006432604 1.390413962638429 9.323109038785063 0.6510629700309303 0.07497131130056765 -0.36002669057885733
Ni 6.307317500139756 1.7807173453440215 2.560145402861855 0.7510927669620227 0.7357024005488814 0.7525503253441554
Ni 4.288497541895492 6.841915354118163 10.496799960550467 -0.5513365632728698 1.2799856565193957 -0.3609846836167525
Ni 8.242524280653807 7.228482694153349 0.43090141152041705 0.23641422123181866 -0.27069139724713376 -0.6898843137735021
Ni 7.7945338662068355 3.88087990817014 8.358265616127895 -0.6201002031008288 -0.4618709150108691 -0.6241679454122991
Ni 3.0588781518151653 8.315010745346244 12.52214578122193 1.5858232626503592 0.3398322179088535 -1.9192822300430172
Ni 9.15059071005057 4.839731188781599 10.231604253708646 -0.0705407863330398 -0.29223904151092245 1.0987930747650432
Ni 8.545985025015783 2.486205228587978 5.825765119805424 0.45589772814656965 -0.05815912483923532 -0.00870909773822371
Ni 3.7331298235799015 2.657212857259616 11.530610007214706 0.010111634512705166 0.26738033059602984 -0.6104937903593164
Ni 1.1485933992840998 3.416362254113399 12.413671184433406 -0.6478884289576906 -0.38081457385848605 0.9005119129595202
Ni 3.079946537721653 8.33765315407271 7.890791693924206 -0.10963955210671442 0.3974745510126703 1.2788759683949846
Ni 5.541229738326646 7.968644309977626 3.6363238017079875 -0.5495357626187052 -0.6565113947400113 -0.4375662768272336
Ni 3.0310885075452076 8.402486611261118 3.7090771265911684 0.23227474514214838 -0.21080809062794018 -0.04226045133110787
Ni 3.6114687149253912 4.0893384246274636 9.20383157963092 -0.452687191629072 1.367269209528413 0.7005196820001612
Ni 7.135027350744192 6.089170601842223 11.419024453829689 0.866494932584127 0.19587923723224976 -0.16279531019408736
Ni 0.578950017679962 9.141092296481737 0.2745195305231493 0.2281985181902457 0.15348123188201307 -0.05720190313228858
Ni 4.660916768767195 0.2476905829398682 1.3403012372600818 -0.21110376749148804 -0.6914169483679448 0.9288580682023809
Ni 6.110139480558942 5.544468245048209 0.3786149063510312 0.09581704440132531 0.6348413659657454 0.11398008846359724
Ni 8.147313992261456 8.935917517286782 11.341610574022067 -1.026629922337232 0.3412481244197736 0.1928687325407001
Ni 0.08922176478990537 4.966340518600063 5.65530116223425 0.061954587325925556 -0.6424670008318033 1.8529955910006413
Ni 8.292096953374955 8.963670977124096 2.3090109665451726 -1.4162276417049868 0.6880408328068602 0.703690109308343
P 8.41222022364213 1.7183625217916727 3.6874026514379072 -0.9890712473571677 -0.3438889044767304 -0.5574460186047174
P 1.758626749215364 3.269507734231079 1.4170258036258512 0.09184880378219666 0.01777403615396939 0.3677194312374248
P 4.728319320673267 1.2042902872301047 8.039912263900804 -0.8859939218490032 -1.7654778104936304 -0.1141523523754034
P 8.602568431561545 1.8265268370702794 12.396923219784513 -0.17013760949177148 -1.8101535561344504 0.23343996909484313
P 6.502858174143466 7.889879846221598 1.4584135576831132 -0.8283575022824573 0.32450150108905407 0.6573945686759131
P 1.688962670269094 3.216877476951583 5.952709155625839 -0.6594416810129288 -0.17696465971593395 -0.0028495536336531567
P 6.721195040712376 3.9485086127802322 6.226933783022947 1.7213057439621067 0.474031461632803 -1.1523566098137958
P 2.3899094072163316 8.300835493858282 10.211837602766497 0.7610815027436183 0.3826673107965087 0.8360438151831214
