# total energy = -340870.3633274392 ev
CRYSTAL
PRIMVEC
9.25591092164584 0.00000000000000 0.00000000000000
0.00000000000000 9.25591092164584 0.00000000000000
0.00000000000000 0.00000000000000 13.54696123564336
PRIMCOORD
 96 1
Ni 5.36300444430734 1.794989573741881 10.742835209309913 0.3736347682805952 -0.6058426647405502 -0.48268348088084617
Ni 1.2879692783222545 6.730935538178358 9.17654901607652 -0.50049839757508 0.30713678455836135 -0.3960799846579888
Ni 2.1889859393471833 1.6492830220149879 3.4547327008328796 0.578221560589172 -0.8208995033425152 -0.7679142093947355
Ni 8.554174152440535 1.2444017050165446 11.958173353633887 1.0037129085297425 -0.40595070680448153 1.6064478808792462
Ni 3.6057512199105584 7.6714841952918125 8.873720597526507 1.1925781763380043 -0.9996821901037944 0.10882065574984483
Ni 7.5174565795322374 0.6996802327138039 9.958452283408258 -1.143011164043154 -0.2394229261511554 0.3800692110520293
Ni 6.304774881679209 0.43091356682260074 4.664083196299521 -0.259658793582056 0.09309913124953 0.6732595607326276
Ni 8.984398153890016 6.55888666360718 4.812842347490239 -0.7802945853369595 0.9640541564875398 1.1334487171656995
Ni 5.1865590119880824 5.686202346301983 2.0151645578101998 0.5288399248322505 -0.5083916842802276 -0.3490113133049602
Ni 7.709127985526425 5.674438083359226 10.136378661495291 -1.9447101831978186 1.6305838546955014 -0.22899556017024433
Ni 4.3434195627499825 7.680129216211195 2.8772527081469716 -0.1893360367970933 -0.786996165726851 -0.41269291062432156
Ni 8.421768344890465 3.6786877989734426 7.266400173841405 0.3991357407651771 -2.3190664030254706 -1.0075456520122712
Ni 8.150236938369046 7.755074327971623 11.9045140605119 0.031680104712100275 -0.48929610110135735 -1.715988702624567
Ni 6.401508408048016 1.9784972661912132 7.951727265292162 0.4732501033820882 1.7945063365154965 2.2723170626850737
Ni 4.3694842082628105 2.2164852510725424 4.763978541882527 0.6916838288760861 1.887106673751737 -1.2134789310464134
Ni 4.659805114212864 4.942202960305323 9.437395398883444 0.6507706356014921 0.24297644783036865 -0.27728447708361925
Ni 7.819680587090776 6.328358943031014 1.6261497235312485 -0.7097591983205582 0.02163609021253693 -0.07148669518607689
Ni 3.864685331494845 3.198120897330684 7.326277588005834 0.3686033765042748 0.5098608126265863 -0.5596232287616943
Ni 3.1597181223900868 2.9619933505701215 9.761127366945592 0.06754262293666433 -0.30692004056186495 -0.45331274102821284
Ni 3.4936436252900442 5.847199663081146 7.066488230240658 0.28246833527740384 -0.15144054730290046 0.4908593318234192
Ni 8.847049689839997 8.714014480338623 0.2646237201058545 0.009070851953016637 0.43226929009435233 1.260879531817564
Ni 0.2971943454947355 4.475630996168032 9.83009501135084 0.9214969998516195 -1.2367610415028054 -1.5466643330627106
Ni 5.915387959776104 6.6416622761147135 7.929199303391 0.15356453562443875 -1.064867368551876 0.638311583902533
Ni 3.6789839881269972 9.148690575002476 4.519496609809507 -0.4386919057912444 0.12430692431090204 1.1871642044112845
P 3.7347230844616024 4.650234502188622 5.221540802205121 -0.036760347448485074 -0.31242528665081026 0.43085261225248384
P 8.355005458496988 2.755299600944073 10.392727597123706 -1.1143343649337518 -0.3207692877401314 -0.461590921876605
P 6.767700016863356 0.5892840560461741 13.214708632444028 0.6838267947255126 -0.3492658525179275 -0.501875994648897
P 3.806863655174307 6.638829967333846 0.49215252550227756 1.424925683699617 -0.04541236669652824 -0.08840969619366065
P 9.22320991485467 8.55583096051823 9.901839429070666 -0.23248763248390283 0.5833380558801308 1.409549715464179
P 0.2558176463342266 2.1666236582537914 2.569343720022389 -0.14915509370283345 -0.6763754806537899 0.6685374726666099
P 5.664145510273195 6.962111172527925 10.180284075554274 -0.07891435510871571 -0.4969237928499442 0.0633704938368457
P 7.543928485131202 0.7643364737526198 6.484632042810977 0.6797353982649583 -0.09253220300246645 0.16619353724235894
Ni 2.1404294299862836 9.00935209007701 1.832633363976494 -1.4157139352933619 -0.6727319703639316 -1.7658123110149138
Ni 7.613097908397311 1.735733231208812 1.3447061618678973 0.3962414499365176 -0.2681588606332672 0.22601976537137203
Ni 1.8412413612516818 7.2673803748214505 13.469770996436688 -0.5677399443315577 1.4834311361346775 -0.25042621924019454
Ni 4.096295993663696 -0.014687279651901556 12.950014567414202 -2.441632947606498 -0.9463060884754992 1.0492846836222702
Ni 4.741747694726024 6.684452352892342 5.018959453857961 -0.5553744807876693 0.07543590964181202 0.43432077330674235
Ni 4.866295233795843 0.9575425097986638 6.652506501499242 -1.9777090067213423 0.3745205133196582 -0.6839327241757576
Ni 7.7545189733087065 8.492316898902812 2.7593805321253964 -0.5557033248819978 -0.024207707594455084 0.24495002661697174
Ni 3.911187028602958 3.5365170052671098 2.325173712151707 -1.9365484733226328 -0.542931112817994 -0.1414438411015048
Ni 7.959176422504067 3.4826938825195635 3.130431494241245 -1.4447239493724668 -0.4633261594001569 -1.1046222798523107
Ni 6.511089138952264 5.264160570219455 5.885382147338786 0.840071962505908 -0.18739408257937404 0.13942115424452117
Ni 3.9480348104873917 6.768579328412971 11.799118852583822 0.30722908716185154 0.17230736344958067 0.08696396488606958
Ni 6.034816980036052 6.7611098081967596 13.51447612121027 -0.5089796955732138 1.1153224398786339 -0.27612413822693094
Ni 6.995765665100597 2.8872703806748596 12.825680839889607 0.2516631769710892 1.02935760568104 -0.4359349118713976
Ni 5.92000665938935 8.955371616841639 8.222300685020048 -0.3043484231799468 0.4425153933023928 2.1229249132707695
Ni 1.024592329434645 1.896277008346594 10.163201366122998 0.5148510667523263 -0.3460445173671524 0.8238629568462135
Ni 6.556332032157769 2.7301883142692502 5.813298963274583 0.24324435677977463 0.531262161120498 -1.5958587925094903
Ni 5.477972115441869 4.2035257231616034 3.872303871878939 1.1722443498766586 0.6367532382764776 1.4868977545270392
Ni 0.9478978504860338 2.7431836133814698 5.1057956345425115 -3.0345882148614187 -0.25054706108877495 1.84375633179056
Ni 0.1857578044252442 5.444067713270886 3.020877605479037 1.4121406161198067 -1.417379495921243 -1.2284476365411037
Ni 8.702601942015713 4.294483561036091 11.971084423955563 1.5625763763072764 -0.06780127591468968 -1.683772522903339
Ni 1.5412295164337557 4.97031316215989 13.153151270424278 0.5741864712878498 -0.006300745407047214 0.5011164907750532
Ni 5.517837324328142 8.813802457353466 1.2462390033596895 1.920533585951615 0.07778898325502087 -0.6057914997876406
Ni 0.7215325131084184 1.6764398650315488 0.5639015711776275 -1.2888112252308255 -0.25686683265921567 -0.7240403908299207
Ni 8.108279893585792 8.311465652924424 8.195017961613226 0.8467866555219223 -1.3256834156668267 -1.854539281338677
P 2.015122906210481 4.713609725138313 8.531686916547986 1.674099518589949 -0.8322750921693085 -0.7878543999620882
P 4.060022078264274 1.1346821354465666 8.888229238095173 0.36392216897852164 0.026201598096032293 -0.29150010646236896
P 1.7855578003833685 4.078681994938231 1.731640267343126 0.13409717092844647 0.394694674274688 -1.4445012918386995
P 3.9327625572572193 0.4910769886384314 2.3475526538849865 1.1109168546117707 1.6436556002777951 0.828510997141186
P 0.44013985895583463 7.548149180569359 1.9732778579509136 -0.4774307171223391 -0.6261122136228636 0.09390105832553507
P 6.52568571067589 4.475538437057547 7.995335564606485 -0.8010693559904655 -0.5932560863247911 0.42440582818587547
P 5.920969274138403 3.3171056338603 1.874560789844394 1.5832634723429828 1.2484294789796693 -1.2888397644759158
P 1.7915741425649516 0.6757860983418705 12.505389293964221 0.5062836367982894 0.3909346930116235 0.027351652540075478
Ni 4.1831164392994635 4.1575145893390655 13.524879765228883 -0.42666917029875556 1.6106351794877165 0.25940888235477905
Ni 2.3671066915662364 7.078346903476111 4.208255493707433 0.19697478428927367 -1.6484885028900642 1.4671655662054346
Ni 1.7115938151940913 8.11583271700144 11.31111667759573 0.10704093814160276 1.1784831316975188 -1.1108538625843192
Ni 5.8747082307175535 5.087853976565926 11.835763004425187 -0.4979697176159553 -0.6852619845101424 -0.9066151976437806
Ni 8.440113560588767 5.789905573690378 7.660847302314774 -0.44782292155823517 2.153836772358278 0.9310440201101061
Ni 2.9328279748560164 1.8556805824874814 0.7805787464606844 0.34664795527910625 0.06146453506338447 0.48276035686536856
Ni 0.6121489331095042 0.5378906099488817 6.130649906259832 0.6769367524738986 -0.7732165954442555 1.3281786712848545
Ni 8.821318257124918 1.4959773673172025 8.262698108791618 -0.14223008444822605 -0.3103288091330978 -0.6096332421312339
Ni 3.8040591141265847 9.064952347745889 10.666836774872154 -0.5007915033354665 1.1229714717834596 -0.729205479970628
Ni 2.047990646344022 2.9483871613286956 12.209307508977526 0.4303170514639879 -0.8754236025323245 -0.603944933497205
Ni 1.6857050319911868 9.237473273780545 8.88748413725576 0.6261129849538121 0.616591418616622 -0.2643898805091382
Ni 5.824189468214353 1.4430520679413688 2.8204639914994565 -0.9852464742944387 0.20548744974597513 -0.6491786085240239
Ni 5.029773134736027 1.9946025514157586 13.463403855226364 0.8320449784363735 -0.3483772792653871 0.38877393791487885
Ni 8.640355940213949 0.9295433788766811 4.225567749732714 -1.4590421657673518 1.4636261855936084 -0.4330236517618736
Ni 2.1384949445771286 3.9796992821846158 3.8584996061410726 1.1258302813884933 2.7145506630809897 -0.4007467940060388
Ni 1.5945713318067762 2.459563987030595 7.801722268474304 0.41237717915611566 0.5654974281542842 -0.7358967759478746
Ni 2.400270620853332 8.11602709113346 6.904127517764038 -0.15957911724963483 -0.10081115518180704 -1.3948491760292108
Ni 0.9812561539051496 8.709275453881745 3.802645736509465 -0.4976187620344397 -0.16426546698171066 0.48496353516427443
Ni 2.4834905170911985 5.08139335065401 10.708913220907938 -0.04575432341697926 0.3947615229568814 0.9056980851461499
Ni 8.93653583785776 3.875931263418881 0.6831056727990948 0.45077994730403015 -0.2063261435971866 2.0922655365137
Ni 1.3377938474968107 4.912232320329991 6.396834172968477 -0.49741075978869176 -0.022184506516839213 -0.3969487604161874
Ni 5.8649802682054855 8.660080286658493 11.661089153480628 1.033929798432755 -0.6457238172062041 -0.812385295223917
Ni 6.867330643390371 7.886637847616271 5.87312269315493 0.35646545559016024 -1.3691142331569517 0.6240324482756995
Ni 2.29674325577486 6.331496696876486 2.0319631107722844 0.35898950756359466 -1.0507512408654678 0.4058540333256172
P 7.509357657364721 5.182560458415091 13.299295626743769 -1.7757881912807028 0.882322643645003 1.347348559345086
P 8.355023970319087 4.373769695078307 4.930322072883355 0.7243044431245848 0.4651423866732892 1.979699811899126
P 4.225906516077092 3.3245566422544144 11.593665395038284 -0.030374755637115433 1.3912349763153913 0.2187044626568814
P 6.470011405718625 6.848448584851249 3.739651857094976 0.3659687670949052 0.3234000404947592 -0.8675187458629511
P 2.6564464709451387 1.6086032929564376 5.735363266654356 -1.1928273162343328 -0.9745347443038892 1.681173137607279
P 0.4838601547938463 7.134215582565395 6.715825263391537 0.8164952036272325 1.4111463705273375 0.077099413387164
P 0.6191862022797467 6.362448463422969 11.59762137142045 -0.3251823292061625 -2.5920784779859813 -0.061123606784197954
P 4.638951546620391 8.108844504159755 6.768278511303892 -0.918017011722819 -1.971186375111476 -0.8235451684954784
