# total energy = -381172.84785644786 ev
CRYSTAL
PRIMVEC
9.21395810048355 0.00000000000000 0.00000000000000

0.00000000000000 9.21395810048355 0.00000000000000

0.00000000000000 0.00000000000000 13.48555904121169

PRIMCOORD
 96 1
Ni 1.5030637349267608 8.73317355735818 5.915669626235069 -0.3575311778505133 -0.4266984808747941 0.9382762761924873
Ni 5.210235190042882 6.435479666986625 5.08911310673777 0.5205067223762068 0.4531201654014326 -1.1460494366488456
Ni 7.438667759034152 8.774802219057811 0.04881186326249783 -1.8089662206945682 0.4411398531111048 -0.3641959914651986
Ni 5.613649907881515 2.6498697884422264 10.40667063536962 0.42222578981542125 0.4346398472090579 -0.06556261639215805
Ni 7.32413826259183 3.75712953473883 6.575383482033334 1.1668956839702356 -0.3339271652783281 0.08227093028577444
Ni 6.068450868814181 1.9118962599985463 7.396896280987389 -0.9193889523696811 -0.2422557676142602 1.9408473578083028
Ni 3.6705459725450647 4.092296466563925 10.075721853461765 -0.23630212113398658 -1.549880268896847 -0.14559463004508474
Ni 1.4708517381799902 3.315863877931166 1.2662806811517215 -0.19755791048625332 -0.4728639236872631 1.1812028446215268
Ni 3.1462717692008852 7.916070558645258 4.4134323833300995 0.06896804252928122 -0.05017019309648779 0.44726319240002327
Ni 4.910781558958773 2.797781454282018 2.7470217603237908 -0.646089685186055 1.1475406764823914 1.0748599609882132
Ni 8.661488965055584 1.8653842006227745 0.8253725259097822 -0.005938991192254288 -0.5219910202312171 0.9550828062268648
Ni 1.8805964450818473 4.672103194047917 8.196562785809123 -0.06955579671195117 -0.2286646591933868 0.507090706080617
Ni 2.7048310471935095 1.1548129829127607 4.8086135084076025 0.37772179386577526 0.7535391716199861 -0.5421065600341697
Ni 6.771273147947527 6.336328266245206 7.2659382976458975 -1.9552540201519355 -0.027548856152546108 -0.6874623345955708
Ni 6.181294210964553 4.427859598577839 8.501889393645632 -1.4720069534581357 -1.7686811479222766 0.8274812703250911
Ni 3.612986377671759 0.8633432463312473 6.885672727583748 0.45251929859264 0.7477019961129188 0.42988047814720154
Ni 1.0178290711180695 7.629507254634586 12.072016124845058 0.5554431292420756 1.673029682564538 0.25428210265117496
Ni 1.4088233737351217 6.586431938926656 9.657993252057313 -1.4868481322360263 0.4625640844231518 -0.9023985884592717
Ni 8.00085739905252 7.917084094012005 11.327019717705616 -0.6662458484189557 0.22054845784415567 -1.1087378446825809
Ni 7.324930662969467 6.181469276164264 12.830390277429764 -1.2534860675669703 -0.5452368781330352 -0.2593538607471276
Ni 2.134827970893317 7.920050988449208 1.0361657686940846 -0.2000580512002877 -3.21563012997052 -0.5778551783886887
Ni 8.914421322806042 7.026140436852682 0.7655969741664541 3.129807734888061 1.1262727682425508 0.5236175000910466
Ni 0.7453990570987779 0.29937070546319405 3.736052606089449 0.872363218439446 -2.5908878001119895 -0.40694803772074434
Ni 4.268218564357429 0.8401581641190337 9.406338870264744 2.079412848920748 1.015363348284477 -0.8568291273595888
P 4.4877779666682995 7.649713464264353 9.964951651834284 0.008652019248043163 1.5299382785572813 1.0409543093797038
Ni 1.322110816131043 5.236135625642188 2.890831372115624 -0.0861592095965871 1.2447947104405594 -1.3638362725874642
P 4.34754152774214 7.306300040137096 6.855855438489862 0.11345841163217235 -0.004768882143553077 0.028811267804737476
Ni 0.5789470652138347 3.962711362946481 10.066902252979498 2.5562786946785523 -0.14408539248940994 0.8427482237864905
P 0.5788318907403406 5.659231357511457 11.789817472681909 -0.2331967427357855 -1.7376227359545753 -0.8525497832579446
P 7.083865882967819 1.7190665494961388 5.472601719266172 0.37143801773959256 -0.12631906964492437 1.2965150216329864
P 7.986584978297157 7.539661951351473 8.865149683045358 -0.46667656392962853 0.8007577382873176 1.015789122967986
Ni 3.1506944689830503 3.758023288653143 12.638975830857648 -0.28890843447579273 1.1636272976316089 0.21159613374687433
Ni 8.03479240592276 5.861984500650097 3.009113713602271 0.8742524650423589 0.45346983543136743 0.38479258466962757
Ni 0.10709843941249689 2.5679577028933727 8.122123220100553 -0.12347671510012281 0.5323836763194508 -2.0173502752620482
Ni 8.671587462891528 4.673337864403773 0.8650349289979254 -0.7845335631189714 -0.27457350591035934 0.6476120353678525
Ni 3.435230702260232 1.707622813809786 11.535870658168916 -0.297134679040327 0.6511871543136205 0.15588984132350572
Ni 7.982862539313835 0.5020630364798303 7.38740221878834 0.7399994852623384 -0.7483517138817757 -0.585413707462237
Ni 0.09175443535574711 0.015347689639901584 9.713580138548615 0.3111957851190834 -0.6014221670753513 -1.1428080468934125
Ni 2.318830709747153 3.201094818583976 3.61798679261297 1.2280959096286397 -0.26606572554966434 -0.03298365401487223
Ni 1.8405894399690101 0.7657591398251336 0.45606788014109906 -2.216020444975874 1.926882153877462 -2.532572609310864
Ni 8.836683160176607 7.115442116620904 6.997845293600491 2.3118256623026574 0.4790697953876588 -0.8988190986381296
Ni 6.385604512984832 7.808755591222593 3.4778037946425124 0.1297239815614153 -0.228455114285742 -0.6492346585729399
Ni 0.33074054645977746 4.716330191869571 6.2232481253773315 0.048323112585420006 0.6622182153168015 1.898509773382356
Ni 2.3553640527394144 5.098635732206244 5.031623537944348 1.6022688098008921 -0.6195810973725652 -0.7994619022940296
Ni 0.4888833911289777 3.3469978416060338 12.69380809419862 -0.11831368284194464 0.9719813817544164 -1.3157435308452954
Ni 5.004008384783665 2.558679247308705 5.3852552413599835 -0.9065069542006904 1.0156402560949478 -0.43082895810339994
Ni 5.690356107228445 4.436281156079712 0.6418074500552229 0.2277398333862723 0.24947028308482844 -0.8408425221233455
Ni 4.351052045694234 4.945002198523277 6.684602974549693 0.07169418321119266 -1.0762712395134433 0.3578109138744612
Ni 6.461241893217738 6.288904025039363 9.846615869391934 -0.5268617180599571 1.1911990366022904 0.6432329324635503
Ni 0.8738130666697357 6.804968591912899 4.867935733423258 -1.6584276163806468 -0.025087796206563245 -1.6404568908348394
Ni 2.538362470184383 9.20995902179136 10.292744653168405 -2.789013410176255 -1.247427520077716 0.5954888323100518
Ni 2.1896694481921664 2.2945887865661594 8.895505988675193 1.4130281609310826 -0.9977690322414817 0.5328215351878177
Ni 1.4907262453260954 5.606002322841521 0.3021523993470185 1.6950969467772228 -0.43688056361411853 -0.8845636171603798
Ni 5.71061760060549 8.734997921018323 8.05102647831067 -0.43854381024915445 -1.9478708403139875 0.9010999242525062
Ni 2.5436420680493432 3.269204395229322 6.480417982356577 -0.008551489114436884 -1.5351059388011496 -0.11980389423422591
Ni 5.52499320516486 7.56722089936909 11.951091220238569 -0.24684775786031682 -2.5271231561605187 -0.42469661995341695
P 7.626273155418876 6.369590654190241 5.114856905053124 0.04670845980013246 -0.1284829100654626 0.8431811975588511
Ni 2.2628651295870026 6.466327997967229 6.810800105854841 -0.20201877447108432 0.7864017266759618 0.2933201903902432
P 0.8852383744403294 7.422782895649875 2.718944987873345 -0.25082936821588414 0.35577717127388403 0.24770316388207658
Ni 4.438520147844433 7.605127122085399 2.5329114927028646 -1.2914221804911115 -0.3367751762500845 -1.1669198523399515
P 7.398301409564014 3.2998315912208165 13.232893734834112 -0.7521700591866014 0.1656165816929664 -0.2917037378327428
P 4.229326448148013 2.9734639891706554 8.153341952187912 -0.23887733806033054 0.41156753877062663 -0.3902667204103214
P 7.030590778508486 6.920668261005919 1.4293474649117326 -3.2991974104702146 0.602641127084117 0.5098181323141091
Ni 6.859109808412906 0.6030360366940283 9.666340176500363 0.7384503956076638 0.45116098479253264 0.3150305854841413
Ni 2.966148106614323 6.05246465189323 11.133826055866967 0.5282100045577355 0.473601573184236 1.6762258209043326
Ni 7.951562724397135 4.754107419175567 11.002934413022208 -1.69635164511993 -0.4630903892402669 1.0983140782460954
Ni 3.960527654929037 6.707862689820732 0.18039363155243152 0.1630033124398354 -1.4250362411355524 -0.28741050977402754
Ni 3.0843171164190526 8.67175331413336 12.41138001448427 1.6081054710873273 -0.26947346567963265 0.46143254192186983
Ni 7.136606577870141 1.3960988979035167 3.4214613636050903 0.14955027225872308 0.24748616277526408 0.5156560791521249
Ni 7.961449301201851 8.566124501002644 4.802315768196957 1.3397398937598928 0.8070862516085068 1.7913158546026569
Ni 5.64691229582655 5.342105355214445 2.7175555230251147 -0.867192472871784 2.1083809540183234 -0.8875242424506006
Ni 5.636878295695762 8.85263252126604 5.820785209387651 0.2200560915887694 0.14374394998959117 -0.8623641982452052
Ni 6.223558635757871 1.6015609446587342 1.3418848911362617 0.1993653960086373 -0.9305650235911587 -0.8119808606966469
Ni 3.399047489667392 4.697561359669007 1.5507312246206233 0.4312120524744315 -0.11641723715018014 0.519863432365253
Ni 8.18119298267031 8.940100623416239 2.2804352258674423 0.29184746249945864 -0.8444394954459844 -0.3446034140452517
Ni 5.334540695795366 2.448047255049416 12.905652649576973 -0.010035015638498845 0.513815169288644 -1.196831038077087
Ni 2.8249073462792977 8.282721584544642 8.19451360157672 -0.2993214022790006 -0.02560998725862041 0.08124068924904719
Ni 7.9297625000542125 1.9216538413929487 11.406894597167309 -2.468734688919297 0.4612703053123927 0.8999969209963145
Ni 4.759534440366599 0.7085054483534277 3.9673303200314805 0.29851279033477623 -1.0039630768673353 -1.6707668546722905
Ni 0.4556182389965789 1.849416411617582 5.420925236498935 -0.918200845598851 0.6918586638910535 1.4258037154291963
Ni 3.447116707924801 2.236411856514926 0.9400024544929914 1.683862254403668 -0.2527492109464163 0.30001791412539297
Ni 3.8697517419000937 6.026849848988189 8.821605439502575 0.14076481275660918 0.04988737174874634 -0.6516527810961293
Ni 7.205554624682522 3.627470719458351 2.45162042791509 1.5915761059737363 -1.6522556832419804 -2.3558946275974137
Ni 6.685104213858339 4.222812179927199 4.428603164978715 -0.953383821257887 0.7277810888192756 2.410484032807519
Ni 5.097106215198245 5.086722084668036 11.787578480917187 0.710702278960118 -0.27493834544894585 0.05213734412518763
Ni 8.540491270181844 5.0342117387127026 8.581778094044145 -0.352135974976871 1.0427923910297072 -1.285211166584393
Ni 5.095235781748705 8.76406795812818 0.5286176630885813 -0.5971950163678812 0.5916848851829294 0.5096533246014706
Ni 2.789534961979855 0.2537901772290408 2.3324083980784 1.8763340086162654 1.372887584156455 2.9217376120165746
P 1.0801154263835644 0.7472307919252247 7.47454598962118 0.48528569439038355 0.4945118409743419 1.4416134287679432
Ni 5.466309507430254 0.4295123321365602 11.744910484768749 0.3477100779950334 2.1800250007178716 -0.737927176114342
P 0.4813850722066316 2.2068074098480572 3.1195605053081827 -0.8751986310057119 1.28162576322598 -1.7044655324763163
Ni 9.07956308988052 3.984917001436103 4.217837564068051 -0.1025152823571073 -0.7868326435657932 -0.9809879561284007
P 4.359510459027625 4.5901818945411845 4.213589929485597 -0.9397469472007429 -1.2912059507152471 0.6168588133453957
P -0.07284278680805065 0.37451237476218274 12.654848716096682 1.4077676838630917 0.3536542113936103 -1.0438809961081956
P 7.709926679006958 2.910210168327812 9.284847307248661 -2.2669442284089345 0.40006725144051103 1.610147698328337
Ni 0.8164193230382613 1.860178314420851 10.970447840330628 3.2381743338196234 -1.7423545942126055 0.008071207043908681
