# total energy = -381175.39610893966 ev
CRYSTAL
PRIMVEC
9.18503240311421 0.00000000000000 0.00000000000000
0.00000000000000 9.18503240311421 0.00000000000000
0.00000000000000 0.00000000000000 13.44322335926033
PRIMCOORD
 96 1
Ni 0.56081604184503 1.6350460096845847 4.631391912220987 -0.40672975106235115 0.5488587911563385 -0.7791545581952453
Ni 1.0655464380912465 3.6185905233995292 10.833974569515588 -2.543557133346826 -0.5273761958025304 -0.40625204009498417
Ni 8.618848749273125 8.944807183489281 11.262961513554858 -0.3894570800248325 0.7092385499303979 -1.9933657394219926
Ni 7.360554403663109 3.227216287546552 8.272005388103612 0.09334955669743923 0.5681963151426859 -0.3371343593617161
Ni 0.13808686046444663 3.944585697745783 3.8027917581545996 -0.23024845874073893 -0.5515157691632114 -0.4815547665930416
Ni 2.1335452798664343 4.724698065117313 7.448177776936759 0.9994749591889948 -0.7967308765161116 0.3695441431509894
Ni 3.43441225122577 4.990889492698987 0.4635437919047864 1.238927195916189 -0.8420666243384336 -0.5050266244627366
Ni 6.749492559898105 8.271764740251479 2.137284506607006 0.40463455909621926 -0.5171367774627094 -0.05457809235619633
Ni 2.184779391286005 5.15686303040993 4.895430368179006 -1.7716389449990197 -3.2114734274896692 0.9717600097722296
Ni 2.220334652186894 0.7054545860089353 7.551273337497299 0.8529333918496085 1.0371807012698846 1.2506473125665947
Ni 7.220592878060488 2.030176923839929 1.1132121643751944 -0.7604312707541291 0.7025557385935837 0.4515829028212997
Ni 4.618528274170949 6.146798280762578 6.0390321311635216 1.265000495964473 -0.4377562813508526 2.364995047236785
Ni 8.298529925026779 6.175721948181048 2.7616949581393215 -0.12045232645150224 -1.5100011733137222 -0.4475331582319583
Ni 0.5746487008263627 2.0446892752280466 2.046583228934521 -1.973117787806234 1.6851220949526977 1.3175039651798275
Ni 2.6153002357568043 0.30227666485920485 3.958330180414884 0.7825730969584909 0.10452562791891677 -1.0176711704820476
Ni 1.9535921226537725 0.4967293144144509 1.5535123129744297 1.2924256820549611 -2.109723841199463 -0.6392819182356022
Ni 1.157901940121326 1.014027590663428 9.583781422591851 -0.8917585922469223 -0.7605192024822451 0.774017751189312
Ni 3.22424952204126 6.444742365780153 11.842041074070858 -1.7748350833388142 -0.5247058480592189 1.2208171165790394
Ni 4.5791336696749765 3.2527414929310963 4.13091418603344 -0.859954817472764 -0.3523231512870126 1.529605834918527
Ni 6.471002373766627 5.818185372146948 9.511537467776597 0.15531262866379705 -1.1534832672190716 0.9619792762363819
Ni 6.797906866332768 1.5771251945874507 12.337356811979845 0.38870066147478216 -0.5716403078272284 -1.1601030865284343
Ni 5.223941322933617 5.014641986806375 11.813555532703788 1.2947401891207508 0.6107624706396707 2.1955104979479803
Ni 6.169604716519981 0.9453970276431641 7.287571053729662 0.4518562110873443 -0.8341383706302924 1.7962009506091
Ni 7.785013126667986 4.257574866037875 12.019761349876905 0.04863987249489042 0.421305591993997 -0.49188905863951415
P 9.046062982035238 2.716739734953243 12.715353966464686 0.5198161240670853 0.009260085145687278 0.0933439002704844
Ni 4.699797441944409 7.568016733285527 10.623399432370743 1.1191559546921113 0.6271995331497715 -0.2521221188853787
P 1.2020176513346996 6.699388207479001 3.385541448674657 0.7626820144615187 -0.8257827995767456 -0.5577098137890654
Ni 9.14483882179968 5.8529139801206655 5.152949288051401 -0.7201940205006371 0.7832091878805931 0.6101682886990976
P 4.808190010761612 1.765023404933481 9.43440064613574 0.7419357830531028 0.1640160699750659 -2.117214493149554
P 1.6457190174776182 9.095414161787362 5.761953684531002 -1.1278884494691026 -0.9380783012490683 -0.27589710981778937
P 0.3630448400388175 7.953273737477436 12.763426589689452 1.8981086812891956 -1.0462579809808046 1.4664320304735197
Ni 5.168234100674797 4.495908089973877 8.198188955720227 -1.5833886850669376 -0.9181579081760574 -0.7976613587501812
Ni 1.3946737085282268 4.738989975724852 1.8075896011600348 0.6273180610055067 0.5229359006429898 1.1799944261357227
Ni 7.362575110818416 1.0841920541152208 5.100735133661506 0.13595067919741746 -0.7548584046520419 0.021380008337672854
Ni 5.1910405364322 7.768360662701747 4.099954196904371 -1.1064950713949913 -0.43975017185242976 -0.44259432616944416
Ni 7.452909905693189 8.4734037592536 13.360978169114722 -1.6998360041241045 -0.8845818719928249 -0.26515658347183363
Ni 0.259623210823672 3.559613429562121 6.157520887731242 -0.6633034779611803 0.2750303909421199 0.39779902423162455
Ni 6.523366244186665 -0.024945629832271773 10.008170339349544 -1.1648017775556845 0.48108065517010057 -0.02050069105651308
Ni 0.22561195389008862 8.63217623146563 3.7887441694122024 -0.1347887976788324 0.3626479302517883 1.8385349354906209
Ni 8.210463833185468 2.1097101204663296 10.47233871346597 0.27044380001270196 0.1824295394852471 -0.417590605036255
Ni 2.7646304945340323 2.7080323241203725 9.35723626939731 0.8503226936996388 0.2677611109742163 0.17764985870841662
Ni 2.511252187323513 2.8222298334928215 3.317088156782108 -0.904556515342539 0.3386119723485072 -0.6637567634485149
Ni 6.910322479395537 5.795176865674015 7.1560836391338 0.2316787634293623 -0.5620827460457803 -1.5537137837103243
Ni 1.482482619458864 7.567787107472424 9.062910168690989 -0.23633374570287038 0.5219390839473592 0.16806504323345894
Ni 1.56505606185075 7.006710210703708 6.852024159461663 0.5152449597566352 1.0403570421153374 -1.4939441198508594
Ni 2.590078136445556 2.5056493174837966 0.3289343847539735 1.2506964206369753 1.322135293304252 1.6459207421628879
Ni -0.13356874296582943 0.7925966635783211 0.2121797623268078 1.431046194775058 0.6479259670638454 -0.9204266496055762
Ni 3.1691852520591293 3.827935784689392 11.554182154764773 0.8170708736250445 -0.08725141421950135 0.6703220753708585
Ni 8.662358248339906 6.180507350126117 13.726875880255534 -0.42331465200422586 -0.13616305231853967 -0.16608992178495913
Ni 6.571890771011619 4.865137212411188 0.5857625901805542 -1.313985667613924 0.6005888725407785 -0.1488067092244792
Ni 6.680586445902117 2.996993447329353 3.489484787737173 2.2980478917922746 0.5020878535493869 -0.21210084129743473
Ni 6.9299968190622145 6.69168196519126 11.662803430891824 0.6502512727629124 0.8349138153437362 0.37936652855804986
Ni 4.223525950470942 1.40797363562316 11.385670792567412 -0.240137949940309 0.17533149498788514 0.6987098824849322
Ni 8.381140107548763 3.9949656011406103 1.6209433107470428 0.14798909841919028 0.08956592128529092 -0.5501620833487945
Ni 0.19336514170438965 6.2250088327055035 11.289148959784391 0.02983636663514216 0.5259026965807976 -0.5528180329144029
Ni 5.10137624893169 3.035478733605438 12.9375297996875 -0.29706268815181097 -0.04841438674764565 0.95674476731032
P 8.306952599851403 0.3825363975582637 8.9021160708204 0.6830757754921011 -0.27407574033833443 -0.9335297626464374
Ni 1.8929709079945458 8.61832520241925 11.069392464128432 0.048301772429181336 -1.3565173703285476 1.9029472403284193
P 5.948971050257968 6.309777497870656 2.1774929049846166 -0.7647075295319797 -1.1823431288735573 0.35196088285158733
Ni 3.730693845356478 8.397489465441705 6.6937844191360325 0.38520164718258826 -1.0501362329892883 0.9029765724499286
P 8.634307159011227 4.7746554570160304 9.617322405860197 -0.04184393261897955 -0.5422423142810855 0.2641643947618934
P 7.440813217858915 4.1568793544758895 5.4949447890546805 1.5243849528392197 0.9349600673350607 -0.4222525292882986
P 3.8127437408944886 4.175396380044527 6.086379136818882 0.4374222950502015 -0.3007555636223659 -0.06924649300164848
Ni 4.142596628900875 2.3940144321855783 7.302211077069866 -0.40953611016289465 -1.0662894457103829 2.105660212653051
Ni 5.289889856456837 7.049236911290408 0.05891279860973938 -0.6365364942799813 -0.16975142979694638 0.5966797672943595
Ni 8.27294960944709 8.044380075084234 6.753351192061489 -0.06284007525467242 0.001193506087468912 0.4681806592789808
Ni 9.239316066342834 1.2534722035348491 6.9185008323550194 -1.3498965225779205 -0.38056851928595103 0.31407490643909136
Ni 2.2203713923169905 6.856176712665819 0.7046040519972012 -1.7259180459231374 1.072511772471011 -0.4284722849457653
Ni 3.456134853145326 8.933390188061793 12.922042916348571 -1.078972183384374 -0.9151975399961528 0.18551280639626114
Ni 9.24418413358062 8.026790737800534 1.6998960133179184 0.7039994130186457 -0.032573820170963254 -1.7244463464736173
Ni 5.249668599033692 0.4992708129138764 0.743298757014836 0.33471135174252037 0.7045254607254448 0.6534610379494616
Ni 0.558727365449044 2.941332150233154 8.544714514764404 -0.23838857134937008 1.4644682218789296 -0.5647484658034017
Ni 7.370740604732364 7.353674814302539 4.44731375690174 0.605822353025576 0.8631059615072361 1.2901065470034812
Ni -0.05358272423598949 5.587025658612289 7.616971119632609 0.114339528685545 -1.0972103036589556 0.2661402875413416
Ni 5.960057384514587 2.8632042635829444 6.1277577083400665 0.3994550717778088 1.007816903395787 -1.1474463169963722
Ni 3.1236734159020885 7.0523690073811345 4.851148407876946 -2.2314313802143055 3.6237973848103464 -2.0913412249272176
Ni 3.6386322643671707 5.346148180667103 3.2319125946761376 1.1324130768123335 0.5440487713622049 -2.2099310442486844
Ni 1.1683361370687322 4.805572276492236 12.886808213082775 0.6715520911232176 -1.2393642834536076 0.3161490153593007
Ni 5.955639383870483 5.371489685401166 4.380729619127851 0.5853530294276306 -0.6610702177552873 -1.3387500190427974
Ni 2.3641263363520744 2.5030315832144208 5.884072365952256 -0.1293689122148417 0.022038724967594302 -0.8724143833923556
Ni 8.2500329532994 7.018209871423913 9.188308825226608 0.7344965531662383 2.4957670104467407 0.09903323734577783
Ni 5.845832320044566 7.645308781976041 8.005224281433888 -0.11906933006104654 0.8839684067785422 0.34164201742408257
Ni 3.632799768714351 7.943289607123712 2.169547851851248 1.00084072918827 0.39321140486094214 0.1276565575094253
Ni 4.487127198880813 0.7758045871177154 5.417753775721932 1.0798476440107918 1.7567280893254582 -0.8354018107237484
Ni 4.876306211960524 3.693439353438626 1.8293673132747357 -0.14515060052913067 -0.9470193124924401 0.07507081299290941
Ni 6.048656208242299 3.312168653362187 10.402729025978633 -0.36250651957791763 -0.7364241092062542 -0.37158791305389555
Ni 2.0931862469554283 5.420142802681457 9.917308323607886 0.9328705317958836 0.19242598857632665 -0.9587746532561553
Ni 3.5024733422295378 9.068658162044587 9.439388118796339 0.35051695131620925 0.8467516885189289 -1.388167650243977
P 7.7532512841995604 0.9186685829979595 2.8187082920230724 1.7445932537351376 0.311952717889766 1.1824919957465958
Ni 3.6694756035831833 6.705927950636179 8.259395256951239 -0.585118030598689 -0.9322449823967429 1.2960391104378324
P 3.815223699676003 1.4274734596718779 2.1700052664709495 0.10121070461307086 0.5088285147073301 -0.011179927876219454
Ni 1.7150292729046672 1.6312342211870725 12.00088702654308 -0.6098900953370464 -0.7328011677416864 -1.1454958781382207
P 6.1195279191984495 8.35653340541663 5.974423693885571 0.1710431520251764 0.24518862499033897 0.1333780333742348
P 4.423741289431825 5.5247327680336715 10.057036549384394 -2.413491452175276 -0.7198710899435795 -1.9443998510462512
P 5.575066746265877 8.868764299222049 12.134539353304879 0.5520063356463848 -0.21515094097766818 0.14547995884409137
Ni 5.655637851567504 0.7706031031993033 3.3343091742615907 -1.6166862707778027 1.3576126602752556 -0.3480060119688974
