# total energy = -340859.7664127785 ev
CRYSTAL
PRIMVEC
9.39187680680307 0.00000000000000 0.00000000000000
0.00000000000000 9.39187680680307 0.00000000000000
0.00000000000000 0.00000000000000 13.74596105221107
PRIMCOORD
 96 1
Ni 3.0408267295100364 5.59694809017013 11.840138073092458 -1.8241154176311813 0.6587608528958203 -0.12482397315663663
Ni 6.888904052199368 4.781770752986701 3.6923027151929246 -1.0993751725207581 0.6559079568280575 -0.850009276224278
Ni 9.157596415818565 6.956281376234506 10.294583593379302 2.123715270382549 -1.6381015032287853 -2.071789270937219
Ni 4.6657059397129 4.061066304354912 5.437805555659645 0.20827246869028002 -0.35439468910406063 0.35118852346193713
Ni 6.228185520575166 3.786954988591104 13.215765326186183 0.7289563400742994 0.0968107757731623 -0.015352571196670333
Ni 4.142963469895254 5.435548687668895 3.4859481552862537 0.7885902496868482 -0.28535028481088925 -0.6975927381613534
Ni 4.716403290582943 6.76918579885731 0.7975008858917456 -1.278616801196327 1.12407987435629 2.4410418509897185
Ni 1.9607984670699976 3.1420523774680413 0.5954806771200364 2.16049978620075 -0.382747786325457 -2.23322549600025
Ni 7.011289598547555 4.06193035701887 5.880192066916901 1.4950988022805929 -2.1475105730299338 1.3685473049098882
Ni 7.571947074934738 5.829753931846047 11.82471567222849 0.9444893469817348 -0.7031494063135245 0.07053975789177529
Ni 9.139197729202333 3.104550613476919 4.055938339631859 -0.8218014463314942 -0.019235965411476548 -0.9473478994764523
Ni 4.5718153475217544 1.5651186982380485 5.207726175813587 -0.4304564052553297 1.7349099650091022 -0.33505228002170684
Ni 5.623639803984998 1.2946796062960602 13.636639743673927 1.1410306432780155 1.3003217969735865 0.6650335732784095
Ni 4.613261699761379 3.2765628367419835 11.746308528100396 -2.2009720352831836 -1.7493832189246132 -1.5487451268511392
Ni 5.203024602296444 6.239314894562012 12.535546440799207 0.552582519864829 -0.20993648665626427 -1.8012305426132076
Ni 1.4278282434365905 6.756976359040516 6.622708210187554 -0.11726415853150772 0.2925277763959349 1.0745920520388075
Ni 5.787105419378307 0.7525466676739881 3.105198652974887 0.627838452285351 -0.7053446141926304 0.0040916535708703725
Ni 6.358347540898972 8.777009392975529 0.9426335578062984 0.7838712469446242 -0.000905542533404892 -0.700297024466394
Ni 8.821836820856728 5.512355455993312 4.871197386143292 -0.9652774873716794 0.42845531566490086 1.3639843681295543
Ni 3.3269690394317784 7.601897769993012 2.9923035981150616 -0.6589313170354136 -1.041538206907632 -1.405223063064367
Ni 3.5460909166361034 1.4981076573974135 2.421928346821389 -1.1539753763641416 2.8552337147570697 -4.469262493307368
Ni 1.4463020650670781 8.952956812612314 5.108906726687168 -2.548596495542946 0.3944092818237853 -0.06831498232631461
Ni 5.603034026324963 2.229133778612785 9.65429708969467 -2.9859647974267607 -0.6986857141152161 -1.0846772041889514
Ni 2.410594229920691 4.882987009067925 5.043667932995326 -0.5591352333816823 -1.494347011716233 0.6448923224438442
P 3.197107559165 6.970115610734612 5.048259621554118 0.49594034589075225 -0.12404544311939926 1.2148444439353723
P 7.856398847035693 4.164170327669347 0.8846819213097246 0.6141455281792907 1.3636614375724967 -0.5128610329054909
P 0.7677812310023124 5.127692358626824 11.748617990601126 -0.5358402674094837 -0.6151204904980503 -0.8265330474792087
P 7.249007391780535 7.335506576944129 4.8190865578175375 0.026859800505321486 -0.7610411364239862 -1.4793307408130587
P 3.9168822119953566 4.381122681336995 13.342380034649373 0.4155980000862584 0.4375552210836399 2.0831329780848127
P 6.669650688720092 1.80541925758612 11.773251005025346 -0.45816441269355934 0.3002272019227216 0.4838116809480184
P 1.199089084407345 7.0184743842858985 2.065894507449926 -0.5766030511491426 -0.10429911373040746 -0.23641962054845733
P 5.9279553954802 5.9112096791776265 10.441747728241836 -0.3077947298573344 -0.7972055021596851 -1.6926669971794912
Ni 5.7128908090457635 4.725043817222519 1.510887184134884 -0.11160027537751104 1.1844213515588247 -0.46260393652215165
Ni 0.19986007711181486 6.023555309245697 -0.06971871891692874 -0.056047992033503476 -0.456700169443207 0.27640721668498847
Ni 5.660446569094241 2.0853441450780794 7.271696287710851 0.7762504971745727 1.2011324936659185 0.5358824335013288
Ni 5.986288342174129 4.703639730036002 8.01159961086071 -0.828785076738179 -1.2964024073145222 2.254082027734286
Ni 8.188044799966947 1.6604932069607747 10.146993067310863 0.0347973101848433 -0.5953327663481618 0.4790227441998073
Ni 2.3953042545193517 5.676196746457906 0.9056774618562192 1.0059453974046868 -0.4164315517311473 -0.35310965174404996
Ni 1.9141771907234086 2.123127665372666 5.411771273219527 2.117317337276005 -0.34060406307787144 -1.730136454879859
Ni 8.034835114019748 1.473284927062193 13.52330420979302 0.6939577125119274 -0.7336272631874076 0.22782056602553669
Ni 3.7548159862425887 6.1506931452456515 9.584055243240975 -1.1027309763668687 -0.9621906209162396 -0.5075483624433259
Ni 0.43535950904885157 3.9948160055336315 1.8401992556857754 0.3606553253017918 -1.3721095683398499 0.18839989813606908
Ni 5.066081646935924 3.121512342945481 2.813041785161857 -0.7095429685446941 -0.0191896855545734 2.128747690600134
Ni 5.299206812422434 8.374924364178154 4.904435238075319 -0.17845204289473784 -1.0268286686115993 -0.2484948065454366
Ni 8.38643880511307 5.2237900418617755 7.539411735386016 0.36140994407962923 0.8271627106434077 -0.5491007319638156
Ni 1.0585678239928273 0.4320131833513718 12.353027524977952 -0.10591299518474663 0.46079362278629027 0.5527673821821255
Ni 6.5802869811379425 3.711810582457127 10.609572113649739 2.824382790814484 4.288135731793943 0.5320471189156385
Ni 3.464916925607987 0.9363353652361891 13.535785074848816 -1.5907111868702797 -0.7722534602000377 0.42805705178521763
Ni 0.8649430138766814 2.5573516965185554 11.422178894157893 2.0660636813073516 0.6681662053701202 -1.0484300489314589
Ni 6.655337468504097 0.8163513217811974 5.609616792761571 2.202837884847329 -0.27107397739753314 -0.34290365774532555
Ni 6.336962237466018 6.0716417183703015 6.3179596531726965 -0.22310259172457705 2.59857899810866 -1.5351396202525627
Ni 5.820878608286916 0.15428317746340084 9.301273346831884 0.9485925705168307 -1.1025571697931655 -2.323815744784998
Ni 5.635576879375111 7.136267302887615 8.2722091645625 0.5884486376338188 0.9178084952564386 0.3765840807169063
Ni 3.5411226138183465 1.2878235362450912 8.152949234807412 -0.5720807377987567 1.889917403727655 -0.6486664447742958
Ni 8.574905596500459 8.032308699165348 1.349402315554931 1.4550160753270942 0.4941750264602135 -2.7461333229832765
Ni 3.331852815358496 0.23937545948502972 3.904430461757583 -1.0853675453877567 -1.9750908523722048 1.8987506857485688
P 5.442320230828824 9.16727944078096 7.049244990187254 -1.2181020316407216 -0.11030083983979713 1.260847650138364
P 6.844226894346684 7.788777334204218 12.60280542718689 -0.3994432447032669 0.2161531569899374 3.281180147957188
P 1.4845176116936436 1.1162715149423525 0.7250303470776472 -0.6210594816903046 -0.9589836839431678 0.3880776831788026
P 8.013374675572535 0.3812266096518996 2.4259969078434156 -0.2599552417765523 0.8314220001403939 -0.06529547877370044
P 0.4404189130713954 3.89884980857363 5.828617514755407 0.8490579680546023 1.1230493762092464 0.93217941926613
P 3.626560516905558 7.977920340719923 12.232296827318779 1.2131210334863622 0.09678403630028493 2.239060614624789
P 2.8915428480577736 4.048499973220396 2.314448648114151 0.4565685289613492 -0.43116731527942526 1.4555053562586866
P 7.796938875127906 7.571580791740234 8.068260803487417 0.08911854933522716 -1.3498643837884041 0.6837347492323386
Ni 8.738878373240004 0.1792129751939379 8.170914955903987 0.8520229642201972 0.3234303795120623 1.0303775623051223
Ni 0.06875699073443665 1.8835878480439487 6.486224517601682 -1.6550088205070852 -0.39606044427396303 2.5847246087240707
Ni 2.0232356639177262 8.026495127437197 11.046543268754407 -0.9767258384179371 -1.2536974122468278 -1.7961199608595195
Ni 8.74533059258934 0.8843644758744879 4.612800558611376 -0.5036677964419971 -0.9418899616856745 -1.1455426722157562
Ni 7.34219359321302 8.184109603595228 10.712529623686372 -0.9781445731423347 1.6154377430826823 -2.6777504635335045
Ni 1.904691395173438 8.290510175660197 0.4396055765420613 0.4121198117296709 -0.1985138466416194 -0.5268290650498089
Ni 8.367063363311496 3.3225736410977325 12.090315130064637 -0.08554343038945914 1.402459898496933 1.0965729271852727
Ni 9.1944595321885 8.05114880399034 3.4078716052208904 -2.3097286705643123 2.208602812355564 2.0798396520455213
Ni 0.17149191329133298 4.462287280488329 9.35856661276603 0.5832694074257245 -0.28570124039240474 1.3787067619413933
Ni 1.835182115108751 3.6598641119750592 7.483452115954936 0.7414015078161876 1.196550273611875 -0.31243171440871353
Ni 3.4131207251544335 9.079634446649944 6.0462019417304935 1.077350588620551 -0.6884087576692403 2.953799525548126
Ni 9.010031247817436 7.961954150190269 12.330361169551914 0.45767461754133437 0.3230465138100823 1.5027804871955666
Ni 4.681944494669237 0.48748630356513656 11.56953556249446 0.06491444128519788 1.6879922174116413 -0.8513133397476823
Ni 4.870552164208359 7.9410760081035505 10.457280953251832 -0.033650598174909785 -1.8971830841511326 0.9883521098029558
Ni 1.0303734098928152 2.0860391439599586 8.948181043268592 0.10421298177450437 -1.4634145838034345 0.5416324486112285
Ni 6.1407659314869205 7.25335583073067 2.9118894099186217 0.28564210501969517 -0.5755560979418668 -0.2083182343265509
Ni 3.463113685265814 8.50495489822701 8.565314611930528 -0.5851367996517663 -1.5793191429832543 -0.15307165514842025
Ni 8.746391874665722 5.674722221803108 2.4901086763214013 -1.0146025588590526 2.4803650740693732 0.23737349982129444
Ni 7.200207200020488 2.4449121476826643 1.9106063991708355 0.34371278391018223 -0.49234877188475207 0.7494953405679157
Ni 7.236553763167405 6.425405541123518 0.6801268449945131 -1.223227268682429 -1.454518052644753 -1.2178703752458895
Ni 3.7462036352333574 5.921127501059577 7.070097774206661 -0.051297878943027786 -0.27053893082966957 -0.11732097991137214
Ni 8.470317656654446 8.378812601165965 6.1747410457463445 1.075570613901993 -0.22399270763901422 -0.7805282986143204
Ni 0.9320423383590687 0.928311884901199 2.914611175810088 0.5349516941569432 0.24649088874153033 -0.9449904549878693
Ni 1.153867197701296 6.735825852527116 4.289784801255237 2.5418782029825064 -1.0816088496762726 -0.5796981451346984
P 4.086123831609687 3.678497595510844 7.549213097995867 0.013917638522356677 -0.326478936530399 -0.5215565037969597
P 6.7387279424528 2.713181716087976 4.3137303302990055 -0.5264326009423385 -1.4372980892220408 -0.8628761048846171
P 4.382052477138428 8.914797617246442 1.6300231411164479 -0.5990590661598135 1.1507504416689407 -0.2855865691914114
P 1.6429491811317198 6.131205000922692 8.787422166763898 -0.1886464669292364 -0.31551215310625014 -0.021551758028846756
P 0.4082442215911084 9.19449709969563 10.181811572105325 -1.130910524124878 0.6287969595438784 0.6559105279312187
P 1.6944542334050263 0.1508626559393421 7.342762740946018 -0.7711476287303687 0.4474650239981842 0.08145074837732423
P 8.122987269497 2.685071828879004 8.231136609018806 -0.0006024094706892851 0.8619553928425607 -0.2424007778325567
P 3.3325102467332464 2.0188214818301162 10.143131127578044 -0.02035670927948107 -0.10881371377130938 1.1420202608847945
