# total energy = -340861.5457016309 ev
CRYSTAL
PRIMVEC
9.34362188542109 0.00000000000000 0.00000000000000
0.00000000000000 9.34362188542109 0.00000000000000
0.00000000000000 0.00000000000000 13.67533509708796
PRIMCOORD
 96 1
Ni 1.2145026282310238 7.634897490349796 8.050204653804261 1.4359719142114495 -0.6254234150859551 -2.926279465750986
Ni 5.313493380713528 8.566820969270985 0.8744144220787107 0.16488664550547733 -0.1695729952375531 0.3318304306502995
Ni 1.398366414896332 4.52999333157069 1.5713645039545112 0.6316182310427575 -1.6569548884898626 -1.0556371082028593
Ni 3.7813449911513817 8.5892550048327 12.284881611043156 4.106497577861741 -0.41474850760176957 2.023368199321354
Ni 7.515345851444286 5.363033262657804 9.0551775010824 1.2403104494169608 -0.8801901706830325 -0.3962087969263693
Ni 1.6499434275990164 8.858070999464315 9.93694909084178 1.2112531270396882 0.49333710393995045 0.16174270055985693
Ni 5.609873059188148 5.070661997867472 12.327808077589438 -3.193671880531874 -0.6812546631229622 0.04815496243867191
Ni 6.807239485328299 5.119669293378171 5.9078402189796915 3.0805019466743975 -2.0765242145190435 0.8159506439776721
Ni 0.004304606490329682 8.393478100574228 5.843306627386986 -1.606565380293717 0.459683420441247 1.12292827725035
Ni 5.7164557512549825 6.071616153477517 7.717073708326355 -0.5809459014988705 -0.48883227409106134 2.700667220230678
Ni 1.6148674719560872 2.044281635365185 8.77060722600072 0.2530970812041383 -0.6597905797119153 -0.3624419848885693
Ni 1.9012775061390168 6.652817450455978 0.845301565767512 1.2232941173646221 1.0650866836515334 -0.1704775093296935
Ni 6.868944762650066 2.5068002502508144 6.378285962466137 -0.42702861052070323 0.5776507756873664 0.14326855301506938
Ni 8.970456080570642 6.1724058001265 1.1137400780848021 -0.7903301151960905 0.5960735011689283 -1.2221510048991144
Ni 5.712484712057261 1.0311433971343673 7.905027198184233 0.8824000338501578 0.919286622463862 1.0604412144597222
Ni 3.234453472841231 4.859327963575575 11.202834163204825 0.4340731760723105 1.3306294468181923 0.21736774612332888
Ni 4.6094047719034705 0.5471138965052235 4.815741837341387 -1.0513166264506346 -0.5547504740504252 0.5012499310291239
Ni 2.384697802637122 2.770028759140695 13.155562321913845 -0.7524724209183685 1.6673778835953992 0.7544256879899974
Ni 3.5385790136568174 4.906307693190026 13.543395500293064 -1.53231526342989 0.5262266555791195 0.6828412908837918
Ni 8.631908637627046 1.2042620189117244 4.4880264549670095 -0.4721491570084255 -0.7123909795164505 -0.4767102940165468
Ni 1.0736008138742372 5.414254996497585 12.642532088433203 -0.3255453689725361 0.1358745745438434 -0.27540834310682893
Ni 2.1283461992755304 0.5633605858158057 3.8221878300715666 0.6412087029446699 0.3341570219009471 3.332825125826989
Ni 1.8364234283239997 8.096248152530213 2.7676685603140023 1.0611318127688434 -2.213324643311265 0.18501555504486847
Ni 7.272822808112406 2.303389607111077 12.83324848721053 0.9482279880885605 1.176719869149509 -1.6402560876779426
P 5.271232180028133 8.272132486313513 3.520358951455509 0.8946708807977108 0.12560250319387403 -0.29226963763854175
P 9.186060149952795 5.550569092628299 10.666432728911806 -0.19623173547566203 0.08390435212413937 0.3813267376082143
P 5.404061105286495 3.5622090327886684 8.0504644064859 0.8549234256964438 -0.08230461173718728 -0.16414436802281407
P 3.0409190377767668 7.039662073665506 10.974811486298695 0.18201996275165425 -0.038031243741108695 -1.1480739232780421
P 5.492507827746795 6.7006007315316145 5.857091272394981 -1.6922666764172791 1.9316278960925635 -3.0350450998931797
P 8.533454896388486 3.979495175306844 7.283401656535135 -0.13017598149716936 0.01370346562902156 -0.4850311551774163
P 7.275999639470583 0.626840216887329 2.5662172746325282 -0.6709597089548573 1.7488456012535882 2.475155504843976
P 8.420322325550822 6.837980000529482 7.446246966317446 -0.24585505492974433 1.249006434529062 0.6614810800404607
Ni 0.018310695331233074 5.753120122577001 5.8614809058422495 0.5295737176744815 -0.10618373234763002 0.6541986874464346
Ni 5.104383128372355 3.274873980063211 0.23978723091519144 0.0676503521591222 -0.6690383235624284 -0.19170299436737306
Ni 3.87302460669971 2.073676669049963 7.058182066121514 -1.1021625054579083 0.5880997389348323 -1.6927364169648458
Ni 1.5077989115638841 5.090451788504585 9.417163418914194 -0.5927122980061793 0.4390102083626117 0.4258991249019504
Ni 3.05867191889599 7.021899848924641 5.336102141999941 0.33634220247772395 1.057441765511766 -0.21301049759589766
Ni 5.21339516206603 4.855515765945763 4.388415039007045 0.9413276614243016 -1.0484786427812074 -2.474253561854997
Ni 6.787477725556111 6.80008227115076 10.85683424763981 0.4633140752152988 2.1578906307126773 0.1185769638056603
Ni 1.0917367834807707 2.3317194679287017 6.005290455253933 0.20119139347378254 -1.5298742580885651 1.537581654035152
Ni 4.208348500176922 1.2417486289382114 2.055552846151564 0.29198038853289715 -0.6825720963828051 0.09112735223513983
Ni 4.530217578490091 2.736840215069388 11.705402343533258 -1.0000547429518647 1.4287034055744943 0.9232170678665197
Ni 4.706793340274875 8.45824808579447 7.35121766241057 -0.42939711075287984 -0.026343780100851404 -2.970718927011284
Ni 6.773509011201774 0.1754236932363635 5.933604321294506 0.7175455271341965 -0.9276889875949442 -0.23077553488880254
Ni 8.002811936113247 9.047326055816882 0.9630938007178901 -0.9496534076811773 -0.38375591587499713 -2.6773200608643055
Ni 1.7303639790691 8.118822342416554 12.31316195066608 -3.9742544294228974 -0.6644679305829266 0.9695732865335559
Ni 3.294831955889875 3.095831502165018 3.934160857463496 0.295851184342213 -0.921064283189575 -0.6794106679356879
Ni 5.288536567308555 5.4270744453899935 9.950829975152686 -1.0544130059877712 -1.1307156345052525 0.1434665279584884
Ni 4.505933505843321 9.032301512217034 10.074742282278375 0.6368033747881225 -0.39568197788862175 -0.2229953767227514
Ni 6.716503575565784 6.615611149078742 13.477698627805966 1.3872214842806239 1.9856316040025286 0.458857582105842
Ni 7.686567718028379 6.893929606919962 4.557715856981605 -0.9282119499779498 0.0500794331548944 0.7493816978081869
Ni 2.284225839123957 8.990273902072682 6.025625913394921 0.5690182968233491 1.6302244144735536 1.3999674710923826
Ni 6.56334292961509 9.195497207810908 12.681288496640796 -1.3656370732416288 -0.3094548911685767 -0.5833177441651567
Ni 5.945925755153413 2.8617270619323065 2.487899038031826 0.9824527135993856 0.7164985739269208 1.2771191336048777
Ni 7.151028700012889 4.449843745128216 0.6210546463667905 1.3341145771533152 -0.6481653367681611 0.5093044259024841
Ni 3.990819644736581 1.9156947143321545 9.496972897528911 0.5539351772379815 0.3336857386914834 0.24249462309794367
P 0.12684340123468973 3.173972209954528 0.20085609698289786 -0.21869392113392017 0.8435709767981021 -1.3305795674168635
P 2.3120324571296464 5.770097483099963 7.48379991605759 0.23326590541082406 0.21554611953355785 -0.42541550039731246
P 2.404440875166027 3.097148952816497 10.577639358088598 -0.08676110484664412 -0.5875040143323623 -0.37769274040005274
P 5.877698629925742 1.3063878034554695 11.104385093777088 1.0355881599717844 -2.3408282201825945 -0.09385169314483836
P 8.94791926517087 7.773753051567051 13.212356591700734 0.7940078211579938 -0.5805103566233486 -1.0029292362861824
P 0.9587303294112177 2.49394342687184 3.8136683158586675 -0.5652115214827491 -0.05398622440846832 0.13881848766351576
P 2.7674779504325118 0.7574958157518311 0.11354929636288363 0.19178604099948263 -1.3056815186236028 0.621124273489969
P 4.5196873168998986 6.752084086777364 13.625829602226933 0.10833060348730375 0.7895215032518661 0.05112792902406678
Ni 3.4295856672064255 4.098916003509371 8.606408025442526 -0.06777813598623811 0.35379767895001 -0.6132890937162664
Ni 5.1498398476592095 5.21328303860633 1.8595993474440642 -0.409476717679869 -0.7006947741254449 -0.19235039814338487
Ni 2.025884044352684 1.7594319859964187 2.080059296993406 -1.3016875669728614 2.241390548309546 -2.890462713162693
Ni 0.9690270004603675 9.126429156635487 1.0372812221907979 0.5950664000606526 -0.2869729080159767 -1.034040098758374
Ni 8.839729470181664 2.3582740406344036 2.0323731895828425 -0.4954724051153983 -0.3214274901494206 0.8111347106462675
Ni 3.1021384467731634 5.480202278044681 3.6312387751153596 -0.6208928742054532 0.3817823370883941 -2.005955146051229
Ni 3.7697682439373197 7.087445354741143 8.781014151785241 -2.095365515595262 -1.6833994558346363 1.7233158324135998
Ni 8.105685210388327 8.922345772737547 11.2402637771393 2.554023837206105 -0.249783443449873 -0.24574526882475742
Ni 2.5878001062626836 1.0628743362295694 11.60304296844847 -0.6817573137909936 0.4010355288910513 -1.1273019808380134
Ni 4.02732517449069 7.248146303356685 2.154685868683474 -1.4079000956758978 -0.45878687676890667 0.6304288387203466
Ni 0.11755771004717154 3.3608072683018957 11.615869892238194 1.3542545424363 -0.7970610061620208 0.7464652954923403
Ni 9.090073124827644 7.448884670706898 9.61440259995959 -2.04865705579513 -0.8439435296461724 1.1518704142059968
Ni 8.788834763099342 8.143125102306605 2.8693038047215587 1.0070028921349239 0.11388315787441677 1.324505079088009
Ni 9.008194968381456 3.2242502380084983 9.334564869239431 -1.0216638365812083 0.05690134117273426 -0.4438909334936807
Ni 7.530351707800851 4.689330111426544 11.580601457989445 1.1808763145200436 -1.104685528990078 -0.09087589834596607
Ni 3.7346175393212566 5.012264362606867 6.014124849516157 -0.43130178397476043 -1.7824640606389817 2.041505789462329
Ni 0.2530103242625206 1.0925683658068817 12.87400069300079 -0.18229892744465379 0.36693678743512936 -0.12171242411084847
Ni 6.138395017350724 1.2955211714861763 0.6891640419617746 0.5372440897355457 0.05342675236057251 1.951575285748768
Ni 1.58575274692056 4.252712015731698 4.886511362017763 0.0455954292416118 1.4307955122168325 0.3044636086015724
Ni 6.308402213121395 3.076452830880139 10.08043067913384 0.8215877876587915 1.2055427069184723 -1.1554563317850421
Ni 8.620771040630142 3.5930897023144763 5.011572934605382 -0.7033540661251629 0.3392210666874158 -0.606710154947168
Ni 0.046639621786693376 5.392549763423924 3.214757118420534 -0.02832687196915121 0.5692252706278327 1.7054317530443273
Ni 7.527156189199391 0.8557140977250188 9.338612526134613 0.7438018897275641 0.01937660475439889 -0.03850381250215304
Ni 6.846099607736116 6.909393300736971 2.3870981790368737 -0.8878088635705549 -0.1747403983711055 -0.5939328006768416
P 3.0711456537876556 0.3225623750389828 8.264141821085534 -0.7919285700314619 -0.7275676872568889 -0.6147983312719412
P 0.4062046072511235 1.2019167698796585 10.679055027387575 -1.5158738300444152 0.04127803281318052 -0.8630869353438426
P 8.844139659596545 1.1060325245925666 7.067946150737086 -0.563139726555385 -0.42439682932481104 -0.6588706390008072
P 5.211105974763815 2.52968277965133 4.634721314741648 1.415066274407034 0.7447485699115496 0.8309869694855043
P 3.492309399287135 3.485974423814065 1.6465236620781554 0.07448100192771043 0.3286088383892083 0.597170590887849
P 6.303926618355022 8.22580681021398 8.724767418226556 0.7032926167596082 -0.11992036520743217 1.1113943084688214
P 7.343311089777366 4.668671363976753 3.257902225713233 -1.0602931189176321 0.41593352904880626 -0.13340914372248638
P 0.991348912562381 7.167267914426158 4.46677438754297 0.3002883941779602 -0.4926475340720935 -0.5948892510528401
