# total energy = -340867.2542662854 ev
CRYSTAL
PRIMVEC
9.28205313519421 0.00000000000000 0.00000000000000
0.00000000000000 9.28205313519421 0.00000000000000
0.00000000000000 0.00000000000000 13.58522300766642
PRIMCOORD
 96 1
Ni 5.84743344958921 4.50580551881828 2.83007380558625 0.5512198351893474 -0.4610206511954319 -0.0047130892049531735
Ni 3.8514022230163425 0.8119847084261119 7.988056783913409 -0.27994711151744694 -0.32403124632085484 -0.18339755982547126
Ni 0.7587762681995222 8.945142256591517 12.974906552335879 0.31304080874762213 -0.35624331227702516 0.4399283493015068
Ni 3.1650593830758766 8.399821646844789 12.508974413110048 -0.0834981178246562 -0.312642544867939 -0.6224044257539731
Ni -0.1533831400830939 6.128382627730725 5.38326675683102 1.0108901430044719 0.21740605556043202 1.4631903836077704
Ni 6.91302240821958 7.903463866313617 11.398205990039148 0.9500460151339057 0.178904299940808 -1.0274169370149016
Ni 3.505682879516314 4.332834462433084 11.457722513438231 0.9739593314163938 1.0825357323659164 -0.2689227353824853
Ni 2.3146191293530722 1.5420552997285661 5.506036758139549 1.360669187713392 -0.18341478621665186 2.0871546976496957
Ni 1.9900350203788872 6.337535126444308 11.83954904284319 -0.0007330215112826086 0.5626311623500826 -1.2099596050392452
Ni 6.831600239901311 2.3428736984776513 10.44934534446396 0.23599898807127098 0.4549124814151649 2.4670855833516483
Ni 4.135395914519506 8.478403506965908 4.853687580651432 -0.635752307815789 -0.895578994434277 -0.09654338104438857
Ni 7.435574142124457 7.28695919263246 8.843966023223665 0.46180072389456595 1.4070742573404929 0.6802491046765832
Ni 3.5596487352621433 5.1970400006538355 2.7045191883981636 -0.06328719009442003 0.4972984025805436 -0.755758547868808
Ni 7.7194842951512355 0.7537351852522294 5.000856386296645 0.4532605476340387 -0.38760562863839054 1.0471205860914161
Ni 2.0929822694461375 2.191863979329234 1.5980975507152526 -1.0549938181919056 -0.6973397416102829 -1.2583367107910524
Ni 5.747512149777745 6.282789578252203 9.90752592508313 -1.4367404169463578 -0.46882677750341195 0.9616260066620212
Ni 7.914704432414099 3.0289659229889567 7.3605955749514855 -0.708068955102329 0.24604145990893758 -2.0635023483380786
Ni 9.187190350895609 2.791586701309589 9.100387376492742 -0.48182678930750567 -2.2734342070086524 1.159780413081693
Ni 6.198146537566579 5.628033564438854 7.589344343814811 -0.18365029926622564 -0.9082959277803131 -0.8121420688648594
Ni 6.075010823372534 3.365978700838901 5.903512828787624 -1.036489331629815 -0.24288388811656234 0.12917505103648078
Ni 1.3968282995566972 0.507135172190353 8.903944792858754 -0.3075401906443671 0.2479890705536116 -0.45714625584169005
Ni 2.04406585049524 2.9027856954332627 7.500075127947948 -1.1717805228663625 0.05548594888244637 0.2342804627182675
Ni 0.4198189002603534 6.8807301460696415 9.296326872857822 0.4659126891804105 -0.0291118297642918 1.8649152252563626
Ni 6.166160583163392 1.916075622617833 8.454871646373059 -1.246137597621699 -0.8530148958198212 -1.367275380176
P 4.447950482894002 6.651528413023242 11.891322477686513 0.5408019822901331 -0.41034626476901587 0.264723352589157
P 5.676133162731748 6.74502653220586 3.226204906764499 -1.4227171060840722 1.5241545819959688 -1.3385638711739205
P 2.2183363942908967 2.6618978577456525 12.358531827395767 0.5153819995551318 -0.598046308624583 1.1007566262493171
P 5.961816187868511 0.5705585116684538 1.3329928369284216 -0.07565368207957293 0.2424894808916211 0.19607284130029456
P 7.222486052967766 0.1277897355340785 9.626678849523865 -0.49672324680336394 0.04209821472163073 0.24474382414343657
P 1.7746913923597536 4.222266647908777 1.9583915737288862 -0.7874759335767471 1.1386138063064069 -0.6832367265499975
P 5.4110748592095765 4.203563311251081 9.223714300977182 -0.633269136382619 -1.1677292356151243 -0.34128566252592835
P 4.119913450229165 3.933195673451886 4.466032850210556 2.516007248753015 0.834459244304821 1.2118105422050551
Ni 7.4151536256743675 5.8154474951860236 3.917719706598597 3.113342133132871 -0.4553572822620674 -1.6568916393520952
Ni 5.613618536235677 8.58910127023126 6.786892303749717 -0.0014932967160748475 -1.0809331637654869 1.1236895808964067
Ni 0.053026511989125294 8.609326863569782 1.8577249250669934 2.030804858105057 0.5336712847826228 -2.5490091576003326
Ni 6.909987176910862 7.816797338088848 4.929832901877939 -0.8005425369527182 0.5564839118017642 -0.5002019493805837
Ni 9.360022176486828 8.068702972606575 4.031319967815742 -0.10390110696104041 0.1477492144942423 0.6774028934770397
Ni 0.14834020072521478 8.408880930506282 6.436134661918277 1.0168651296409843 1.3932856881968327 -0.5429043733451167
Ni 0.9745134552629666 5.903357818503663 3.2547750656887615 -0.15781842580478628 -1.2677148095718425 -0.8753251292812474
Ni 0.7813298004133536 6.230782235674996 0.23178121555616316 0.9444764914659283 3.5188997182639916 3.684843087168757
Ni 8.748390580594897 3.994271581743519 11.470954079892595 0.03510841366735889 -0.24334231581021964 0.1975334850062211
Ni 3.3336214643184396 3.897775359463911 0.26546485744058707 0.6841990904632669 -0.018035260235156034 0.7992713835497783
Ni 8.59947860540908 0.7229976669683776 11.158888675707608 1.0631838102018658 0.11610227701292264 -0.4596931906332599
Ni 4.052832053690619 6.6664353900318085 6.889745804082357 -0.6227520389013791 -0.793612385491788 0.03447309407620515
Ni 8.276630240333152 4.784072183662487 0.7070873000378778 -1.4173887518926236 -0.4540637602616244 -0.5263071311080678
Ni 7.389470185211913 8.873828243916043 2.875733152163359 -1.6013067029979389 0.3509949193938923 -0.7407211939197114
Ni 4.64809010821075 8.454437246295848 2.1568576449020203 -0.25381493320676934 -1.46598902939883 0.22368571792155667
Ni 5.445483429427979 5.55457539753612 4.955644434670853 -1.7140354355529384 0.47377923641268077 2.080789160442984
Ni 2.9917448907322015 4.458671254030299 8.912218814842213 0.8841337287118128 0.5942230782237508 -0.6500831226161643
Ni 8.828104851173704 3.9620535760170355 2.899535120496526 1.0748118813590972 -0.5108859114569911 -0.16894590317651548
Ni 4.653195237323272 2.40821935111794 2.2285874935488414 -0.6829500485475142 -0.1683036416068263 0.08533491392307883
Ni 1.7502424649372366 3.1340109160188074 10.333858041885769 0.16382863655460816 -0.25571137889853385 0.5853468587800436
Ni 5.726284094722584 6.090818159515491 0.3910835207939037 -0.374869926239277 -0.4482985756430731 0.1652705112074573
Ni 2.4511302818219254 7.604767402966387 3.007781493582575 0.38961828819304517 0.6014368223633707 0.8372990277464611
Ni 5.555262269453078 0.8441293859344334 3.856518490592383 -0.056397147842806104 0.3046772672742753 -0.20062035146166093
Ni 0.6672607955231494 1.4621182598793947 4.033167096349183 -1.7414963599773685 -0.2966623673895987 -1.2146225577325533
P 1.9165954175820172 8.803117564681138 4.909183118720431 -0.17008567320791354 -0.4790389421497234 -0.2110811417836687
P 2.3078432307128147 8.67946205552291 1.188332970190689 0.18289336649554305 0.7514041275548543 -1.3081073544562762
P 8.611387479320655 6.546455573834597 2.0242792982603954 -0.8413174048772349 0.1393401644949407 -0.1218584627704095
P 0.34053438873229164 1.654544499209768 7.278975698905768 -0.4350764205258443 -1.5794476981413186 -1.0103314422875245
P 7.676666184976569 7.272906164493626 6.793697904959356 -0.06849804487139817 -0.7587533688310738 -0.19809064306127175
P 5.025359149626168 1.0840323978059736 5.9110795583376765 -0.448696325302124 1.852871663828267 0.620956380453537
P 4.243559677334462 8.071246255109905 8.49704094104779 -0.9901703939586172 -0.6116914102118434 -2.0216419606588665
P 9.018182731112317 6.1875928433830545 12.018044777133428 -0.9337051118820372 -0.6927449231507489 -1.3597587600839807
Ni 5.409023525511636 2.8263108613276744 12.505836151013787 -0.3646739595428816 1.1784918734482672 0.9768705915259177
Ni 4.792834441630163 8.580097678887357 10.372765623160243 0.35371231832505534 0.6076882025897212 1.7336632370861949
Ni 8.713471497465243 5.302511968118552 7.6745777230669 0.1635915808431376 0.4955713925871078 -1.1537676312287095
Ni 7.596200068110281 4.53435711363668 9.676306273729343 -1.4346951043815548 1.2733694367544586 -1.5096579310416904
Ni 3.87989812551715 2.0699256499633996 10.28783112601256 1.6428701282620224 0.25078643079309065 -0.8895101625323777
Ni 2.5132921903065863 3.0442441821147974 3.7619789250708107 -0.9534005334284353 0.39154764400527403 -1.1675759978667117
Ni 7.986222650254073 7.345965203120289 13.470156055746985 -0.6342124741324947 -0.055763370913549125 1.0671489654972008
Ni 0.11317607139815936 2.3709611906494574 0.041973443357867346 1.2932582052585857 -1.040380439154105 0.8193105615888406
Ni 3.2076732880860424 6.718795450620426 0.617772602111649 0.35424633645165443 -0.579627182687447 0.022294292621826122
Ni 6.376009235846865 4.893563280046698 11.8195508598015 0.04980715333011422 0.3101848273560658 0.370737135017826
Ni 6.979361240523578 2.4330117144989365 1.426842745917157 1.2680102293250743 0.4037488140571563 -0.020623589787622545
Ni 7.711186139830153 0.4437044070699067 13.294444937336305 -0.48585390818902774 0.6436605069192721 1.2014312558532598
Ni 2.749993822121928 5.8765605316893845 4.862993766920914 0.8502982682196064 0.3462360645526682 0.05059931021410641
Ni 1.0078360252883412 3.9723566547713993 5.247523230139631 -0.6754383135515013 -0.2933844679692754 0.43395027734120106
Ni 1.0991064517673128 4.368449699532627 12.968494510170549 1.6232135303733595 -1.6985000589215007 -0.12213151392613805
Ni 5.623457512343448 8.470448787603305 13.293208567885783 -0.8545151345144315 -0.15985988171484725 -0.6418219110486366
Ni 3.3536428524924604 6.568964552194354 9.738390212969378 -0.7051137291287469 0.419326099670123 0.7467141782783526
Ni 2.0979388857117507 0.878808992098446 11.149854453589029 0.8517038903178815 1.2503099838318337 1.0244899931760936
Ni 7.655642335085908 0.2353334572131857 7.503063948992006 0.9320418652470012 0.6938656670187534 0.4267612157919296
Ni 3.8535927875082607 0.9440404754876729 0.164332249721515 -0.02426298631242273 1.1592811048477711 0.6114638675820695
Ni 2.9605664749340863 0.8397231954076799 3.186169556058804 0.7105518694251827 -1.9289120398232973 0.42410629466758576
Ni 1.8235985292577197 7.62744345827892 7.734284528551085 1.9897641381136633 -0.583062433621241 -0.3819882824516131
Ni 7.260384675088547 2.7418534617006878 4.052852474207069 0.045148571512180304 -0.2619373052035876 -1.3845022855772477
Ni 4.3150314849097775 2.988375505517937 7.38923349286215 0.5308428141948922 1.0298273462286072 -0.09557304671131926
P 8.93996287105554 1.579777562843642 2.0786071540705673 0.6344004217735848 -0.32453466831983463 0.539076257848278
P 0.6733377555776378 4.686118679072577 9.278897033862378 0.991757535940079 1.1919899079347018 0.8315685530205873
P 1.044704339533686 8.51361033373645 10.771886473587843 -0.8691066591753612 -2.122075420786281 -0.532981714914766
P 2.1077685797665895 5.216003234793624 6.715963496270915 -0.10660127950102286 0.060631240528811706 1.7848549294686615
P 5.2492886766072715 0.9533596566312594 11.708750065748601 -0.8658382728367346 -1.657211741695675 0.031004933021946606
P 7.606354634017736 2.6445497008160075 12.76964787482721 -1.8222079161958231 0.3577808319674741 -1.8221145851510683
P 5.4916430786581145 3.934458032650618 0.8648571383365683 -0.8007865346427241 1.1419477557756463 -1.4981188200538393
P 8.064126920511168 4.229163213237148 5.406633396881682 -0.09816703269074062 -0.41785774265471254 0.2626132482246897
