# total energy = -340894.5959869652 ev
CRYSTAL
PRIMVEC
9.03842907418125 0.00000000000000 0.00000000000000

0.00000000000000 9.03842907418125 0.00000000000000

0.00000000000000 0.00000000000000 13.22865456848114

PRIMCOORD
 96 1
Ni 6.3119780425007885 1.9832211889235403 11.367793377326233 -0.25827528297096813 0.018706318160251655 1.1084552804451555
Ni 4.566151198362281 0.5844293558337195 5.9413066350672805 -0.015779631431759922 -0.7898925134380397 -0.023157154842753668
Ni 2.657759165367745 1.7720563658809845 4.81168464870524 0.009423350196428933 -0.797237126728569 0.2757922088088089
Ni 3.5193022434149324 4.281467791634918 4.827890552386929 -0.9983909820961966 0.8899745037633059 -0.056787698413005426
Ni 5.057453098209228 4.625976561702549 2.670375908786189 -0.9966112644879547 -0.41666037991250177 -0.38254364073445085
Ni 7.201775250447005 5.76911190366665 2.589191833237221 0.7839031286238242 1.4718660570048974 -0.06927374669515811
Ni 4.955409231747281 4.497540481771259 11.501455477061624 0.24587305265187331 -0.09963333282362195 0.009137957745526198
Ni 5.604241915346687 7.892934898319334 12.419074777987749 -0.20235507476458053 -0.2248054333482967 0.41351566363593295
Ni 1.848548592795728 6.4790443691334385 0.2440077634821286 1.00904666203783 0.017368316075118476 0.1559996274284926
Ni 2.6937592291514414 1.5671642127520324 0.3305904928342606 -0.07471111566064553 -0.015649533611798855 0.18314944837040717
Ni 0.6435641831777348 -0.06524661321660759 4.719269420944968 0.538810405781401 0.7305861623682386 0.32909066312163326
Ni 8.546395257705145 2.315889616647048 1.4673754343930316 1.3214045857858148 0.3494214042591853 -0.30823156028443693
Ni 6.916549537963422 0.836354783356651 4.837348364775395 -0.3925231205446659 -0.4551955598732225 -0.45679041516416813
Ni 1.1000401112031999 7.364729091761658 2.4526058016328807 -0.014681256161258587 0.0682429914377986 0.26027534412013237
Ni 7.694939066723638 3.8267986456205905 3.8236107916169475 0.09568051882346103 -0.870837525823539 -0.10653520214977781
Ni 7.5119018355703275 3.7338655158631293 12.691306844552315 0.6488636483867665 -0.07118998988126449 0.26865585487434374
Ni 7.6467190465664645 9.059308041937435 6.969913328218337 1.2503153831484723 -0.26865122688865345 1.0772094350569963
Ni 6.818455465092607 0.6383734132477883 0.5675265892552885 0.04655805026519724 -0.09658529002591754 -1.1509828693947208
Ni 1.8073243168937847 6.254349017473208 9.134901848982707 0.30742603366400606 0.829912762584719 -0.33917864348525456
Ni 0.02361108878286474 4.751890919867418 1.2770848637502865 0.27817587854963705 0.35611372867769636 0.22115498107990297
Ni 6.257277468556794 2.131189314507998 6.930518430400706 0.33916938751387393 0.0054592233423583405 1.1809778730949145
Ni 3.402995735564416 4.1817558399247154 0.3695280461308121 -0.6078751217895466 0.8156997043091305 -0.08298312586145064
Ni 5.913103120372164 5.429836384146535 4.699599087323965 0.5329809435838175 0.37112742847770924 1.1532626665678332
Ni 5.446313440706334 3.095146834617215 9.382581926277368 -0.5048268497471047 -0.4067441492400543 -0.47068517086838935
P 0.3121846354681749 5.484374266363663 12.350179350874711 -0.2724148076961438 -0.6729517996842217 0.6503826561344541
P 4.01597297024845 6.093699975622488 12.604553288886974 -0.4351003317852442 0.8346528483728657 0.33099482212288156
P 2.5825232801215763 8.61036022165122 1.3660971228902814 -0.15005729380212868 -0.2603761313640548 -0.018811733389864378
P 6.4760888027620425 7.749151565487035 5.791491958382896 -0.45868814640751326 0.1672021810125314 0.5318008072327873
P 4.746467862305225 0.9524335227895552 12.504955221385575 -0.10986118119921726 -0.2416651852181128 0.2647629475778408
P 3.805052184796194 6.082293477883341 8.211317184738169 1.1737849548909012 0.20820819111124783 -0.34133939858199924
P 4.857749003481442 1.2887263606504624 3.7793604495953 -0.6458641994388102 -1.1356714358486313 0.08938465851242025
P 0.32332901875848313 5.509148600993619 3.394737322740122 -0.01895905760100606 0.6378798956817531 -0.3851810783572979
Ni 1.6607029172706052 1.1353261390745408 2.6649917164698573 -1.0558055154599235 0.017606914448485805 -0.5901710196415643
Ni 1.8391757416424028 6.781614827386771 4.759233739806629 0.9743239138446638 -0.28053589414138136 -0.43437759468660675
Ni 6.031253467793827 5.683960861510936 9.408999447348668 -0.5019353871319227 0.27260738332292406 -0.4448898070718402
Ni 8.569163061037088 2.1151461025531746 10.548503148431953 0.0720399965863856 1.942075830898765 -0.25130733629356716
Ni 2.1259651023897512 5.46523087316912 6.746772586392603 0.730049316028162 -0.06346768153634232 1.0950878579993142
Ni 0.20241923888059143 0.19890509758028987 9.462218622735257 0.4819717995258022 -1.1723921883084325 -1.031208799957166
Ni 1.455105766658568 0.9268457295252708 11.434505119927561 0.5599610717170872 0.945173774643269 -0.6384239411106811
Ni 4.223712228597554 7.027957217149424 1.7088117647477532 -0.03891416056669427 0.2777200219591411 -0.747662401124235
Ni 5.538921187010063 7.84832121144102 7.816984073317883 0.9060117597318267 -0.1567997547322848 1.0829306538114898
Ni 5.462193960934291 3.0449654753083815 4.854162554746978 -0.3851653946280141 -0.5046347883409568 -0.5430635246308002
Ni 0.6042180928781647 7.537037707371096 6.801168565270188 -0.17944680270783936 -0.5756460865525118 0.7490572245892326
Ni 5.0828962766051875 4.501246237772092 7.306437549868564 0.08613221301339359 0.12374848070427076 -0.8348899040843364
Ni 8.133953653241766 6.9836598752955705 9.172498099375543 -0.03456668223127595 0.6202038185582287 -0.320318573355958
Ni 4.461657917568077 0.4225492799163808 10.37789285368241 0.07693460567452556 -0.7474443715761578 0.0968827666616783
Ni 8.244764796095925 7.131799731036165 4.649342709052188 0.04124872223714186 -0.031682932925577695 -0.509925861536567
Ni 7.16552211064374 6.0158339074586555 6.885752897910651 0.3927023264350075 -0.0399585426708086 0.5175689799041215
Ni 2.62068352850088 5.407827808873299 2.3912384822590957 -1.205088907210505 -1.1570239333824783 1.1322382417973662
Ni 2.4201298214216833 5.091012786089936 11.292085686072154 -0.4818460725812153 -0.1766075334868313 0.18726552742130975
Ni 1.068730992210801 3.352886683689745 3.6779104079364138 0.2258881248895142 0.40806261094116175 0.06258296493854383
Ni 3.558059028126077 2.7232877775775863 2.658549124085971 -0.005671853573796683 0.49546366336465 -0.35191383166373585
Ni 1.0939482098750022 3.3534289894459643 8.041871039678643 -0.8904522147306728 -0.357102832063843 -0.1330260493514548
Ni 3.3731869958308907 2.5402324695657352 6.98429346918742 0.8391023995037872 0.6657876778356147 -0.0807866324307641
Ni 4.308293849709236 6.902413434584637 5.9045572854970745 -0.43529496429455355 0.38806225655983484 1.0592862749196723
Ni 0.6785031353650953 7.134285299085503 11.100746657634053 0.5689319077571299 1.0018740555487908 0.07421746385367864
P 0.11958113077515423 5.42717908594106 7.902930497249384 0.11070090349169322 1.5145273433188498 -0.332539283791866
P 8.293328276565372 1.7924832160319142 8.129259996921688 0.653445611330494 -0.2867582209020094 0.07322296115089325
P 1.7737194368667237 3.1028566147848005 10.199200395479343 -0.9962639084508648 -0.04931221597156669 1.2734661102333231
P 4.058679548550726 6.347426762098995 3.8852555907693316 -0.8831672510334854 -1.103265251603784 -1.4073439660621119
P 6.94111598872016 4.113560891080128 10.670868115422365 0.30363725604553515 -0.12586347016474453 -1.068309047243573
P 6.215953769932877 7.801782339128127 10.27607223642344 0.8673099722862546 -0.09674366998065274 -0.29933142958132963
P 2.59745476527615 8.489091616131297 6.038127193253907 -1.5206815358457035 0.6677244898470113 -1.5256561062421596
P 6.737398831396351 3.848029915976579 1.563203573045777 0.719192061598684 -0.18277175331601425 -0.23548245344616864
Ni 5.081115706038934 2.6622241494272845 0.4494060686502185 1.093642383802039 0.7987715610952244 0.4032626184493571
Ni 1.3321560132943644 0.8625201322513091 7.252795375992124 -0.6182058142915934 0.3236067571889265 -0.8195620154780142
Ni 6.61874233193555 0.8234822523898571 9.312800733095841 0.9485231507314763 -0.9017614690959049 -0.4262192272455305
Ni 2.745178853270309 1.5313810712708238 9.070954961895172 -0.4254869770651963 -0.420957721736275 0.7515375678089251
Ni 6.583130920610478 1.8861755738480825 2.5753151327784938 -1.005165838926185 0.21343755783098725 0.8943016703837502
Ni 4.041253456917544 6.9686560827068345 10.413027939784936 0.4036346570767952 -0.6891888303683744 -0.475085356818614
Ni 8.303523624782295 7.0961612044232805 0.6954221711162129 -0.7215713604641381 -0.20772765193040352 -0.535215232230975
Ni 7.525658324919759 3.9227867644714207 8.222297068615758 0.16616834043137835 -0.4343323432709681 0.27394615673900563
Ni 3.165294084184192 8.363104950532264 12.322968255713478 -0.2622376100528258 -0.38603776993063843 0.522854653783093
Ni 0.10110658134661403 4.68112905711006 10.0155603010937 -0.3844519135007573 -0.28138538662587026 1.3632197220493878
Ni 8.642735875297518 2.4233475022419184 5.85739747309331 0.8349829780187747 -0.10112200155400648 0.21226950566481506
Ni 3.47782489149342 2.5798930972039127 11.447799745541278 0.3728346409768031 0.18107482522956558 -0.14264274650561237
Ni 1.1091779631954963 3.353691103894804 12.640389757100877 -0.6798135598010614 -0.24583757142824758 -0.9449845414505985
Ni 3.225354446685488 8.311947440862237 8.080565459227822 -0.4227916896212202 -0.20190076083598132 0.8501905389971486
Ni 6.022603690982127 7.667371857449153 3.765033635358911 -1.3675679717157545 0.844072599024869 -1.3007213464048502
Ni 3.288813258592426 8.501076573343745 3.5413370301330525 0.428507509059075 0.17592284871498087 0.961725508354363
Ni 3.2690733290660403 4.1020459321897365 8.99018032719215 0.4552117578231386 0.31244302726262324 0.2670604853627659
Ni 7.453567813059663 6.318820133458423 11.668573322741116 -0.7823015884646591 -1.2600634636741717 -0.6154087111624305
Ni 0.7709481899419588 8.841979010132517 0.1584689727107189 0.06415185208756048 -0.12929537866442894 0.9230460895062942
Ni 4.585384975849529 0.5798730836385497 1.5995163664822267 -0.03877634943724935 -1.0219062916093176 0.5768935858063677
Ni 5.96307659580778 5.6909927594832475 0.5022646107089214 -0.381106394067292 -0.026171516189045247 -0.9316515717871181
Ni 7.985931297081687 -0.3272327163603357 11.695956148058485 -0.7003083373203036 0.12863743336545588 -0.9824457716208499
Ni 0.09612007991817684 5.082164163834291 5.508200469763162 -0.3904245861444244 -0.9293064685937092 0.6544187738770406
Ni 8.31624069476564 8.818280248585731 2.44698389862674 -1.0042944920648251 0.38319412983425616 0.5305571646336734
P 8.651620651270246 1.5774228299738493 3.698573161091299 -0.10022597210229835 0.2608155328943185 -0.36033342318599876
P 1.6437649008180197 3.240222662835169 1.5084632300129928 1.5351128807796852 -0.4260130247719954 0.46822076848829686
P 4.763758377499353 1.0829574798822894 8.22421502330692 -0.5059864172728448 0.40228945590281034 -0.5523212957836423
P 8.572642856306164 1.487002383553538 12.656740275650892 -0.12292187103791735 0.5936306960553906 -0.16234845246465587
P 6.256671893795682 7.782747407084826 1.5348680972833144 1.6203061269185772 -0.31097801268132247 -0.40936924556772725
P 1.6906381950139149 3.5168709059412153 5.923857947360922 0.7545611851265972 -1.04011844374197 -0.962817455866961
P 7.0649605465821255 3.982169244777442 5.965011723514556 -0.5677322310220738 0.6885591672041754 0.3397908231479568
P 2.2986533320285423 8.347965581504473 10.172888624030506 -0.6159902946975133 0.5263467260967517 -0.30686990405021985
