# total energy = -381171.49706620956 ev
CRYSTAL
PRIMVEC
9.27150126025087 0.00000000000000 0.00000000000000

0.00000000000000 9.27150126025087 0.00000000000000

0.00000000000000 0.00000000000000 13.56977927208326

PRIMCOORD
 96 1
Ni 7.090927514100929 8.302258409324182 12.744478445175455 -1.3606882138767857 -0.2815540509932506 -2.097928134116116
Ni -0.12839916496443027 6.530557985300589 6.752688318173025 1.0608770164455599 -1.2097202353349297 0.43338026377034394
Ni 0.9531474030243263 0.81796335352687 5.4819057762004935 1.4385787557066771 -0.802419956481089 0.26975423014484506
Ni 8.424484608830715 1.1437231089225892 8.70746936657466 0.4093702740089918 0.20166807599988495 0.43844610832902553
Ni 8.607096095251158 8.610137147624528 0.6521814959727148 2.1097485237898117 -0.12729531751526463 1.2904806425134485
Ni 7.8431336729543455 1.2548420500654098 13.113902335182114 0.9730519891107758 0.29768926599221635 0.36494058294070697
Ni 5.115458038059237 0.00041258180065544643 3.2191180427828034 -0.4809721546166942 -0.019771783310288532 -0.12680192281861388
Ni 4.4432463910272855 5.743528068171624 10.688562008056746 -1.1780871818106808 0.17831294621371227 0.35109904907192435
Ni 2.488990109590079 7.16165052478407 11.555521536499208 -0.1438521934326813 0.30606463454010513 0.4110075525020986
Ni 1.3317862380123662 1.5355738330327418 10.020888760832005 0.94649532166817 0.7867696515383419 1.0349726378749724
Ni 1.6701404005543856 0.49230280319333086 8.03450301935005 0.2803410045217559 -2.4190293512743692 0.4649744936368573
Ni 3.7157858687120573 9.208621817604522 11.679698459845245 1.4830547266318652 0.5130255835078131 -0.43104441654831566
Ni 1.3542139992659734 2.40160621136137 12.370414168849065 -0.448846220616427 0.31219465869724294 -0.20554812778058149
Ni 5.002735127219486 0.8882886168111763 5.61570373627777 -0.8742797187358684 0.4274695547128638 -0.4819229485657378
Ni 3.36463703459915 8.227474481142455 9.668155427174558 0.030875606532933923 -0.8056343496533286 -0.8211082769192116
Ni 0.9143925282661293 8.433941539991807 9.949864426361868 0.8411914208223319 -0.2981592636500994 0.07347210104722185
Ni 0.4218894606482106 4.247339571974486 11.483018397597508 -2.8386395578438144 -0.2189993681894809 -0.22624987910430713
Ni 5.277004673893405 2.5198363938772856 7.758547913769182 0.6595995467470318 1.4521991747035894 -0.66826185040772
Ni 5.296548998292994 0.01905108053902947 0.7213162985108601 -0.5133374583212772 1.036945188220311 -0.7111586497712462
Ni 8.923393356585104 3.4230104057660418 0.2767802691821778 0.4304047260817878 0.22276243477633892 0.42171156918316405
Ni 2.7429828832744825 1.9190894776195406 4.290967547730986 0.7929516119793375 0.8598481166915707 -0.7206953856170878
Ni 3.0506205625452325 1.4306575261514602 6.5699581565380125 0.5046653844685761 0.36023263594207633 0.8461114838317686
Ni 0.8690131659445992 2.4137704208548514 7.283497519894046 0.36604949973416956 0.3644245625362369 -1.9906563109106294
Ni 3.19225201393428 5.893958174140942 5.441834348280655 -0.5449376017250614 0.04057509320888496 -0.0003334720800187805
P 2.8491601143105765 1.2586248225298466 2.083883920302464 -0.04820227073683957 0.1932610828831123 0.5270450377153568
Ni 4.4437655950910315 4.499932348987002 12.638811146701968 -0.970939313643147 -0.3448996051294318 -0.9893047035242123
P 7.410080397785479 3.1063330128854254 8.672554747587958 -1.344679497153355 -1.0564446917058194 1.2848059607261744
Ni 0.9483169509312591 2.87730839176653 2.9347360698173133 -0.029304148280755983 0.17128457861202115 0.1190896417760207
P 6.38417025382758 3.8389948473392534 1.4510844974594168 -0.0846276034434091 -3.4943757649806977 -0.8175542410193662
P -0.10594173490718033 5.926046839580683 9.18629233426298 1.1639368584522276 -0.5212464287557088 0.040288672316717705
P 8.439754771205536 1.1031232054378657 4.520432565153952 -1.0765635739428814 0.8298991357379643 -1.7064121146797255
Ni 4.076966467056632 1.2407400968340183 9.2157386218783 -1.285182884449619 0.018141703906033275 0.3326925215402786
Ni 1.609384253594944 7.055408393240008 3.4167753212505185 1.1440678874424426 0.32776397389040973 -0.53364557375101
Ni 1.7713202924769225 4.723421883926318 7.564133806399653 -0.8435902600718118 -0.30141453736260343 -1.0446482132915236
Ni 7.44343925888117 5.675994453880068 5.226929296245314 -0.9667792687281866 -0.47346093384131366 -1.8689158617753232
Ni 8.184195113828755 7.853962786283908 8.914205298957022 -1.4995912908343076 -0.6624560423592204 0.7784467334949432
Ni 8.278393565394135 2.3542844695513607 10.939548961072106 0.7174874202027515 -1.0763522292630237 -0.8661390919066051
Ni 6.175033002650392 2.1798411756337823 3.756196633573559 0.008121857776186011 0.30450834579657876 1.3706998324765167
Ni 5.349785957829254 4.799207134230984 3.974724061103643 -0.10604463566660446 -0.18531534567347438 0.31458115665154857
Ni 3.9113403707216006 8.103635040437853 7.394050899467429 1.023770855621882 0.48372554899211534 -0.8615658707136258
Ni 1.2507440465622706 7.13337244631218 0.3148972646620581 0.029276894587246353 -0.7801583168694113 -0.05609401478009049
Ni 5.063556174686895 7.488127894367895 5.130936809209669 -0.3979440344499211 0.24129751746604894 -0.8869678557264982
Ni 7.523405956199221 4.8061236740801725 10.399267993788172 0.5465555969444587 0.3050971284205133 0.24054444135010827
Ni 4.984692786004306 5.440044021410843 1.056446760107084 0.31433407363774896 -0.2528749378910032 0.7601823879681165
Ni 1.7923387855575041 7.165627998772411 7.717377812964451 0.03525573787850057 0.7971535658758271 1.4299354782093825
Ni 0.2854797187002678 3.501558563409928 9.069932213526666 -0.6910533943809389 1.7249469402591195 1.7782983592970665
Ni 7.849225049202225 4.81195544829618 7.455765719644573 -0.1852577529626616 -0.5510928226931799 0.5609643161706209
Ni 0.1015998909241029 6.832419519362162 11.715712678866954 -0.5135482887805027 0.043539318043531464 -0.25385632796766605
Ni 2.8307098270453106 8.347002673817737 1.5221088319295528 0.3932965083755807 1.170213435489559 0.41483155423387913
Ni 7.802274167437749 2.3333586914821622 6.456703988683035 -0.20434613705268032 -1.6314593153219195 1.3856207154524072
Ni 4.2690719706427185 7.330020985456045 13.171723124881161 0.389872056075064 -0.5797320836964274 0.2042579482142482
Ni 2.958730714763297 1.082484843903955 13.442426852217281 1.7378212251186265 0.5457546983097181 1.0044006786253863
Ni 4.401802780938974 2.95915720381566 2.389054453120306 -0.29457257474010556 -0.39345565966126433 0.46775102794072987
Ni 0.24824815157909758 5.594841004416312 4.4396657372876644 1.5790802874995709 -2.0032675719167368 -0.09556507629151928
Ni 0.684587246751387 5.167053941894014 1.9355250676874485 0.5017325270924972 -0.7206110534333976 -0.3774122330451565
Ni 5.023197330231768 2.64089438424039 0.1474150137991341 -0.35919905247123946 -1.3941500930796569 0.3083680858623012
P 8.539757182483505 9.087137338189054 11.186939498795908 -0.5385882624682661 0.39758279445576045 -0.22051940437843312
Ni 3.946479360035851 3.5282697581894418 5.8492398698505745 0.1753546349163367 0.22834172863632932 -0.5641601974000994
P 6.416555607303748 3.776495658165807 5.7979870115579155 -1.4004739784151559 -0.07323838776986097 -1.0898399793368134
Ni 6.928694787182525 3.3778489237212623 12.485024757320579 -0.5822070275994813 1.5660753905994707 0.5071696389476684
P 1.7043151537502501 3.898045038089243 5.0278071205977435 0.197723232419524 -0.12277634659898856 -0.05554842668926563
P 5.9810639273355015 7.732339234351366 8.337720046878045 -1.6974960431370187 -0.4534071005142321 1.827160889325724
P 6.563647972863269 7.163634626027671 3.4522063628506263 -0.5013584315825301 0.5576023416769236 0.6574544753795709
Ni 6.908594172714637 9.058646015190982 5.197944729386684 -0.025773766529994323 1.4148112209734343 -1.3196971161764046
Ni 5.8115067145178205 5.445727451608637 8.918072442081819 0.8004193811112925 0.3079687935413535 -0.9508831663232205
Ni 7.2735297290202325 5.266203375067257 2.5100697945781745 0.8581720145407284 -0.16100453684225174 0.9491700402868557
Ni 5.827972900539485 2.8637349141000232 10.380446846477373 -0.009516424130867483 -0.16919221485936667 -0.36626547239971763
Ni 7.016152857420341 7.350232857937592 6.568519219561344 -0.605696368970673 0.289008964609399 1.9082871644840944
Ni 4.268803097109707 6.918625936946304 2.7429133470159455 0.0022414877360090427 -0.029491581701213725 0.6775281062009945
Ni 2.3492222299298358 3.5035797506580826 0.8513314861237004 0.17765294403221019 -1.2366985636959862 0.19208403185587564
Ni 3.5113029111063074 2.6083328722425945 11.337468809827405 -0.19636671839162956 -0.12917119438173882 -0.3338667443540379
Ni 2.0009382896686705 5.257043131942592 10.264682883264252 -0.024797775769970196 0.13996057168775894 -2.2742600453440573
Ni 6.067965707505019 7.4671372157907285 10.722093319073611 -0.06503322625124928 -1.5520271400365206 -0.2995250336493745
Ni 8.358332448208769 3.479993051762185 4.556596055343987 0.255481779386231 -0.10621252870303644 -1.161168037457839
Ni 6.460567423207375 7.3668473879774705 1.2515172897572069 -0.03935510475885481 -0.6232544324590944 0.5017474394908327
Ni 0.5138479175385696 9.313871898526783 3.0641105967014948 0.6888255334916847 0.4184077016209117 -0.4671915558928341
Ni 5.400797757092316 5.5408623247889865 6.507645324537446 -0.7399539767363837 -0.3482371541430971 0.82058505742589
Ni 8.699254816566103 6.9686827715921185 2.442695650106197 0.055344538208575655 2.1295627303022613 0.15355450832210973
Ni 6.322282983729263 0.33571178471759683 10.02079326437028 0.3599822104941672 1.0415343502528902 0.8769266694404124
Ni 8.88179213097744 8.831271721274708 6.992398344353839 0.4087830340469541 1.46256946219432 -0.44165793039810386
Ni 8.815296924813374 7.762239825522464 4.888241359662314 0.9034080035603925 0.7778746630415571 -1.6929331063566846
Ni 0.9181409961763539 1.3715146203900872 0.9041975856144274 -1.1689086006352063 -0.3585197670160277 0.9067123853432771
Ni 7.375720214566846 -0.035574749867751644 2.585341403719777 0.030199406401515735 -0.6807306722986921 0.8446217866601196
Ni 6.373220610983219 0.44275033820944104 7.580974561067305 0.05733611471730771 -0.5865267380207576 -0.3759960694239202
Ni 8.030705412483792 5.813129227217027 -0.007531240374661104 -0.14910495719118835 0.04067202379806544 0.003183282823988066
Ni 3.598028532754196 5.742906877595357 8.36274290130027 0.9045973958828033 0.47910270550812323 0.09261422119331146
Ni 7.958675120140147 2.1391949146433675 2.268853149462382 0.6278011712895123 1.076480270200456 -1.011074491101136
Ni 2.9449903500763 4.705249741695201 3.154770116282375 -0.4071275007214021 0.05806142291910645 0.7102165975729511
P 6.1439085733290355 5.651295174847571 12.297123879500722 1.0069964643770206 1.2733894913591166 -0.566290870589857
Ni 2.9928034814466407 8.824828027983573 4.194351088668733 0.1382243057229426 0.4170193059138173 -0.08259926015947065
P 2.797795998004258 5.566841070978572 1.1391300072586632 -0.3983551538454107 1.6457387080590689 -0.2462414917348856
Ni 2.0959433618330827 4.988670259992647 12.556767633128935 1.260122084826249 0.8042541814763503 1.6611666125783648
P 2.725682262150369 3.0930562232553447 8.732302155223548 0.021851805767768816 -0.7444091842942598 0.42331002401853546
P 5.872021802447666 1.1999362203242516 12.258395892095825 -1.152124696308648 -0.16617373974801705 -0.7388473739357663
P 1.9640191721358617 7.7492040949219785 5.680255635803242 -0.8940358183168732 -0.10570756404215988 -0.060579047134637604
Ni 1.235770572223876 9.283275944770313 12.331129891375868 -0.9610431375753578 -0.7906576737388383 -0.2777120515393411
