# total energy = -381163.3202363819 ev
CRYSTAL
PRIMVEC
9.28592865414194 0.00000000000000 0.00000000000000
0.00000000000000 9.28592865414194 0.00000000000000
0.00000000000000 0.00000000000000 13.59089522139405
PRIMCOORD
 96 1
Ni 6.608173245716387 8.564541974514482 12.923650306778214 -0.33449255086349494 0.01545875775723144 -1.3729672883544548
Ni 0.790701465445494 4.489245050396208 2.144847079300326 -1.5900565840054164 -1.0438398584576152 0.7594102856887825
Ni 2.0094099531082823 8.861598831251687 1.861273390927686 0.47063837679085396 -0.6800806974195192 1.1019776431406119
Ni 7.867790891939842 5.10727003008188 5.459707236550095 -0.41835936488147946 -1.89833750947055 -0.5661319764144895
Ni 3.9962922433705357 6.589462099535535 6.50454785381038 -1.2154522527227003 0.2602799721058227 -0.18141009708179723
Ni 7.846674690244925 3.4683314854258493 12.009105197029903 0.1607137450747103 0.5397591428479156 0.09149244888404243
Ni 7.0323916090543825 4.144690668738377 7.526719662109525 2.179924470584265 -0.5824050025429002 1.0997161007999448
Ni 1.2451501694245632 6.711117050461265 1.5940485084935114 -0.02978597301318096 -0.022910586049586353 -0.6046823258838618
Ni 3.0224954802471475 3.318410167763387 6.405878362011927 -0.5558987287222555 0.6738408871573943 -2.0051696740354563
Ni 3.869028591554862 3.2742555771480255 2.830602693789234 -0.6345408040061911 -0.5320864567940062 0.41420343373157703
Ni 1.3949043403717625 0.8085592347856415 11.428148715825296 0.03702028597809108 0.08710768955278546 2.400666018275833
Ni 5.816297110299738 0.8045514279907751 9.413299065728058 0.34274296379774516 -1.567691843156971 -1.7912294655364378
Ni 3.3976841404412714 0.588236649247183 10.793304133619833 1.3127073151221327 -0.5635163931685134 -2.7802747447516762
Ni 0.7707042181499776 3.169008862103966 12.17586561766227 1.242710317107705 0.31535480159277945 -0.41929241821871016
Ni 1.266777097193896 8.992261132944378 3.870320264226702 -0.2656497210581683 -0.7986484052537988 2.0722980922528373
Ni 4.379568947397673 6.105423783990566 8.9664026075003 -0.14162099010931736 -0.5433052083279611 -0.21655322064183352
Ni 8.974385720339841 1.7323642725595325 10.307198770362776 -1.7916585826540565 -0.9451480636116562 0.0013395447470299512
Ni 0.14397646615626797 8.421009375746523 10.720593455294617 -2.1122664051156588 0.47950585448381283 0.5224651316541582
Ni 2.6491918635640475 8.570419967334571 8.655538503489492 0.9283926985301881 0.8015956608075807 0.16596008107531418
Ni 8.729580783979637 6.01472811910303 7.472165760026205 1.193075427689397 -0.3702134013038721 -0.18963094232969277
Ni 4.498512407164689 2.6489782872056558 0.8301833767763864 -2.1602755860050857 -0.524730016428935 0.09979865475689265
Ni 1.6942826792654007 3.646742032112061 4.143537356403062 1.161407921382787 0.817743731322353 0.5108905394426814
Ni 8.556258926180327 0.9424196102970357 12.621619906669068 0.19378353104548562 0.4789024165718591 0.2160649681515053
Ni 5.1325648996583775 6.772831332107889 11.69439486138232 -1.6147304326030125 1.7260998229166402 0.7995140956882038
P 1.7178039364743827 8.217489678056328 12.769569821684284 -0.8147070013785583 0.37717389178210525 -0.6760787753489776
Ni 0.9941515186709954 7.29990992683313 6.232498931455137 -0.5861865810725195 -2.5417064532913325 -1.9626094320757426
P 2.0978677091970166 2.313459114100664 1.917036320918076 1.6017448189766221 0.02997083533047742 1.1155309563450144
Ni 0.3648004918405161 5.868279738746592 11.593985186559403 -1.7054618349513142 -1.3847334277514474 -1.0411833946713747
P 3.4784438616992728 6.215712758278399 1.451235569194048 0.27417884157510203 -0.8263659257737251 -0.9363790591697746
P 5.711152540470562 2.5728893880463977 8.109578830089546 0.37451639955460014 -0.931419401171654 -1.6018157814238736
P 4.319228983187659 7.924509343985821 10.147940451467138 -1.6489860113517727 1.4798323630398256 -0.5921214584997158
Ni 6.108813147938959 0.5579478072557664 1.0638637706429621 0.017337977057815302 1.727789294803921 1.204708898163267
Ni 5.55737756242842 5.033586186436688 2.1879300737522773 -1.964727249749694 -0.2269070530723318 0.09037144790572178
Ni 2.512577281622261 4.177887863575374 0.6971494489126824 -0.18311576691899434 -0.3017948035201577 0.04726073275917667
Ni 3.465601422409884 1.467938169013154 7.712996318934596 -1.1610150568197426 -0.4747485423044856 1.9726092236009316
Ni 4.410518947507242 0.6816828061936612 2.7311039685645024 1.8576217769187426 -1.3793019723232312 -1.765642875316585
Ni 8.901194030911812 5.2020886472792425 0.15781899995864843 -0.891098075844788 -0.31541727939959874 0.4150948351975947
Ni 4.390498485390161 3.5675237750059314 9.319467542743613 0.888472979517115 -0.46549334225480477 0.862983834107075
Ni 0.14236628613256583 1.6557553613972336 2.868493925546538 1.2010052240594347 -1.4606534761185297 0.5310140496654339
Ni 7.217311591707233 2.3234229155160757 5.655796334153978 0.5946737926079243 1.7851932866446867 0.11709240884033383
Ni 7.343312357229806 6.648539177452449 11.684187768636912 -1.3159924136313077 -1.782410581693227 -2.1008170256281367
Ni 6.207921864161409 8.177105174463016 2.8360934633856294 -1.2636180137946496 -0.5128049828565749 -0.8089567291583423
Ni 8.26922158643029 8.615048140309845 3.4404263413126586 1.7881055751954753 -0.5321206524660513 1.2060139901279359
Ni 4.283301725334697 5.124904008542147 13.171411882812853 2.7504468627569665 -0.0020134308856029843 3.8138147639451803
Ni 5.162456303904612 4.533000346080662 6.485588773335221 -1.116578166662606 -0.19729617218443443 -1.1227614126551824
Ni 7.31929894580366 3.5006000874002723 1.820187799723129 0.6570492695213522 -0.7335573291814205 -0.23135711842388543
Ni 6.291133070576604 6.506900908124141 0.7601331170024429 1.328899351500963 1.9329471291246196 -1.0116851281019414
Ni 3.6806821012391158 4.722303287044859 11.242742150512457 -1.566150209701464 0.43602335782014584 -2.9194881538607653
Ni 2.3965124597292213 -0.3612189091695708 6.208470662543191 1.879306460981028 1.6636078750300058 0.005655398513564453
Ni 3.7193208502507913 7.464428724295244 3.1893617604658475 -0.1488928411803823 0.1194655370582007 -0.508386284963589
Ni 8.710600345868638 7.542625529252543 12.886601308747265 3.4181412706969905 2.3356304780317387 3.8824529339388683
Ni 6.061157762231696 0.4565946820844764 5.113791537755732 -0.6460351777990357 -3.8111945527135136 -0.2315232116881045
Ni 2.531474146375628 4.232897704754217 8.440829261805288 -1.3177646750403822 0.3750941264349411 -0.46642845247456444
Ni 0.45018831992558306 2.179398162530954 0.7462636540070479 -1.3470189439198093 1.2661934878313097 -2.0149303529666462
Ni 1.9838457916016388 6.421860373769676 8.235647382891088 -0.9703456459232063 -0.11401428413564235 -0.5437926894873409
Ni 1.9197543122268284 7.164641804542074 10.492796625805305 2.7345327626298714 -0.32592280691661285 0.14165004357503994
P 7.168625467922514 0.4971054743071 11.131296149517858 -0.6645237235215264 0.11348103733999167 -0.6335367882217089
Ni 1.9425326951457516 2.4270167352647554 9.923229336060158 1.0417631784342445 0.17807100540623527 -0.17262515180031562
P 0.930264329725951 2.3273972929678894 7.942980913208129 1.1424419218032453 -1.15795492983718 0.035809296389125424
Ni 8.706988119633229 3.2351153879905605 4.112631928750897 -1.1083928026383363 2.0868320242029545 0.39834024144707525
P 2.0980441418409055 5.434794018640115 5.5844441871867065 0.4538791550546441 -0.2601858697301196 -0.24507909599566824
P 8.337881742688959 7.235846305244197 1.6282300117648352 -0.025450835972936816 0.37070499622830994 -0.5172293371765156
P 8.740101741112593 7.439653866721788 9.045053494367396 -0.48863352781669395 -0.02376187830628811 -0.9235795934122609
Ni 4.117352894864219 5.072327080663246 4.140384783634625 -1.6970317019060903 1.065921520848003 1.859601783463249
Ni 7.041770396966372 1.2752180063146876 3.3182987366198784 -0.263809582525636 1.6894322922922775 -1.4916882339371471
Ni 7.614693621316859 5.534766326224759 9.454438515318644 -0.5012658718687238 0.04582014365790819 0.8724979442450974
Ni 9.283560713933628 3.753325920878227 9.317224990980499 0.07509292448009647 1.712571449412902 -0.40649243824056447
Ni 5.644581718152679 6.810179337040587 4.659162686761324 -0.523056485381254 0.14726121911423026 0.3350142276949198
Ni 8.181293128273222 1.4849128465409944 7.815485113176813 -0.6170974117187631 1.964893857234545 0.5573673428479821
Ni 4.936455373011518 1.9847929563214635 6.110752049836012 -0.551826872645727 1.2760765512729764 0.18307720037157502
Ni 7.743665883999668 7.27116069180786 5.355207110167544 1.7094709561107075 2.3063345572810987 -0.2943020946875383
Ni 2.3671410674860276 0.7119280043205367 0.1639839279732727 1.1792922578623752 2.0159505667010444 -2.125166401006779
Ni 4.9433641039090634 8.741216052547681 7.362595516614005 -0.07381122955419547 -0.10685453316240952 -0.33451749056415936
Ni 2.989093994980385 1.4135876287667377 4.049733691204493 -1.5564075284924033 0.8042063589575504 2.1128595586149674
Ni 3.253956537172173 2.6932814526790287 12.139074768447115 -0.6251475357167491 -0.41623023435361867 0.7984799979967345
Ni 6.17062028887184 2.3699082742164963 13.241772292602896 2.742200306477458 0.4006220955027165 -1.3276785917199845
Ni 7.707497192002436 5.721385633816118 3.0024731609443416 0.2622589502090644 0.06510341736755239 0.37910453314591486
Ni 6.938306580218454 3.0850083517555835 9.903889532511347 0.9507026748812981 0.4237453117837412 -1.8251361455862114
Ni 5.309350408835086 2.119364633965589 11.079596741894088 -0.3557843703627357 1.3950695195701328 0.9130295858105566
Ni 2.208676695487891 6.173108917743535 12.88889864748927 0.44554003906132944 0.13097482324938087 0.5010262450540919
Ni 0.6718731511934366 6.269580430236278 3.893655802863169 0.12960365393346712 -0.021178176739511913 0.8131411995533351
Ni 0.6323930970482695 3.9280685257572734 6.591747366570328 -0.7502113927983337 0.7391291668422432 -0.6842155455234991
Ni 7.507691865762536 8.609903735851187 7.48574271626989 -1.200672009089732 -0.7696499611389197 -0.07456764810424577
Ni 4.581333604577604 0.7099807450877206 12.572040476550551 0.5806067729918968 -1.2081210091686096 2.92353969822232
Ni 0.4873673209572936 9.05382683973299 7.462869616878984 0.11175454156718818 1.2806333174057234 1.4129682542274247
Ni 6.513874640522067 6.502211514168145 7.100766687304243 -1.9357519455632666 -0.6327685425971167 0.5001088754461451
Ni 1.058196568402677 1.690791170102125 5.305042666545607 -1.6635875633150317 -0.4797511377253997 1.6060120788934085
Ni 8.371422516885108 0.23896687303320566 1.2964939259819674 0.12178441499936447 -0.8317217907689999 -0.5646530778761178
P 1.7750888301665309 4.871305297773374 10.377491392873852 -0.6066052539381876 -0.45262548515320117 -0.6040680893386307
Ni 6.235120349106182 7.606410572982705 9.358989383567595 1.260453757134055 0.2582066345165618 0.14831639985162198
P 4.005151019279485 8.705065932407702 4.925421832618422 1.7237200098305538 0.2116033328357259 -0.026924078084353632
Ni 5.947553711424477 4.777136695579814 11.230143002553062 0.8793129102844017 -1.4143810754145512 -0.40933890655042404
P 8.28325262458377 0.424762518755463 5.6344591273577675 0.7254056466085635 -0.6208594498643566 -0.030689972884689082
P 5.754053530721448 3.712040682208217 3.8533585869989375 1.7034080377460792 -1.1331029037905067 0.892969838946204
P 6.556580626271813 4.6372998964048975 13.411168988372106 0.5940168757502156 -1.2698513962988711 0.09780990646163801
Ni 4.582382914512312 8.24554246843467 0.7309214427316114 -1.7003111439883103 -1.2154270559117197 0.3516628919951944
