# total energy = -340864.89203843276 ev
CRYSTAL
PRIMVEC
9.28064009389356 0.00000000000000 0.00000000000000

0.00000000000000 9.28064009389356 0.00000000000000

0.00000000000000 0.00000000000000 13.58315487889037

PRIMCOORD
 96 1
Ni 3.2452263633202425 6.755647015460956 8.673998928404048 -0.8367770938047201 2.4814390238598425 0.60791008879254
Ni 1.8729538061146371 0.6332375585031418 7.995289017952222 0.13273988556960364 -1.7158385501999482 0.007101386931471641
Ni 3.6610454398067236 1.5444284297382294 1.2120617964539369 0.49943421797662363 -1.8527127696528993 0.462214671503533
Ni 5.7892910918311955 4.473881016081514 11.951342802671657 -0.9060238439166849 1.6867832847052049 1.48258421475335
Ni 2.1073085281196953 1.8581883078289552 5.028171882116407 0.766965215217905 0.2893498928885856 0.31992930833733935
Ni 8.472175633891636 0.42254104405927845 12.533176752183763 0.36645316293049146 -0.5289473969443922 0.3503943096954159
Ni 1.198381204987611 1.1006467848452355 0.23906928713964443 -0.4527347570375557 0.2614020015254078 0.26763152737488743
Ni 0.017302825269532338 2.053211677392328 7.044997882212164 1.4424516083985224 -0.9437812651711165 -1.035745768595571
Ni 1.681466360402204 4.458400908513622 10.685242623522534 -0.010725613947620238 0.6436713055525496 0.35583065021963883
Ni 8.337355776194524 5.197641009360719 10.100039801680005 -0.9287734789083748 -0.5626920974950052 1.985812352554767
Ni 3.4031550146888496 0.18631256083242304 3.825790721276421 -0.5909012129393695 0.4096834343740364 -1.57929883126828
Ni 3.2535418167859693 9.325651132852162 12.744300176068949 -0.27075284661268856 -0.6988821463967383 -0.7764199328729016
Ni 8.725778403316246 4.198561548989718 6.677057627633811 -0.44438304263875084 0.6621441675457564 -0.3451112069196056
Ni 2.462562147778797 8.553232743902415 10.349182295506814 1.9158063556792748 0.7022199525207198 0.6802496188972156
Ni 0.13543145187500455 6.040777875329257 2.904444973721916 0.3664112539489625 -0.816424241179981 1.6715906361251662
Ni 3.835428665946239 6.461729145751618 6.372957967748974 0.6318339465979893 -0.48500313015295826 -0.10912456014350883
Ni 5.713941575438076 7.252254063397383 8.340111198219049 -0.5864161805848224 -0.8847561927871601 -0.6112206412230119
Ni 8.246201329832507 9.262552061296942 5.610658260622532 1.169312263831528 0.5221748541072492 -1.0219718547399301
Ni 7.162760851600505 2.1740084880060553 13.034911353736055 0.5882645466474709 2.1796185093080718 2.1007465774015177
Ni 2.3258861620759417 8.743040393769652 1.3718038848841547 1.0363453498527828 0.1337521288842019 0.8146928603111712
Ni 7.269516053850789 3.147770362378728 10.986816093191555 1.0111410826730134 -1.4198485262870257 -1.3545916140607444
Ni 5.971961929516352 8.813294838787009 1.5510872889588305 0.6366460232746519 0.7341188581118454 -0.8377875373471055
Ni 1.0678954061839077 4.2986254097793 0.8269087388143312 -0.9047812297588353 0.6189959142930564 -0.4792803687365681
Ni 7.83192283959079 9.132307559133986 2.8853472726708302 0.341622734150373 0.2911992873924985 0.45674927751358757
P 4.837348002166027 5.861438787414411 4.211266745189025 -0.054839573547699104 -0.525413672759521 0.04826860519840074
P 4.284388907975255 8.662976312241945 8.816554199565092 -0.879155301660615 2.1687687110777616 0.2842475386650137
P 4.336444017896305 7.931559790939053 0.42505516944305677 -0.4046116762780838 -0.22045255569623967 -1.675121274986244
P 7.985935060867281 4.809645291680319 1.7510860096415968 0.19915996486605053 -0.7464802078906757 -0.5655467933349808
P 6.5622291966225506 0.9073533265832148 11.511628862303247 -1.1440696872146554 -1.042644038377301 -1.7912554336783666
P 7.120218397708885 6.299095209888453 11.690233851591826 -0.9543379576410403 0.1656150390310696 -1.9488923395999664
P 8.208401282995558 0.4076140626370966 7.852530500774548 -0.8488239976669253 -0.6412051034002442 0.6112113852516312
P 2.3240671566303144 2.478580532468355 7.116241643456581 0.4102362215537128 1.5204408805898073 -0.0238022446259203
Ni 5.7020345142812365 6.184238008893102 0.5263904779165729 0.9776763752566646 1.174686126548932 -0.7464791794494112
Ni 6.520401352013141 8.147659494007634 12.584874557463708 -0.5847763309885541 1.148945270139402 0.8039405068906735
Ni 6.939765632990591 2.001908299313603 6.630521714337837 -0.14911292761098835 -0.4742209519357898 -0.8282605716932767
Ni 0.7936979684715821 0.7844999261391248 3.3300328519026205 -0.30298111051877497 -0.2393339659817749 -0.340249250841614
Ni 2.3966139197347633 2.305700770013491 9.441814119899552 0.16942849923988887 -0.05398956684257798 0.8734135140808313
Ni 2.0899073280658587 7.0700565383536915 4.9299112496844035 0.8530192666951955 0.37912870151563094 -1.23711405396685
Ni 0.13722261540054612 5.971497897514916 8.411966553641358 0.7271234006306186 1.580640432897839 -1.4942703928420265
Ni 4.028484539823525 1.0823917659087572 10.330736095385744 2.3000458960589096 -2.1381980373797562 -0.17822912825065435
Ni 8.203983698341892 6.879515717924187 -0.12935356072020046 -0.013280004938357773 1.1585653097276694 0.9422563438861578
Ni 2.9649046312529688 4.688904164906764 3.585056487315625 -0.03528813377833278 2.1687879943514714 -0.6369149606653225
Ni 4.395004856477484 1.1890448811187262 7.016731836876713 -1.2104954229380571 2.48587751924717 1.4457091961038715
Ni 0.8236382412682127 6.992386861953394 1.004252489123006 1.3635084569344003 -0.3803556319441965 -1.785515960091428
Ni 1.028907437423285 3.8130808847570985 8.64340993886941 -1.185989467376893 0.4423220463446641 -2.602699705145253
Ni 5.575047516768358 3.9024905707937187 6.928169473274714 1.6760468721243071 1.7099586943804035 1.6611720118950037
Ni 0.5848399488174068 7.960756684469383 11.9235918328578 0.7862842272614909 -1.363242347757207 -0.09145568210883603
Ni 7.495388270869604 7.738643126662198 9.796932242214234 1.0382765054372247 0.0340581180259736 0.8522517924015516
Ni 4.762406833934171 2.050937920585293 12.751472254683138 1.0900027301669226 -0.3438192275810595 0.16180929213173423
Ni 8.644247980664003 2.383324043213646 1.70099097089461 -0.5615410146096974 0.2461031663848084 -0.5420042301283504
Ni 6.172460876696665 6.235838367452746 5.961062745866631 -0.02716807577435966 -0.20067228774551893 -0.9712421895955468
Ni 3.7340655155526368 6.261183795371161 12.297467984798518 0.31435747067651665 0.6236442116983454 -0.4001225301584786
Ni 1.3536555933080066 3.0629638737963494 2.7650274869545792 -1.8206156320080387 -0.7156213135282901 2.5712491999454556
Ni 5.0075456596525925 8.041321920558639 10.941651858491825 -0.9636268391421339 0.03420955600217334 -1.3970677809470842
Ni 3.240261220904881 5.8571047285210005 1.0405852667714142 -1.48443180948505 0.41394683763608064 0.8163509647398843
Ni 5.879285458189624 4.603512996002577 2.5055352233677493 0.06998542805020205 0.2033305513039724 0.46641482562780967
P 5.2622064220404745 3.0612098328309227 8.682189093229388 -0.1288922296887393 -2.538358362754706 3.060543758384916
P 0.8665695539770358 5.466863095953651 12.490431052275515 0.056896456076727824 0.6483954505010963 0.37340439743734405
P 2.0708820160069976 7.095986646593915 2.76436206506452 0.9417490652324362 -0.5785761157151132 0.2060867738928709
P 1.8665223225747392 5.570750580435064 6.990054637114177 0.054126863751390655 -1.1444419829524097 -0.6611072416408098
P 1.4728746951168528 9.123490951106708 5.252823694971446 -0.09622867801744717 -0.9846620625458783 0.6615312165521059
P 0.8643282794101017 7.788043973535037 9.486312004645223 -2.281685648384167 -0.9836871002271188 -0.7259813166063755
P 8.830816687161219 8.794232404168032 0.981186386395643 0.5092959412620519 0.6240257634074801 -0.06384511948041909
P 5.674508135956074 1.4233346386435832 4.884556761864084 -0.7551970189383833 -0.059837026762290496 -0.12930463463580957
Ni 7.117703344261103 6.709011799316673 2.4794826106791463 -0.3339613609503732 0.6008650090203006 0.1427461048526961
Ni 7.931207126617962 4.752383742703159 12.899310994212527 1.183624309578826 -2.7243056855852243 0.9224922738853533
Ni 2.7878021775850406 4.0796672695818765 12.65595497944362 -0.2865129376604227 -0.10159045654999278 1.448357432359996
Ni 7.688685441387636 7.470126368711448 7.17307349880041 2.041161004528401 0.8270588380756916 0.3107833801720131
Ni 6.173054837658503 0.9015622072052979 8.819067396884869 0.46442324911907756 -0.05275415177358011 0.6809391887650724
Ni 9.3563700513472 0.44000720859331616 10.277883778486228 -0.2716640455730483 -0.3662410469196854 -0.8832778084694208
Ni 5.955507354745444 8.983371847953201 6.447325592427055 2.7608297486531868 -0.7123328725850054 0.9932755152465024
Ni 3.6996250604060834 4.1016531058098975 5.840036703444195 -1.5258481676483076 -0.7247340744628358 -0.6429259427460927
Ni 7.718819679560867 3.234655714327538 8.595013257247677 -0.5738686829371149 0.1331875146299835 0.7268074120520966
Ni 9.416694211533834 6.15497615088257 5.529851727892529 -1.0695999981408546 1.0426774627183977 0.47152515027118147
Ni 6.035506471792949 3.8832239620941107 4.8732418055410776 0.12481728828841729 -0.02320523447186971 -2.202025159138046
Ni 3.5823084898031237 4.628533601519987 8.26616491459827 -0.6244433105608729 -2.4965553106759906 -0.49306585255643465
Ni 1.3765602128988703 3.9998630459749744 5.28674072202038 -1.0453195283269352 0.6521351200491866 0.10512366651423186
Ni 6.541134301837285 2.2954456627817637 2.934287799798245 0.802539769888405 -0.03482636365056583 2.0749884946008073
Ni 8.240456613654732 4.604441060005448 4.389898648333686 -0.5784007664795136 -1.674424763139852 -1.2301926442566684
Ni 5.754850636684642 8.485233494412036 4.127458853473737 0.3984453995663718 0.3540193080425129 -0.09331484680476186
Ni 4.669581872366983 4.205401380690879 0.5178643539221944 0.014719308488045618 -2.6468830845306868 0.01970107797335317
Ni 4.168130330335568 2.744637920811497 3.7679398516574394 0.22937068412147593 -1.404645336184026 -0.38472342199458903
Ni 5.826951929067713 5.097920532252199 9.64538495892937 2.414092061873752 -0.6029805127014067 -1.3585925076900214
Ni 4.3260404204241185 7.523063139435226 2.4995315773331748 -1.0246964527599447 -1.4270285889752328 1.7831780559868708
Ni 3.993348036674818 8.684683729269105 5.786152379373485 -3.069880205294494 -1.5236709574913307 -0.0740526561410402
Ni 1.4960670145486064 7.646607019497451 7.3146784324225145 -0.6243785187612085 1.1136391386389402 -1.1986135838988066
Ni 4.177652267005028 3.261615973610949 10.909555693016525 0.33271617568936246 2.678123787712523 -2.961269865783242
Ni 0.2947911779360396 2.7499557275479494 12.322040335402539 0.23915990229775586 0.6741897858563809 0.9695318917726593
P 7.60537313584988 7.3812178372363775 4.513886142989285 1.3615137951018745 -0.13909102459861208 0.8425458779676973
P 2.7686654978458347 2.0045532817217864 11.851370820218358 -1.9049084778198484 -0.5731194634759162 0.9599753584324756
P 8.754279248844423 2.3290972635258766 4.4629493501916935 0.31371238089335 0.34859068082777384 -0.034471808524624496
P 5.909763080043918 1.7510433186974648 1.1052100755473537 -0.7294811022295178 -0.6154670752041916 -0.7685785824516119
P 3.9320308480051116 5.52672322413885 10.208949968544955 -1.5113461173773908 0.15866766117895897 3.013073994938727
P 3.0323470423416254 3.353123084294058 1.7954623180028904 1.4722905461368259 2.8052036467828723 -1.1255914259048099
P 9.558780810373431 2.5608348450428378 10.286183454863904 -0.8316659978303999 1.1225878631917956 -1.6705740219351937
P 7.331195187481615 5.387290888347468 7.7188994930651145 -0.7706696606526856 0.06900506641480374 1.239961550717974
