# total energy = -340870.8426148768 ev
CRYSTAL
PRIMVEC
9.24596052441708 0.00000000000000 0.00000000000000
0.00000000000000 9.24596052441708 0.00000000000000
0.00000000000000 0.00000000000000 13.53239782349442
PRIMCOORD
 96 1
Ni 2.5869272604176907 8.475688685369576 5.124935068953099 0.9358656098684657 0.8802996996777033 0.09757927850807066
Ni 0.2541520348891506 2.974111098143311 2.0200620512516076 0.7687431330539342 -1.8148694735528805 1.868267429558047
Ni 4.946145008095231 8.684333027764177 10.759839405152606 0.32646119591858613 0.496327554026842 -0.6274191053597453
Ni 5.378708019465835 5.443133871535567 5.352929357273581 -0.12295323849648503 1.6213777627162012 -1.350289387140965
Ni 8.26361409166644 3.5379575012386755 9.560611527940305 -0.39293398282983943 -0.2567107666973256 0.335752391412525
Ni 2.0173391159137006 3.9176613570004015 3.686103675541619 -2.6156362107012634 -0.5054562558009875 -1.8132329663907223
Ni 4.690364759579576 4.775778941758134 0.7849737166264971 1.2949890719067632 0.024531409482460978 -2.2383874998171644
Ni 0.6914674699055413 0.5066018884685943 6.373285809176491 1.550500161869033 0.17709809997000467 0.03323227969056858
Ni 9.243852321392172 4.563454707124188 6.722164557559445 -0.18856470584870752 -0.6182456663905933 -0.7468998119265976
Ni 1.4379779912665263 1.2839033071548698 8.5266829307657 0.5892829606096561 1.4162669795833545 0.032812161434014456
Ni 0.13693729650958295 4.4670933078315995 0.29330405420448963 1.2945982642262477 -0.12271155479932416 -0.12828724911488876
Ni 5.684240780895845 6.937761862175121 8.973048311821968 -0.49043587113275533 -0.3226701043072701 0.9967773577521737
Ni 3.970187658034866 8.69457755188778 1.5955374778530798 1.0321716780910675 -0.5039526746722676 1.0108425775959882
Ni 6.502425062684408 1.0550750332062746 9.202653246444193 1.3262685987463352 -0.3996062526436925 0.3761217963685071
Ni 1.5908322086053348 8.122002962174474 2.64109102103906 2.0477594836815247 0.7859746664408722 -0.5846719442002059
Ni 6.9210636576920646 5.184200750523388 7.316006705385669 -0.6880313197251635 -0.5497468501882468 2.2328287747824644
Ni 4.410720687270583 2.818168730030781 2.1185102638065576 -0.1831857009249813 0.971388485365424 1.9443337736950062
Ni 6.393979193148545 6.944899743604201 3.1394482866186504 -1.325746407694278 -0.6044547832540881 0.18226627443450544
Ni 1.9248425280684647 5.354455865335681 7.936642721856106 1.2849964794704258 -0.8719001627600984 1.397906989018928
Ni 2.4824941376955856 6.042475516607928 4.49788512975293 -0.6718215427345203 1.4844582918476112 1.3975868866753478
Ni 3.8358253614967843 3.618933622425059 4.72582486690705 1.712249290186793 -0.6130854623458925 0.12098608746778519
Ni 5.446906223378915 8.93728401239732 4.880892567165706 1.4985553933706257 -1.5579393917558975 -0.3364563594580851
Ni 7.94386104314067 1.0517742253433446 5.333050542412799 -0.18792990047818603 -1.473860718837423 1.8295826113933393
Ni 8.689353584261575 7.4156578173887056 2.3799425679149544 -0.9657677967445368 0.47068799908186676 0.8073253642025063
P 6.021200561726691 1.8564871428285776 5.553722954692234 -1.2282350063096652 1.017954763160737 0.36889648226466143
P 6.306281258751097 7.148542021422206 7.008306690837814 -0.5625211191347795 0.2616537125248978 -1.2651737883175438
P 6.996307283430222 5.329168163640687 9.954471873671025 -0.4031602885435379 1.104998946465439 0.3265812664362182
P 5.470917982538659 6.998738971015517 0.5388841592064633 -0.4254712933359124 -0.7165098867808305 -0.4397308885787201
P 4.794428043885667 2.0380408212501147 9.743921938837909 -1.1502866146586448 -0.43512655703748937 0.15083196718462408
P 2.417421068397828 1.850569728172345 4.9626545949861205 -2.0434369450467713 0.7579740674628881 -0.04756926513853098
P 0.9491163270181093 3.484756245094984 8.539714187353972 0.03501868216703002 -0.18574626256330592 -0.25075712021705204
P 4.0734003139841235 7.664854942099303 3.6928698693626054 -0.3665778614338139 -0.5126301478416074 -0.7498468103700634
Ni 3.9278134215200007 1.1473497180019017 6.28117107949579 0.8750927015554671 0.2193168994298997 -0.3418081106883017
Ni 1.900886244671123 9.213618030882984 10.34404301837202 0.6068204552727872 -0.15917262583983555 1.4795713960689552
Ni 1.3973327493465286 2.3639701713233268 0.15350605754703425 0.5403234999918178 0.34279027209591284 0.3022668580605698
Ni 6.445349749132964 2.654459755181946 11.344479973188387 1.579422501330338 -1.5739177694620248 -2.9254448856648327
Ni 8.624909240271041 1.0003389476361229 10.320117246644 1.1614562581222192 0.555757832269017 -0.2362314157970512
Ni 4.0627304756821045 7.192081248947518 6.7523415231141515 0.9366356552652708 0.5908580184062598 0.4225407499526787
Ni 8.255579352078524 1.2782725172710485 12.769806716839096 0.4618909696155271 0.6353329608901832 0.8206457354604965
Ni 3.1347041843372234 6.736098219882793 0.9264738945936593 -0.8073436190349514 -0.7177671562266993 -0.804307403311789
Ni 6.789835741729706 6.815558003563517 11.670258614107073 -1.0342164764352382 0.14071827578938992 0.6323167997716789
Ni 0.44099902563989546 7.872408261166661 4.688217847574611 -1.8377584623359122 -2.1239237868489296 0.576975861107529
Ni 4.468970237792873 0.18438201770800797 8.342330500130974 0.5821329798284361 0.04805597496696239 3.009890197894107
Ni 5.814525608897366 0.8285147933438886 1.9701551307985659 -0.08061128319516439 1.7790280383742394 0.7790859097408389
Ni 0.5684351732420649 0.739994893066849 3.8655696161047537 1.1269872778110719 0.5988780604972589 -1.271175257316617
Ni 5.378125523960612 0.20342592234463658 13.060983275555461 0.6008069020888556 -0.506182849554367 -0.36187557086213806
Ni 1.327923324621 7.199357819782604 6.948913415013998 0.4576301374566441 0.548169735509114 -1.6558757964930708
Ni 7.8557470405252054 4.374189897728748 2.2787205672398954 -1.956687667274669 0.644364217854516 1.5666554314726568
Ni 0.11301614776176261 8.397245957332892 12.08383597039157 -0.10046662735819473 -0.39931957464120904 -0.3481260824865295
Ni 8.912800709257159 5.9451432914733005 12.167316822250411 0.5278109693471039 0.36360643751031574 -1.3670226407352457
Ni 7.717501440618972 6.232322821508589 5.421362408580831 0.9580935680287305 0.5487430915140807 -1.70210628821552
Ni 6.286448673692317 0.03494973031337386 7.004368836303298 0.45378016758293466 1.0558291696090074 0.3594919011213099
Ni 2.7729559836730036 2.99011585559634 7.238479327428622 -1.1599071684675444 0.6558735040456962 -1.1254862677855133
Ni 1.1106340092520586 4.481008478234147 10.626193670545552 -0.013804252872943967 -0.13014975624492425 -0.14182667836222027
Ni 4.9397560494585795 3.6490477154490426 6.732218614898801 1.4800408795062059 -1.106202736965553 1.7179550823223186
Ni 7.149392649779039 3.8538364923566926 5.427114320545898 0.6418496789627784 -0.9420185168437389 -2.27286187944495
P 8.702418126307288 3.3326601965090057 11.816502894355661 1.2686841154636475 -0.0640171262819091 -0.15539156153084852
P 3.1038134306396095 8.734973152876968 12.01766263180617 1.5601628817697777 -0.3654833428180544 -0.025842672094716784
P 7.44042774530128 2.06846003096731 1.210999833994044 0.8766433338720386 -0.011552994944922039 1.0279483840383394
P 7.0179613226878725 0.05285360803263765 11.508559711049276 -0.5037459579781003 -1.112171038733846 -0.40126821372714766
P 8.502538954372232 1.02315797790422 8.023034202048981 -0.4062512687640359 -0.7458245765845478 0.01548935388485074
P 5.415571663582083 2.753594942594643 13.041306947227449 -3.750157077885219 0.10034090041360784 1.7900413587656074
P 9.360240470911947 4.99700703625763 4.463620525105223 0.34608334102488786 0.014267565662607685 -0.4592543033236284
P 0.5138146621769178 6.982641753958485 0.3963114498328588 -0.18776663542744437 0.8138173996847533 -0.024935586899415118
Ni 4.338010454682125 6.702572367471075 12.187385179299401 0.6352113477106544 1.666628921244517 0.22655301216702273
Ni 0.28471733078067213 2.797846109070782 4.822811293122703 -0.07312114546570632 0.6890553901143036 0.6648983332521259
Ni 6.911863927093702 8.407592187020898 1.1018873307133148 0.8934110402486807 -0.2588476105346703 -0.5626602158158052
Ni 8.812389579309212 5.843197332098893 8.612816448663406 0.31381265391664015 1.1200015905218583 1.1546603182463082
Ni 7.488950545482387 2.104445308845525 3.479449988421216 -0.7290478713468412 1.041159997632607 -1.5889178424152828
Ni 7.712998657903994 8.013473878995006 9.842329469167097 -0.041312999816174006 -0.37049056622465876 -0.3576823587163969
Ni 1.9629913606803642 9.207811567751556 0.1884964700861697 -1.6283487947173956 -1.286034690926953 -0.4110921417961049
Ni 7.304012845554317 2.798447096496806 7.466500429034265 -0.027007638937095423 -1.4797876258448193 -0.034278204456579676
Ni 7.605089054071353 6.093707383186341 0.7667379089288601 -1.0052375727043847 0.5417730879541508 -1.1483472315440866
Ni 1.414872336226018 1.9539765492900099 11.45397063624949 -0.5206478759397615 0.48425493913302403 -0.4235583925839157
Ni 3.3025738413662227 3.5197614511707602 12.386988821614528 -0.892351745746231 0.16731376688973118 0.24445586058937255
Ni 3.724161897741595 1.5838700004238613 0.38295103705433364 0.24432113478372114 0.179746079115813 -1.335638984217642
Ni 3.9801178195048568 0.9342950524963267 3.7721696979284025 -0.9673086588690955 1.0339223422335873 -1.4818792182665252
Ni 5.3941210354532405 3.995614049135866 9.215427465333335 0.292623935654167 0.4840795898974244 -0.6443382497125871
Ni 7.1734598847011855 3.839209383003318 13.357761961678408 0.29801811008654483 0.1739541550243843 0.535629179839942
Ni 2.951643414370428 3.1522622631375143 9.576945441583586 0.29692590546363057 0.48927090429037673 1.3487153577856257
Ni 3.038481474450641 7.313277297875481 9.56996289228923 0.03715578311469085 -0.6734009714064983 -0.619360753831643
Ni 8.945420457549641 0.4829054165585028 1.650898590346296 0.38722330559830737 0.47733095831968114 -0.6186513864694443
Ni 8.301383839901924 8.047739408238753 6.789312420371044 -0.00011235720814819358 0.40592885242761056 0.6583908711509112
Ni 2.230976276924499 5.946243560760944 12.296321084736483 -2.063100742024286 -0.010248160090569447 0.6857816044590382
Ni 3.6958415210352817 5.302438092123237 2.714801666542838 0.8867351708904019 0.16733073617059568 1.0677279779291222
Ni 0.5363479922686436 8.362703049277135 8.763336985597162 -0.49480803205852203 -0.1089137296842834 -0.720569915782817
Ni 1.0988176718603941 5.799667350533982 2.2015177224929006 0.3738291436795884 -1.1568647820967948 0.5245556956345998
Ni 5.245963765997816 4.648887381223545 11.627604224992076 0.8495055971149822 0.5227528380979061 -0.1999500648675137
P 2.3837842644613056 4.408307491606088 1.0000486244795515 0.48914003513946724 -0.6452008548231986 -0.3068969006334134
P 3.437860733944341 5.226547249157053 6.402380072768314 -0.8182589803958746 -1.673878917938711 -0.260270459024126
P 5.719597333466835 4.354939808175191 3.326696552050771 0.3799902781849778 0.026845659437934415 -0.15142794889741018
P 7.561864189199654 8.422099098889069 4.243976263622309 1.1362093106299724 -0.8305840776201308 -0.39282162562169126
P 3.3830044508889845 5.3295010182151 10.584852207807407 0.5230372021075443 -1.2462445555132085 -0.7456566835481159
P 2.4863034733805356 0.9202966684501764 2.0622559915386662 -1.3782894718983165 1.0440288345399695 0.8579231317547159
P 2.8142946726230287 8.787619651396637 7.49104845389723 -3.7678398398769626 -0.13195029978877273 -0.5968615442878624
P 0.8370293982765833 6.82174355107136 10.274527265101888 -0.5187540013511582 0.05325525977971473 0.8197448209127818
