# total energy = -340864.5597991367 ev
CRYSTAL
PRIMVEC
9.35308318076459 0.00000000000000 0.00000000000000
0.00000000000000 9.35308318076459 0.00000000000000
0.00000000000000 0.00000000000000 13.68918265918479
PRIMCOORD
 96 1
Ni 7.1696527921677315 8.753494570217436 3.3211732653976958 0.8093511363832836 0.37117885054093497 0.4135100072089782
Ni 6.210512802824219 6.81103687112189 2.0591542491895622 -1.4666261487621965 0.9442042116411481 0.7521669738628077
Ni 0.6075996758369541 7.99346301880684 13.26410598987272 -0.48359082318646396 -1.4769761245379531 -1.3557329267540392
Ni 2.477510184081943 2.133625369281138 8.075823464687424 -0.5072503715869329 -1.9384210077549973 -0.6506955593891826
Ni 0.39086909360164157 1.0348438458180067 3.308716829018559 -0.20450580255899614 -0.5763773082915816 0.6508395411662146
Ni 6.376015612351791 6.157929768341935 13.156947714158823 1.7655256330124303 1.5184097090923914 1.3656018491283193
Ni 2.6149350374523084 8.196630694905055 0.7191118118410499 0.33309361363343926 -1.1851368895686105 3.1508560709179285
Ni 8.50608680996746 0.5905920291093508 11.88707023733667 4.753540370989684 -1.2539388388336727 -0.8275758869214264
Ni 1.5618900914737675 1.3517730744612266 1.0572248389187995 1.0442165250707436 1.8189037915232547 1.3113389740196966
Ni 8.108889420184617 4.717938411910431 6.631847694757263 -0.11383327847308781 0.11863044275141504 -0.4546831390131782
Ni 2.93040518509602 4.220588205827998 8.717600242321197 0.2651537552583562 0.21210906882755082 1.0604034192432514
Ni 3.761688525315944 6.241340565480499 8.522173177987039 0.8291468309529721 1.5243898379352263 0.6993683420045375
Ni 1.9090110731068155 5.029339968305513 4.284550201489782 1.465426729137457 0.06472495098221111 -0.6242597337951571
Ni 5.510948935143249 6.611657193772398 10.964611170197466 0.6542405964279635 -0.24137516478151977 -0.9166265591331956
Ni 7.173291141583172 7.254634907305766 5.913179219066063 0.06257473740842773 -0.6825427858067665 -1.413235134735566
Ni 8.519040830379762 6.693683734578095 11.835215808045808 -0.31997713085613927 0.5303285935626351 -0.3693790783280348
Ni 8.019455237381417 8.171087424330327 9.689477260543752 0.047241449485467026 -0.6698541345955044 0.3023540184577373
Ni 1.063164982141798 4.209579626748374 7.295608894758628 -0.4354949961205016 1.2222404792891273 -1.2693680289045493
Ni 7.454594475821729 2.864512713034887 8.296767610962984 0.8228769387838603 -0.7078912918738841 0.54943317560257
Ni 3.964528843497603 0.5610288033193114 8.984484863297945 -1.1007653680000655 -0.538332437703718 -0.03630089131356329
Ni 5.112470172944171 4.903391348181281 1.691244169238519 -0.33907579935880316 -1.0373550220642198 -0.29936691080495537
Ni 5.4201304960071806 2.4044813094398814 1.6153915987390752 -2.7164499369862316 -0.6743499655833289 -0.051685601299749695
Ni 0.4755472335314451 0.3953211612668083 8.414603366606615 -1.1124456325514713 -0.02437637196183544 -1.1222374218309124
Ni 4.164450999680245 1.259271080325726 6.3198849533623696 -0.2597243567126688 -0.5702071749251276 -0.2112588050121136
P 3.832098536625555 0.999620133996541 0.6897244240176178 -0.2805148110954588 0.32098397485409885 0.23329855842097239
P 7.235760385145458 6.3640156064391675 7.940328152408075 -0.20742734708116534 0.7931493298124405 -0.62845217460995
P 4.524198643809038 2.908762150269979 7.700288751205616 -1.2695798878050395 -0.10182237005514078 1.510738822810695
P -0.5113358715860539 2.688581215594162 6.530205867591508 0.5636788868883066 -0.9113306008415788 0.4821646322628987
P 4.099858606202008 5.279160824054677 5.256823790445536 0.2886708645436899 1.4189560963797434 -0.10024705514822091
P 5.759871894892715 8.890320826254671 6.286483222173623 -0.5172349936034705 0.36799093973125657 0.29881952294191766
P 4.273732425310093 6.689418728579533 0.5965387194906806 1.30467158930185 -0.5302375765107256 -0.07128023560222563
P 8.827009805192667 2.532113484563546 0.7316823558368147 -1.4135002154714948 -0.5967910960612431 -0.04984340588468835
Ni 2.722701263582667 5.475229509905285 1.7957199806533188 2.537137345863411 0.5602770602956093 1.4950139558762703
Ni 7.4824760172290015 4.348893802951436 2.0512415406922284 0.2500302693533565 1.193407614217835 0.5504557033298132
Ni 1.8856283647813603 4.809037443546404 13.359917104890439 -1.0023939326080027 -0.03449829088718574 -0.16198875513239197
Ni 3.395403075939353 0.8018276748881813 4.222237154419109 -0.06508104877004921 0.08804485665507418 -0.8741012841764753
Ni 9.35570219351454 6.804321357290819 8.051128518770744 0.6591156651320778 -0.4751964284751816 0.045996778445088524
Ni 6.02153375413789 2.9152531901011254 6.309946367015717 0.12871508068092669 0.13593602390939816 -0.7211774674598289
Ni 8.031829366627248 1.0651571888911269 5.294387643716213 0.6952684609035509 -2.5878546697126206 0.5190609910686158
Ni 5.86021177285891 5.287064179468681 6.731751719040269 -2.0217419765718407 0.5655835601101872 -0.4766971813904241
Ni 4.40352516268303 3.633289397359204 4.051943695609817 -0.5918671763970647 -2.1961486457526114 -1.8992924171846517
Ni 7.826407597446457 8.982177457640388 7.335034011612011 -0.24955024439314438 0.18210352360439605 0.3979180663079921
Ni 7.6105664934358455 5.4898483791503585 9.72816348381405 1.6066024041792397 -0.8344186208748726 1.623678642935236
Ni 7.287688703794629 2.5082631220715816 11.465881253503579 -0.16745929132865997 1.088605335598764 -1.8059415749356316
Ni 8.622008924761737 4.881869903438532 -0.06294625081212546 1.3316360337058357 -0.29409152133862904 1.1665480708228297
Ni 2.563904614802835 6.091953118530831 6.429740658308689 -0.3468724125850865 -0.33346976602593537 0.7212761978212224
Ni 1.4270934545191831 0.8142345399256679 6.068236505130487 -0.09297057609146568 0.26556256066100065 -0.07201428555477275
Ni 2.158850635022639 0.37319737795759556 12.873869164704198 -0.2737147574544899 0.45499038584095186 -3.0510849269648617
Ni 6.128224375685277 5.170861472174498 4.29284545109532 0.9832057897153261 1.0030593341061433 -0.5280217998063294
Ni 3.2980935969721386 3.5496634793040465 12.023441933524058 -1.6530738082679015 -3.2672717654062122 -1.1351515587894192
Ni 7.052692485123805 1.2671650826563996 -0.2296705730226193 -0.06266858267381466 1.0065886874156407 3.3865768656271484
Ni 5.878020043519575 1.0979397459634153 7.937604534542326 1.714782598131608 -0.5754743368613379 0.7949848403592825
Ni 3.459546521417742 8.394934767671575 7.080716193397696 2.604028194148689 0.26706382779687554 -0.8516169870310301
Ni 4.529137071807375 7.573051276198485 4.712980342437101 0.6696774998083241 -0.3655630470160543 0.3337952676861542
Ni 0.9304035761198615 3.4989230022378086 1.9392093732549744 -0.9488558514805464 1.9030405713731742 0.31349075180084723
Ni 6.368542498770975 3.6338973477756658 13.651332057517255 0.7318300620776687 0.65761259822399 -1.2539774053810921
P 0.970344983173071 8.323664272695588 10.99472716321232 -0.01664043677015844 -0.14201693999615542 0.4689892712232052
P 8.401921520919222 4.945367986167139 3.997077573486637 -0.6911426116606355 0.5977398331277577 -0.25753274837798873
P 3.1336850981941975 8.163745253916135 3.173973504638957 0.7297950339255109 0.8054793121327031 -1.7861049998256786
P 7.712982755901339 0.8992054313637061 9.780893361704617 0.20689847116088883 1.5101644383644635 -1.0096817245186676
P 1.45981054000816 2.341955947377614 12.149670210839862 0.26773308594975825 -0.5200722059419495 0.4964080295557903
P 5.107849749779062 8.641042449338658 10.229433567120163 -0.755710468239692 -0.6543940912866923 0.5169809686111355
P 1.4958292639126913 8.043960315706494 6.931284786956376 -2.427166892779839 0.44146664032290417 0.8252945470864174
P 5.277851392388451 2.274604394316973 12.269149303224607 0.3477519869765624 1.0334770271660523 0.28736860079249865
Ni 8.2688177920474 7.034220145546695 1.4462074156127434 0.724192857247385 -0.2880553424468781 -0.946809253364163
Ni 1.525450478819378 1.0878010036334977 10.284121980660071 1.1009836546584586 0.007084417650607154 1.6929089379869684
Ni 5.693904598164941 4.279952225724664 8.861391739514417 -0.9493335624479136 0.9425597340591897 0.7592459921967762
Ni 5.1056611282798 9.086193097355343 2.052268509241882 -1.1127978736845674 -0.04824237994615562 0.12164249010486147
Ni 3.3008059911378913 7.589540762109595 11.029771295833847 0.29332378993466907 0.8417308382655698 0.4601719300418914
Ni 0.2543823544892934 3.815515519881142 11.205102325324773 -0.28816307166933597 0.5424441458792464 0.3902572073286247
Ni 7.2999038306238475 2.132521705448177 2.468652814168261 3.1624116369660116 -2.3722699836316434 0.46793049094138767
Ni 7.443660721408746 3.033317160978014 4.616444363461293 -0.9876507128605572 2.1460861818785815 -1.3641694875571668
Ni 6.39758382251119 0.09171352921076652 11.658502392838681 -1.3026890116541823 -1.077332590898422 -0.8631100752722941
Ni 9.252257091882726 9.309217369363536 1.2567943838598938 -2.254096940132621 0.3132413547942025 0.3857508348178389
Ni 4.431425410256963 8.596475007270339 13.02784429902732 1.13126173681671 -1.446546347293186 1.1525610125151182
Ni 0.8981765921973861 7.611679510352137 2.6925936883428103 0.5211345857681928 1.2276271975223374 0.8683432986467755
Ni 4.451487774000204 2.6271595173648565 10.178304001787389 0.2777771004493216 1.0154901036703285 -1.2959416656280198
Ni 4.040971593555182 0.8238298681141016 11.502595846807875 -1.075041737981716 -0.31714248962082153 -1.0112151304440584
Ni 0.45169125918948266 2.8517176950391985 8.92527891050956 -1.1435503243760758 -0.5430887214417808 1.2567855642538486
Ni 2.9599328691694056 3.5028887095698056 6.046115527746274 0.24065551300667584 -0.42163829274306736 0.0650116289846945
Ni 0.23410954637112372 6.16434598350644 5.38216258953664 -0.8264952522627379 0.6534412404551198 0.4853846818620931
Ni 1.8864233768644256 7.868243939182363 4.803342351106656 -0.3985582709951523 0.5691185698466391 0.9404920528968834
Ni 1.5624138641402576 6.0890443096151445 11.12837524153396 -0.16390859786292417 -0.06786941014846376 1.1251671938831977
Ni 3.244341427073582 3.2848870433099213 1.5124908465570779 0.12884980648657807 -1.47920912763353 -0.02284322314676066
Ni 5.588055754117271 7.76390094155085 8.34473396351349 0.5635400473175972 0.3558653601123161 -0.813324776319051
Ni 4.55971230121374 5.028498190805797 12.666545913682384 0.06048854430336035 2.104194683851118 1.6163723390818097
Ni 2.159037696689243 8.242133445306392 9.05661303601531 -0.7251292530187253 -0.6373497342098958 0.42293798539109745
Ni 0.34235652098465313 3.3033874421370215 4.439689794687512 1.0024191294189833 -0.7639832497714455 1.115006451300112
P 7.658996758919528 4.6388674454370715 11.786755612695469 -1.7229193683061295 0.6476179489051233 -0.08377194031133316
P 0.8200250338153835 5.060111612461812 9.514351998886088 -0.6704035793410712 -0.7132890658506877 -2.460706933518814
P 7.676711498746894 8.529460165209585 13.53768461258888 0.09286516086185298 -1.147705741305346 -0.1980590184923879
P 3.7117898257494226 5.265187317559385 10.636604149657979 -0.010627912027491374 0.5175867205159344 -0.6291147478946134
P 2.068069608219892 2.4144049308532045 3.4479627277133114 1.354872121415641 0.361781468486435 -0.20466443962404754
P 0.9467190946810311 6.105477677026275 1.3205421939134159 -3.1310873729314332 -0.5198665176890466 -2.8122695524907178
P 8.950825922317618 8.191991565573284 4.587915588687571 -0.430620955857652 0.9929271307681482 -0.5509915212286253
P 5.643463419765269 1.6762783006018944 4.075406840451913 0.17958795627139393 -0.38382559277066797 -0.45709637644036116
