# total energy = -340891.45171836246 ev
CRYSTAL
PRIMVEC
9.07607781591705 0.00000000000000 0.00000000000000
0.00000000000000 9.07607781591705 0.00000000000000
0.00000000000000 0.00000000000000 13.28375730760163
PRIMCOORD
 96 1
Ni 6.404243711828144 1.8823240342095668 11.543013556715943 0.37005450712850463 0.6976030225739985 -0.5403823782542112
Ni 4.7716661044647966 0.240327273530777 6.104244858621416 -0.7974165897292267 0.3417170936363921 -0.973714048174807
Ni 2.5748922863211487 1.474254510008788 4.741371065101131 0.5465764228800651 -0.09290089919579485 0.6659429724665563
Ni 3.3316465590983726 4.425350212137466 4.816915796861661 0.21122435222975236 -0.348657015289335 0.21920017134637734
Ni 5.00551124338593 4.401180617534439 2.690172993346985 -0.006449869390401795 0.8420542830432595 0.012815149486797284
Ni 7.224140256348987 6.011349389345826 2.7512785932810204 0.04893966312349636 0.45217271388649866 -0.6098924093298915
Ni 5.2372779605406 4.474724074187959 11.568810492029566 -0.6304416942361529 0.08547915281042698 -0.09691696233372342
Ni 5.72261213320385 7.9303044726796195 12.411890969127942 -0.5152367322265191 0.22291464408348707 1.2778819799128314
Ni 1.954315481596426 6.3324519381481075 0.47300432126700237 0.786784049716045 0.633025395802929 -0.2632426542785724
Ni 2.7150904567428356 1.4071550684390641 0.498162300718797 0.2764067024643562 0.3178073768983301 -1.3536696164671074
Ni 0.5597516555879962 9.080071056947737 4.361309408713149 0.8807871808370832 -0.2712680956862102 0.9774516608403682
Ni 8.6831741842514 2.2231307474441313 1.4669119632442937 -0.21769324778354765 1.509905271165806 -0.5193209295982217
Ni 6.9063141715541 0.8667717624127872 4.603246778407117 -1.3209003924558864 0.062249235748208925 0.2123579516135633
Ni 0.7347974258888864 7.435440418554417 2.427288036591889 0.5265554996734481 0.24916920690464187 -0.7853221204585378
Ni 7.548836931874061 3.946215000463274 3.9290566757929697 0.40654745984821594 -0.24827729121799177 -0.5608969532677952
Ni 7.6159000691334535 4.013060311860679 12.514427955619754 0.9059441397186849 -0.1610371898524001 0.9866734365489523
Ni 8.337947421234006 9.11129276383261 6.22511370661499 -0.5213464446686827 0.45938285848169264 2.194883920107575
Ni 6.7151447494273455 0.943349351802241 0.41659468387431353 1.862119664789096 -1.9514732129532648 1.0222536476464072
Ni 1.7737559941639782 6.622586910237835 9.30035653596015 1.3227672704612963 -0.4098302443645458 -0.25165777765445047
Ni 9.179363345703694 4.7759409370063 1.5163938306180227 0.0037656376900193213 0.09651818423340797 -0.3781367699160068
Ni 6.46795777645948 1.826914580566504 6.953143101450373 0.5421790651433178 0.8342407005361115 -0.19909414462512165
Ni 3.602041062445487 4.272944717366898 0.2871788936210072 -1.3484255944593486 -0.3814797182463107 0.6275363476638999
Ni 5.869063721080094 5.649486176119139 5.018138790126895 0.7368470556762858 0.03875243817784939 -0.5154879290053768
Ni 5.219035044599148 2.7991803155475816 9.59321070089369 0.26873633040329203 0.9637659358231596 -0.9050193139115704
P 0.4403204582835406 5.795102764857765 12.35479699548551 -1.6430948426783185 -1.2224862767513462 0.37347947364965356
P 4.072154653002364 6.067902428764324 12.615756916185292 0.3321343350439635 1.6116556503324309 0.30370950404436725
P 2.3893500322957375 8.451743281967294 1.3066592917956277 0.08870203062309885 -0.15032957362690885 0.3338523461763347
P 6.382461125629398 7.867570624427228 5.7484399271812565 -0.13254113929523623 -0.5183068865114105 1.3388340941161716
P 4.768362412224652 0.955375154599466 12.818214256001788 -0.2256433558685598 -1.0645637212685277 -0.6561085028746378
P 3.8799051776432547 6.1587448892906815 8.422472931762728 0.2231650695313963 0.26396204894310027 -1.0775056261411766
P 4.816256873629148 1.2075630463154607 3.928219861439834 -0.9200690091558412 -1.1597138215098155 0.5999111297474635
P 0.35664446861657007 5.783567070250011 3.574672150494519 -0.6257064935440128 -2.231612642987176 0.3732010231772863
Ni 1.4429511184256718 1.059949720508618 2.5079199098375846 0.22513736276641874 0.051881519360639686 -0.17362916758479774
Ni 1.7151971415996798 6.514363761140395 5.079084651095473 1.1506455406599603 0.09460194104730159 -1.6640807009013665
Ni 5.919327038733703 5.669453546801324 9.118635310597103 0.7974489856290589 0.02701046715057284 1.3368589726676718
Ni 8.584653362089984 2.4089271316418617 10.45338687772705 0.06958870683241564 -0.03047271466756042 -0.890556601519021
Ni 2.4875531917417555 5.175388187503409 7.038039823552232 -1.0973401443686006 -0.3867826185164629 0.14190226879516205
Ni 0.742198967157669 8.806990034636112 8.902840674772666 0.33413850995818584 1.663523799956632 0.7049406938859925
Ni 1.3063289225716135 0.9869871328203977 11.438497077703321 0.7943893728671286 0.3451747131676894 -0.36901758122355804
Ni 4.245244528584158 6.937572182749302 1.6889237122129577 -0.5538451886273363 0.2955832753928071 -0.8183394559248228
Ni 5.499776276390667 7.70618888892726 7.988585597269884 0.5880038367869165 0.8082453049136145 -0.27759943722087677
Ni 5.40880675077815 3.1227515574523874 4.882378821643203 -0.8321439659080829 -0.7474734250418804 0.015126828339109432
Ni 0.7696522866301566 7.429531892048006 6.932022161307413 -0.3550030121120209 -0.0872077054657595 0.9579287603160922
Ni 5.185834752801225 4.419759348346454 7.252731715950359 -0.30210333589951194 0.45833590527441714 -0.1282995904100629
Ni 8.475041573122372 7.013666017203592 9.419910260311974 -1.6385779286445716 -0.08141218182990495 0.04788628215831753
Ni 4.811446552510259 0.3192827952469274 10.43045889053735 -1.725253672866261 -0.09053034208108925 0.38990548041616074
Ni 8.092294305377637 7.158093639778868 4.745927256047702 0.7670300070175693 -0.008466899820430578 -0.28917737186646325
Ni 7.4397243271735025 6.182460680014567 7.068765068993324 -0.4789065303369172 0.09848404971052717 -0.13348062039037012
Ni 2.5757182093811846 5.091942730207042 2.582163132072739 -0.9548169541599877 0.681175987366227 -0.1256780936268158
Ni 2.463991694336778 5.284555248669463 11.334471614487928 -0.6590555013181036 0.004351334990160248 1.0496893752598568
Ni 0.9895647388539162 3.4120061500165835 3.627674628362621 0.1875285512747093 0.26221524145532266 0.3379555697114309
Ni 3.4380272644465038 2.4588001779594095 2.8000434505257075 1.1799982827904645 0.7066756742992281 -0.14407973606245508
Ni 0.9522529839109789 3.3627502769746664 8.541123586395063 0.13410411290698196 -0.6462112983655839 -1.5016515157974462
Ni 3.667343440653814 2.706940139073471 6.876442985013552 -0.1518336689762611 -0.28755217755821444 -0.09372313798677408
Ni 4.09842082152702 6.7745930575947595 6.076654490377428 -0.4643389169353873 0.8482113037835908 -0.11882096149566634
Ni 0.9087785722893127 7.657441276229981 11.489785992123787 0.04572758394410189 0.08318470034929545 -0.08203541723620066
P 0.30897146350509547 5.503733446216773 7.963983981373915 -0.038013246018979686 0.05493470436466669 0.7915945837308109
P 8.595317753249788 1.4678286470801578 8.029911701327698 -0.13356366702247965 0.26696921120054024 0.32403253187243547
P 1.9461833160822275 3.237255352237135 10.623897332059808 -1.0926157423097376 -1.2599089403741786 0.6151451730883987
P 4.159847714607486 6.18298709251437 3.69992474396059 -0.4257155481362346 -0.04859384974830341 1.1353819296326704
P 7.017133078840226 4.203694245410048 10.421452698751926 -0.3767159783090802 -0.45824103156776563 -0.12231097692679581
P 6.410460824972371 7.962152428917705 10.047806921607235 -0.7484190767846014 -2.6693897502736346 -0.9225161851447532
P 2.3091719629291823 8.611963279536663 5.804059038216482 0.21205147611673802 -0.4083616302388193 -0.06416239361052176
P 6.934468164215981 4.045117017883169 1.594422684812968 0.6732675311524275 0.10317991252429971 -0.12355796196001947
Ni 5.363607884415749 2.848626786218738 0.33033927295830806 0.2165449931117174 1.1348026600904326 0.0449937911018709
Ni 1.5828588543647082 1.2618742945710035 7.043326638744221 -0.847101872769496 0.17531349726575615 0.04452867853999428
Ni 6.634013691914595 0.8505210455007636 9.11977708115702 1.9332795727633736 0.16954754131625638 -0.1069092976597449
Ni 2.886746312066545 1.869590297360883 9.155417930216963 -0.5118960978890603 -1.6307355497820173 0.4626913540296354
Ni 6.013872538913847 2.249315231270542 2.499405641457149 1.8223372426848359 -0.6365745466067682 0.3888305021844271
Ni 4.2886735598179095 6.90447172780479 10.532080100801057 0.17352735189961083 -0.04398797554517586 -0.4187807686896142
Ni 8.054129399141914 7.1047807600574355 0.40804683400682185 0.7093336807473655 0.11802520506724835 0.32004269398675206
Ni 7.627916795853095 3.922326764265315 8.36827513447697 -0.017652165864124436 -0.6125969527452482 -0.7812602916843383
Ni 3.3167254875522305 8.307960060900397 12.350705499711179 -0.7095460538684876 -0.03002739960002571 1.5783033001242301
Ni 9.194248112939505 4.80115428053135 10.262127602432225 0.11267499649892854 0.6024729769373688 1.1090013827566125
Ni 8.724615554494516 2.6935347724836585 5.701800687306464 -0.5125823253228076 -3.229468321405193 0.765573734187017
Ni 3.8634411729080353 2.362793429288432 11.537036052019904 -1.2388608614546277 1.0379720868229285 0.03946771907731913
Ni 1.1351087189718783 3.1497438121836683 12.70240622886839 0.2517693635316503 1.1444743788522418 0.16120354022693528
Ni 3.1481645746842593 8.3922314412568 7.9404188535379046 -0.48382427935350875 0.20929448219689115 0.4058805156881784
Ni 5.5053036076385995 8.052377716168431 3.625070701704112 0.3544062590682864 -0.15864786368461709 0.8672557220095516
Ni 2.9787595866010865 8.18489752495506 3.6196377616630415 0.07744779786551823 0.2100735264547608 -0.14447414328739633
Ni 3.074539433332494 4.306281150328564 9.241470036995114 1.976616802098428 0.2740276607092184 -0.8553214324658107
Ni 7.190740290844241 6.322994665306818 11.65248466648102 0.7391080837963208 -1.1975856568549248 -1.7832323062635738
Ni 0.3710218831155015 9.174916067688116 0.37423662979533323 0.2976003058228358 -0.5149713943802744 -0.2659366561709678
Ni 4.5805874431138704 0.32404319793911185 1.656975919121462 0.055500604170465706 -0.4175888052640421 0.4348527345508124
Ni 5.884021096936566 5.632169020091135 0.575612101163959 0.5013021244232979 0.22849162395063227 -0.9490741381389396
Ni 7.736720813915838 8.764650132712296 11.285826561467337 2.3974757934733097 1.574222188076321 1.5456829429860475
Ni 0.07497384648057104 4.876812463261665 5.818882995732488 0.08477029966886046 1.521722061295076 -0.08190763340908475
Ni 8.13320926312095 8.994165982626429 2.5932813271116832 -1.4949977579263543 0.12323657406485874 -0.9639495125888753
P 8.44378356192717 1.8535800965048035 3.5723341529091868 0.7474749677037772 -0.12818671898128245 0.4615970925241921
P 1.9657513393507684 3.232218129178675 1.5508384526525498 -1.5114260786857068 0.29287821775681816 -0.9560557116630953
P 4.643893084253978 1.078791657570534 8.185677160019424 0.6788956759724823 0.27369033197445775 -0.5657241994531095
P 8.516083595951844 1.8006937924297621 12.549949000455602 -1.1711081793896863 -1.268549903878628 -0.2949024472756986
P 6.467385983571763 7.844226952884237 1.655514670630629 -0.8562344311983834 0.21320924387026505 -0.9428538682608407
P 1.7246181101306377 3.289624319889956 5.94402939909084 0.8801184369048326 -0.22457994760105193 -0.022296349504355148
P 6.936192618956715 3.9172078565086093 6.147735607182732 0.5505734598546002 0.8739318484781465 -0.061709046974022755
P 2.6860107041675074 8.515248596814226 10.312950914072692 -1.7715947220246455 0.802541826770934 -1.0747663728331425
