# total energy = -381175.8345564439 ev
CRYSTAL
PRIMVEC
9.16623339321934 0.00000000000000 0.00000000000000
0.00000000000000 9.16623339321934 0.00000000000000
0.00000000000000 0.00000000000000 13.41570910804607
PRIMCOORD
 96 1
Ni 0.9269445293051263 0.7469664510813934 2.831399115039084 -1.3766604209353257 -0.3208711034253183 -2.3153043648798772
Ni 2.7906872889319625 4.6255839117223445 12.165713842596729 0.3948707948412361 -1.5524089488559716 -0.018978855095347958
Ni 3.727228864715566 4.7088591431043545 2.953294438042647 0.44880893962058843 1.6699574713971177 0.9964292303841354
Ni 8.065873002835003 6.206786689828096 3.804601041721129 -0.6605624248809333 -0.8649646119825297 0.20821744708262852
Ni 5.166630010517554 1.2038747759218866 1.7922580544007627 -2.25385397088388 -0.6391338226935122 -0.07309517732377734
Ni 8.428425036610744 3.065142652502697 10.232671607811124 -2.024925259395829 1.4285805068433848 0.20045785774186767
Ni 0.2565582926545679 6.777283896871011 1.8131863987366357 0.01866518050967108 -0.0035095558151552464 -1.0029909427620531
Ni 5.508548852676245 5.186520737220798 0.6215256289585607 -1.0133370618830677 -0.41233706994679953 -0.7468046811096299
Ni 8.942091595930108 0.7796679057295449 6.321750507056087 -0.36372470825573483 -1.4258582228162155 -0.39106196261810716
Ni 0.0664038619949178 2.320716164725206 4.430618125096551 -0.7697610327954872 1.5393690849528778 -0.3187502004275736
Ni 7.292215396413899 5.559788097962479 10.343646280218262 0.25261808468519076 -0.5120025415599376 -0.1616920498275796
Ni 6.609880974391139 4.060063969471993 6.901429530199756 -0.2978247631288161 0.42256980341840134 0.0817615947495237
Ni 7.295267752170663 9.14603112515612 0.7112502222338425 -0.1703479257303647 0.8986141817161749 0.29196650457582624
Ni 7.221131255591941 1.5779854301459182 2.9614377198874218 0.5888440733000246 -1.0203911405163717 0.03661379456829178
Ni 5.001280324342534 8.335644421085297 0.36051621331454814 -0.7026308148058932 -0.1975370845506469 -0.5276718726660783
Ni 8.258657225886893 0.761560011442791 10.163056814219827 -0.591282250427872 -0.7352848533954884 1.1414523041964666
Ni 2.713645096332536 7.794103345680881 5.159158613588608 -0.8464254155277616 1.1170533065268118 0.06233922435885392
Ni 1.8840734655382612 3.531254792404354 2.3061198544937573 -2.479784776085871 -0.36665448030802017 0.09180612346971931
Ni 2.0018870647625833 8.029730544129526 9.587563093293992 -0.22646353777700998 1.6307219229352625 0.6468823562906795
Ni 8.685537886392293 4.814829968641769 5.882453266646442 -1.0625204655862541 -1.1003308515658081 -0.42333753482236125
Ni 1.8982719612356451 0.9133033406047735 4.740561478300592 1.182438773911157 0.6059089992021113 2.567269132251785
Ni 2.1313417805367294 6.732497679971451 11.448603647283909 0.19750623131271147 0.4192175991167167 0.9463533967736668
Ni 0.6594793354043886 6.983899966280132 6.680969698329848 -1.6711805451709412 1.3697675504702345 0.37150512353210213
Ni 1.8146300805134838 2.3416426758143785 13.27143659015994 -0.3110263494207547 0.7202367008131144 1.040296364080731
P 3.49393905581039 3.7724550608233076 7.111009959524007 0.0018234263619839567 1.6836498812825453 -0.5762204709987431
Ni 3.4319753173247127 3.174404155867975 10.489381143318507 0.4456719366535034 -2.424511714545179 0.908725559118564
P 6.051024883898049 3.1411490607161943 10.850209925195534 0.7244522815563588 -0.2706908830265015 0.34320010593982186
Ni 3.4472004311745224 0.7393245622092766 12.446719396629279 0.9003141951264172 -0.499026955235876 0.1818322722208804
P 8.334177823724689 2.721619719480841 6.736537239076576 1.1476664034269783 1.907761630997927 -0.21328380586194234
P 0.44222585201410863 4.365840352925207 13.054142775342244 0.24291345580291718 -0.707591244134962 0.738829119103321
P 8.17529949840335 8.783130774507235 12.1404251209831 0.1968138332313772 -0.8092876301351998 -0.046213008220952666
Ni 7.03106940389068 6.8210709943186565 1.1091509188936328 0.7117386906444323 0.6106879086479934 0.36586309475497636
Ni 8.971304382106714 8.572564058457976 8.298474427604043 -0.4286250084735457 -0.06354507174149701 0.000981904297295083
Ni 0.5188821461830251 -0.07436381916961642 0.4838533848482591 -0.672980338929312 0.6824653956016118 0.08790987373910666
Ni 0.2898949672845326 1.7789825984172114 8.578956589703525 -0.17541788405410436 0.9201821376949377 -1.0237544005616497
Ni 7.62086153245909 6.660469417098603 8.077907350802139 -0.4358433805988558 -1.3198814642730687 -0.5702804513652243
Ni 6.06142855892486 8.341877459867879 2.6254540139224396 0.09699358120792972 2.0881240035415005 -1.6758121304056814
Ni 4.677657284257425 5.672523603825697 7.243100884053845 -0.17018568912088755 -0.4264449701030914 0.7812245533503965
Ni 9.012799921178411 6.527348207922937 12.714523741169655 -0.14488140602814403 0.18064133723657277 0.22507797028339302
Ni 5.310457380425657 7.10594836538321 4.111833939678097 -2.590996557775712 -2.5695049635608394 1.0949101947708693
Ni 4.7938392939180705 2.2408232735060984 6.369134434530623 0.13067940349614915 -1.0160248931278761 -0.45373877282203795
Ni 1.8510933573915942 0.29153572308171255 7.688583498831854 -0.01840087110469089 -0.11464317596889288 -0.28376391416037583
Ni 7.858972780187263 4.647399547461386 1.2785053324864633 0.5501330298830719 -0.01030421013948548 1.201011651817338
Ni 6.8351503289804905 2.087600514256603 5.229738611567857 0.618703065642986 0.0999061268690344 -0.030747822705818013
Ni 6.478831333987332 7.238162117441998 12.220571000246913 0.3158530813854367 -0.06578861636003508 -0.8945011879890659
Ni 1.0899568259366788 5.907729155533167 4.751924857975251 -0.3906207613156305 -0.734284180045116 -1.188336884563147
Ni 1.4653324203842346 9.174849763292062 11.70905667255424 -1.4271887687021807 -0.9651946978498862 -0.767365278869801
Ni 4.889892254804375 7.9990144956582965 6.248406889675444 1.2180963752137666 -0.5703110474928437 0.3364360477431109
Ni 6.633795677602548 8.362171500845289 9.268618498789222 -0.16369648185211808 1.5251840517017474 0.3873071235613652
Ni 5.389525310629423 1.2709349402356762 9.82143954114341 0.0920812315079769 1.3320438106672157 0.7510889103072806
Ni 8.766649886667405 7.520628769095053 10.39658402857275 0.5694780100685869 -0.6700634223928331 0.5734241392005285
Ni 3.5673972511098317 2.2326469932207105 3.5724423460303223 1.2161749898213379 -0.8650862251620586 -1.4397061844429013
Ni 5.138251351589795 5.065480623803138 11.442473270316567 -0.11703353057794039 0.49188982997046254 0.11036048943313898
Ni 5.922450126540268 0.8765229120474316 12.240050163065835 0.9710827811995469 -0.6627244655292587 -0.30730750580827076
Ni 5.772224725646514 3.4389416547875995 2.519925917463259 0.05010180175239758 0.3550222953857305 0.7669862982638275
Ni 3.486569404073337 5.248099493899316 9.603139273886995 -0.44354743411133285 2.1727469789992195 -0.6405438156671615
P 7.011811147299198 8.653786053535134 7.134366439115035 0.0892123946006141 -0.15273509774460794 -0.877322105106618
Ni 2.1322309051865975 5.595472244992767 0.7190149386349103 -0.9909759205790482 -0.6552240433871555 1.7835560081515798
P 5.5233981509524 6.6214212623724205 9.61328171125895 -0.9031827749234639 -1.757449283762199 -0.20421269679860957
Ni 0.746118574482292 4.820870516520772 10.917529493917481 -0.7173622074787969 -0.03868816059881724 -1.0184592136009816
P 2.9897045507664353 0.7848074128551247 10.075492702181391 0.08502509599214389 0.6978341647481983 0.7035024187775691
P 8.231726831852733 8.19912253927972 2.824315449787348 0.7746638694137433 1.7735215067337131 -1.0943072710795476
P 2.7845917436519367 1.3300296476346651 1.5336566082981982 0.048630359413193665 0.033539783628658365 -0.06751819745663211
Ni 1.7909811980736838 3.5326755585974428 8.872747206227173 0.010724842616671853 0.4331966870046281 1.0828368085461026
Ni 3.7801363644994908 3.5070651021878296 1.1236289847128824 0.24990839906351156 -1.2169861728687235 -1.2533927365222157
Ni 4.566214217318242 8.362382324215876 10.570318068533696 -0.6046519868665586 -0.6757507025855974 1.8197201167769628
Ni 1.2175324638425462 2.2100705601008546 11.091061876741342 0.7270922902823672 0.5109003096346943 -1.7466455082784758
Ni 2.7167157845563086 7.145738985023199 7.6533934117874205 1.4801578647000444 -0.13978085157678508 -0.8863286794806026
Ni 3.164486291216865 8.95673923706918 3.0594797534440503 0.8963300136676886 -0.08538222222124649 -0.8941088376466537
Ni 7.41560206560853 4.157904345891538 12.455493315339114 -0.18695519526974252 0.1477391871919133 -0.9207626927887561
Ni 9.0641766599672 4.707612535347837 8.159004685103646 -2.3495491449953603 -0.35017705147828726 1.806426227881534
Ni 4.087819324521495 6.93307320150157 2.0857269361284265 1.6577318758652029 -0.5480897742007981 -1.5978668240784546
Ni 2.182856012828077 6.763662873884366 3.0393424550595554 -0.427362082600722 0.025853984948626438 -0.14444971780736413
Ni 7.174282636154027 8.295175500166026 4.68681801802112 0.0503141748735198 1.6476112424914333 2.275165330767146
Ni 8.354444366001587 1.7431792903513748 12.397644299073292 0.34957129957348826 0.36003080434391543 0.8516951485671332
Ni 3.4825729262656804 1.9894576521314327 8.213714266394419 -1.1037643027273893 -1.2653959316306786 1.2595446150562244
Ni 8.946399725676894 2.5358659975263644 1.3920813819619793 0.3022257204099892 -0.2067920274900116 0.05371497302495265
Ni 6.811079799799516 1.8268853347080625 7.891777813274007 -0.21006941268970272 -1.6303797091044954 0.5784488461086296
Ni 5.073922724860136 3.5512005165086196 8.815462829945183 1.714960261360053 0.7956921508389522 -0.25701698508383475
Ni 1.7493664979664385 5.055095281243334 7.060526928501837 2.2159870206347776 -0.48165941049170596 -1.5063651192230316
Ni 2.4812810770112446 7.961827086333386 0.3932039186124439 0.5440821957033016 0.3543792624850929 0.2573131761680149
Ni 0.38843106082701606 8.244935374331707 4.627279664920548 0.1276113060937867 -0.3453346357843214 -0.6720909943458231
Ni 2.266186241611109 3.6376197659824316 4.612629273911427 -0.8979639497266859 0.9773405891838006 0.730347049774239
Ni 3.2562402885898876 5.728932604808073 5.0971646265323685 2.6046174909932565 -1.4732423685271336 0.9482303020814058
Ni 5.039265195982275 3.786231909779517 4.686657608934804 0.3288178690762208 1.0599537333003424 0.8793242231383114
Ni 4.608580548572798 2.685944738684057 12.64372925332642 0.6444482929278901 1.4648695710824062 -0.8809010807071281
Ni 5.123310390978603 0.5371257007256353 4.533410100854848 -0.38792958763671254 0.3148590929032835 -0.456468255938059
Ni 4.320348336045855 8.989316030941678 8.307114519304722 0.04483798225029697 -0.8026806663416434 -0.25802897128811686
P 3.769430203767054 6.393869515640623 13.019918809309113 1.6969188304773097 0.3052529372720872 -0.2656546061541748
Ni 1.6080415098048735 2.625181776787377 6.539809702371351 -0.8122546831833236 -0.6589197470711877 0.6287357672886398
P 3.3648418231428927 0.3277460119151181 6.2569663185212905 1.4397416656665267 1.3601215427400382 -0.06967278190578968
Ni 6.483185294901635 6.260537483094371 5.893883559825678 1.3075494250702773 -0.4703141606822158 0.17429354064167402
P 6.149690221332936 5.51985081858643 2.839407653251352 -0.7703377312345636 0.21013857536474131 -0.46619911007257775
P -0.11672281743737001 4.275131306171617 3.2496873482580226 0.9162781746548413 -0.6143568728591484 0.15660229400949804
P 1.32079925049634 6.110055427662511 9.123607768135779 -0.30644387225639486 -1.0556533061527755 0.007609436916141734
Ni 6.637746324242686 2.463562747648402 0.7379468773136556 1.0785713484015296 0.19604867293057848 -1.9065503842986458
