# total energy = -340858.93943474075 ev
CRYSTAL
PRIMVEC
9.35810392870477 0.00000000000000 0.00000000000000
0.00000000000000 9.35810392870477 0.00000000000000
0.00000000000000 0.00000000000000 13.69653103130016
PRIMCOORD
 96 1
Ni 0.7780355435915927 5.858762435636908 4.884429438590301 1.1117581195661435 -0.4574154503426768 -0.6292330186400323
Ni 6.124560653163571 4.264824717907658 8.975295432228519 0.45748049925265727 -0.05999026451070313 0.11390835468539737
Ni 4.7166058870635466 0.3588327406179937 3.822770361669321 0.49527622994419224 0.2250723138564382 -0.32701706842205613
Ni 6.048011365434525 1.8584164426434686 2.4123834244347266 -0.11826997408820278 1.0332299441522528 0.37689646975100255
Ni 0.6284509360482013 3.7264436577194227 6.872549197605967 -0.1658682926924563 0.17881379710953074 0.19920830160548272
Ni 3.2353490951955974 1.5359174751962323 0.46712003682296427 1.9397569529576013 -1.5570063384186668 1.8751839541722222
Ni 2.9882390106267476 0.4461887664239963 7.734335089673245 -0.603335067827348 3.122509658564751 0.3486287331545609
Ni 4.438857371195809 8.44717646848572 6.261985340844478 -0.5882018117303354 1.205504140371053 -0.8919696798164638
Ni 5.70466254308994 7.835044193555112 4.369206877466011 1.57744326611678 -1.7196957191625095 -0.8396348749684895
Ni 9.096628860710148 5.7219563186062325 0.12290278246111049 1.6675223795930638 -0.8096421852611412 0.04694551551160302
Ni 7.248169440333635 2.5328736877788995 6.776755905563228 0.5705961828334303 -0.7831510809491481 0.00091505561510165
Ni 6.083759321317771 4.711917477142733 5.449369732703207 -1.0043695682771347 0.32256520329828964 -1.2574715345772796
Ni 0.8999098704632872 4.922989504615671 9.181633195072838 -0.5819499172833527 -2.5914007351926664 -0.6413945937032309
Ni 2.379849977149882 3.8888816206046046 11.236893604423567 -2.1122954585813813 0.12852019106130125 -1.7054559214140437
Ni 2.1962346257401486 1.2751819917357572 2.6183524779958502 -0.8355313943230771 0.11494553770066011 -3.536499947844258
Ni 8.342169187604593 1.5124192769703602 12.613093517461126 -1.0714774176692254 -0.36309813041532946 0.9262671675467532
Ni 1.0475367627263708 7.022835662921936 8.089102670072474 0.3704957084309813 2.168621129756304 2.2915910804233373
Ni 0.30347019951713333 2.052475437709145 10.835352350439091 -0.062241522438725064 0.8345548893424207 -0.6647762058519647
Ni 7.831937303148505 7.726415326567488 0.8964539227911189 -1.5359253493786515 0.11868700702096335 -0.3366152536334525
Ni 6.7310780659135645 6.180662484451545 2.5963553195929285 -0.27116190912564914 -0.14761628846080382 -0.2833597367434217
Ni 0.451679165826274 7.245951569772293 1.8315549419714083 0.4152943528029106 1.6442734363674523 0.5030610160959337
Ni 3.4090635729601804 7.669808157683259 8.121508847147892 0.0395430523999448 -1.0738734287052278 0.8149990786976802
Ni 8.414750639392672 3.2609622248428347 9.059926378256197 0.05477375330677019 0.1506522470736502 -0.401462846236457
Ni 9.242390682918904 7.643165636636242 6.273504230608009 -1.5202099955259238 -0.29002172214462957 -1.0782162790549559
P 7.951674239150113 4.604608102767553 6.408099963560249 0.037793673809005876 0.4046641267825741 0.4274191610909026
P 1.623799426426486 8.672004908301165 9.731590229456772 -0.6947611822498293 -1.4476688909334037 -0.9459566755558806
P 6.452824212449572 1.8711528216898297 8.723950805765122 0.3377329121776635 -0.16730193981518926 0.02327645402943733
P 1.3295900062659132 7.268008620038474 13.370895905184872 -1.2032253716392054 -1.5401175330831283 -1.2083225836564546
P 0.7728708061957906 8.389820651310743 4.333103313644659 1.1000359460332088 -1.5921098669900193 -1.4245608441610305
P 3.9911376190172314 6.5702403387498585 5.32930619888476 0.22024429634017553 -0.59919610595831 0.32728497737146217
P 7.957363966159803 7.903760748542202 7.964929992948181 0.28709657807803457 -0.02970318349138755 -1.0336798872054778
P 0.18736888677747407 4.922783626335716 11.404005004263748 -2.0802258317403464 -3.4377179072773374 1.0146868910427427
Ni 3.334872527346992 7.9016645333281055 11.057291007852246 -0.2354983942857686 1.0474196053890734 0.35319269837615946
Ni 4.633852176624921 5.4332681795899305 7.485852171301234 -0.4925868560374872 0.7767798873154816 -1.3619776221121704
Ni 4.420309609792512 1.4247712783309656 11.64069484043574 1.3698675663832085 -0.33616659613180816 0.9603152582703977
Ni 8.629659489355697 8.103284876130344 9.881595015853346 0.8683453555293045 -1.279346737383816 2.0537725226448242
Ni 1.995681106752228 5.800077767745851 2.4747299182779083 0.18962065791704763 -1.7434082322881008 -0.1493445840058202
Ni 9.042847839123494 2.7427665941939097 2.5626755046128755 -0.23619130658773513 -0.4381427181559938 -1.017942421865563
Ni 7.846638883958081 3.9378712931304674 12.29012945226326 0.3621087699188667 0.6702948216773489 1.590989637342647
Ni 8.463244332425914 5.749366204151266 8.068118994293153 -1.5130654140613424 -0.07073027663602657 0.20280810314159908
Ni 8.651155053403818 0.6995425777376902 8.766642474545062 -0.12174353445910001 1.6026112807419755 -1.0733928895243838
Ni 7.032128259830853 4.063541266836257 1.1083616289186058 0.2015518621369948 0.8301238501542606 0.4775371607932163
Ni 3.0252596686042663 5.7348330692071094 9.267264522379026 0.051794101853155965 -0.7233253670407672 -0.42867411654392623
Ni 6.435904761078653 6.978553116524155 6.545585478914779 0.6543951197279568 -0.9758966576484224 -0.8176899952662819
Ni 0.9839110161163725 9.1363820849489 11.848759173400596 -0.43195998638404964 -0.9253158593770774 0.8698597352913019
Ni 2.620643341765541 8.31218582356011 3.010442983119988 -0.6092792012259249 -0.6476439170470524 0.847557729359992
Ni 4.409463567680291 6.4115362592147855 13.014758298413573 1.6376641585810505 1.8747077858667522 -5.027893790469438
Ni 3.9310960260991923 2.626510872744283 3.8506565746893435 0.14013514959241027 -0.7822401390991044 -0.4103758324553706
Ni 3.3823368289804545 4.450901250573227 5.137390209551352 0.4466183597271728 1.90011671285816 -0.8428245855503808
Ni 4.4743245839700245 2.536158382154559 9.477917306809147 -0.5103680912803081 -0.09006805773269004 -0.7622739803898226
Ni 7.829260885509079 0.7030350220140326 1.4070442226164017 1.149145044855034 0.4475640114698938 0.5773270737993605
Ni 2.2593737509611604 5.7917116230967345 6.733967848315855 0.6491436415210304 -0.4290052746310999 0.11116550183293758
Ni 4.489035522883235 0.10918380253314204 9.285823513506687 1.10522134688889 -0.3724690301072682 1.7860795459043821
Ni 2.0105698496344915 2.0368193303288646 12.590399180337444 -0.3203972491126934 -0.232124078496897 -3.274708424189915
Ni 6.1239149440128005 8.828706353658486 7.855960490988266 -0.07753855780711162 3.0651689158617534 -0.3155268083942695
Ni 2.7142056619018495 2.4607694992761733 5.921256787517512 -0.5024048705691734 0.5617467028626003 2.1117804666181756
P 7.095061506771909 5.950743236259011 13.301358644509051 -1.7493492803628843 -0.7144764012905696 -0.4110021531854599
P 0.6365924862100926 1.2938794827972038 0.25207549435724064 -0.2926103088074122 -0.7139688655265316 2.0736026699968737
P 6.006311655639827 8.49504316857546 2.1127313312004112 2.3445115825714526 1.1296419418250998 1.7824997989729239
P 7.86692725263737 1.32934669557142 4.018767419997673 -2.1664901994562302 1.5281549614046133 -2.706757906509448
P 8.980532227022305 5.5132893237673235 2.838332484318334 -0.5442994539204302 -0.9279640956332019 0.22217159526987545
P 3.208388398625013 3.771156676884384 7.785655865814427 -1.6342078246013338 1.2833841406779831 0.3789587515966699
P 4.372517774531847 3.5366800322219167 11.372256701873823 1.7238529358639922 1.0467824860257067 0.02783579126534561
P 5.373432464951847 3.9621181396470884 3.320285115401755 1.7881539119349077 1.1840377429671607 -0.5649785795363367
Ni 2.551982935400258 0.9989307724495168 10.47657201520145 -0.3616639690719642 0.7681705483799157 -0.7699271260597063
Ni 7.3943710934132065 5.59443344038084 10.564791793972905 0.7456633684163352 0.13287949647126146 -0.09005880176130941
Ni 7.233290055555007 0.03524823314917186 5.529823221268507 -0.7249441335911128 -0.1622983159530108 1.1132303332362958
Ni 4.44407919302378 7.838169800168989 1.0550195023924032 -0.8992914102888577 0.13040455256820768 0.2179267039505924
Ni 1.8259906135504191 8.882730685939633 6.088874460764312 -0.24423397438655356 -1.916508266842306 1.7705608814434926
Ni 5.905983426575878 6.737712961390325 8.799884330275027 0.15316935706854912 -0.267118592294211 2.2309259013327964
Ni 2.66983889257136 0.7879869509963687 4.589830721318539 0.9174860789200134 -1.3318252668985064 0.48365715764802514
Ni 8.238958662621261 8.44346130134288 3.4541967709783243 -1.043565778860622 -0.0532424042639083 -0.5117420888096993
Ni 2.2738694534907804 8.70757506021536 0.775319821916902 -0.49644813876510635 1.8529050881693636 -0.23676003460701162
Ni 8.48404739680509 3.496355963661469 4.741382402245872 0.568924194447646 -0.3569660493756626 -0.7267207658755613
Ni 6.918436658777042 2.422841105246121 10.86741602092149 -0.9071366173648894 -0.9927944618450256 -1.2267558506609777
Ni 1.7681294587791854 2.6514876513443837 8.944300457181162 -0.31818121529798105 -0.34728610308373736 -0.8044683543696854
Ni 0.31169784423246066 1.0821055975516882 4.930819429926539 0.6917401360353184 0.9129287985666342 0.8160102935710141
Ni 4.986746264676552 3.217840083295714 6.950619177175597 0.5178687705327274 -1.5722851189546083 -0.42718570492385777
Ni 6.0480675140563305 7.658091811933042 11.08571156858979 -1.5141725310825922 0.5136902136750056 -0.07327772564822863
Ni 1.154977150552432 3.5044694395124574 0.3474607730815222 -2.3005488038372572 -0.5008982041166599 1.4222126556438281
Ni 4.084653148635368 6.491014633381386 3.1069212883487625 1.0951860741400752 -1.1795609381427297 -0.1931736653756286
Ni 3.0279828767618646 3.47514114272238 1.7888220975354772 -0.018372331859600615 1.3038604062544643 0.666194169245414
Ni 2.456792305231571 5.048079275896131 13.226082058874278 -0.29561361441011025 1.8413518361141255 0.07222125935925627
Ni 1.1886195331179479 6.4054534918524535 10.71795961939789 1.9980721437587265 5.112534506538969 0.9745064621691153
Ni 7.916291249308607 6.263603356962859 4.714400182036928 -0.8819853149102422 -0.22324991593571872 -0.19731365568593115
Ni 4.4699730657800485 3.3841429429818852 13.547635857854445 0.3766481011856223 0.7916179807695786 -0.5051009293440979
Ni 8.026651365468588 7.55475027349883 12.16165672651898 1.8775025750030696 0.4699228387810681 0.955205190737342
Ni 6.2534498145195805 0.18922834196962096 13.440336777393261 -1.050461734649507 -0.6932879401384124 -0.9022466362624397
P 4.024237231571955 9.140958197626102 12.92107432293002 -0.07711689688866073 -1.3649585591173654 0.5160078060645887
P 4.35098477806919 6.056293287150932 10.78931890285132 2.21730445389462 -0.3542571350849318 0.3352577111642936
P 5.212576021580872 1.2337910993609926 6.081889572211627 0.01897911220566409 -0.9500053917039576 -0.877601841130566
P 1.5723579307484215 3.0603899896476454 3.51770741291362 0.8238994665111036 1.4512044148904877 1.147315962066095
P 1.0522438888544527 1.4853462831561632 7.021129680629393 -0.4632765371091441 -0.46033519509263304 1.1414672165948019
P 7.358183306659146 0.17531658510678472 11.192558652645433 0.1630868732925772 -0.5741569036014951 -0.12148256748822948
P 4.125164379268503 5.420054537258218 0.9209478232436867 -1.2109654205959404 -1.9740667819830648 4.604981516109953
P 6.332778459028031 2.31948085060464 0.13356166250064394 1.1645138140016202 -0.5384987880782532 -0.1506015963413729
