# total energy = -340893.36896933924 ev
CRYSTAL
PRIMVEC
9.04845373136368 0.00000000000000 0.00000000000000
0.00000000000000 9.04845373136368 0.00000000000000
0.00000000000000 0.00000000000000 13.24332666757411
PRIMCOORD
 96 1
Ni 6.244808262112848 1.9422052959655443 11.591036325993137 0.6041171974090112 -0.013929465596898592 0.4809055630448169
Ni 4.667843790632613 0.1475024594640114 5.894671116166642 0.16036407504477543 -0.04792870536047875 0.5246546831063094
Ni 3.062403836069131 1.6883147399335043 4.944594359521823 -1.1957964261649858 -0.7677702276177035 0.9972861790677922
Ni 3.438149915037964 4.478903033638243 5.033483651916134 0.8390453210136065 -0.6567782752481527 -0.8674876355146997
Ni 5.341763556936127 4.678439529650879 2.661722933861498 -0.9034038897953344 -0.3821433199722386 0.06544203165389374
Ni 7.487685734419379 6.1432755656790645 2.4227740890513725 0.21413381256706346 -0.5229055616256866 0.6184438984443286
Ni 4.628754471624152 4.156425200271912 11.278757909382902 0.8095223718538251 1.0774542040779507 0.6971515368588768
Ni 5.384445111973839 7.943392996739548 12.348699529200195 1.093840101635142 -0.30918029735095137 0.8156845348004792
Ni 1.6468818714752302 6.784041798453181 0.2984225198052209 1.0907270099274569 -0.08863029684489897 0.229008929906683
Ni 2.5192070771071076 1.4375549488035309 0.38596721201326784 0.0432878641543577 -0.03419952869984433 1.0769734077867903
Ni 0.656512351509885 0.17800389128012756 4.548354438279318 -0.07430848090558814 -0.49124576862856034 1.2160541479727573
Ni 8.817971267286495 2.3622887969578636 1.474551360523414 -0.8152291924306153 0.6841648947912218 -1.1018033223462766
Ni 6.776676357325198 0.8321989338552748 4.800374678978245 0.9141374741627548 0.08254449566213526 0.05638506365794805
Ni 0.7858943780465019 7.621756669546317 2.6941688783292155 -0.34760054900036264 -0.3365237223609107 -0.3839531194874678
Ni 7.824179622217215 3.8511213315995776 3.973977613490615 -0.46673235686822845 0.2320898828248519 -1.0363360938814021
Ni 7.6779566140744535 3.815280407388347 12.623102024412855 0.7353843550878303 -0.7763659397065145 0.26961024836781305
Ni 8.159126224470967 8.940921653093666 6.624669577721739 -0.05567312519258799 0.22364020939560192 0.7606246177118577
Ni 6.521500920899824 1.087388847806207 0.7687421296408447 0.6934720311247605 -1.160572055745053 -1.2203116376975307
Ni 1.9023468584117778 6.490166126518735 8.98173017826222 0.3515808738043493 0.09084324533581774 0.812561415790465
Ni 0.31047053560609267 4.842759444742002 1.1313824285976744 -0.5199786177868787 -0.27125909682514576 1.1693552012543216
Ni 6.412141312210874 2.0920295885910303 6.956652811462696 0.2310113050486925 -1.5144355549359918 1.396475141668408
Ni 3.477456396929806 4.592207768041935 0.6270143931840555 -0.4871392026593546 0.11608967860743231 -0.15670051015025915
Ni 6.393483401147113 5.7561374837862385 4.6660612452981995 -1.0846103555067579 -0.8602330108348152 -0.23150135731123356
Ni 5.181895480954301 2.7217024174058 9.52032308409658 0.09536504446557124 -0.214008856953425 -1.2895964401362823
P 0.24864607239840472 5.527645936656224 12.319988786326617 0.5400373362099667 -0.2336153183304428 -0.509246318971039
P 4.182068517417741 6.0600931328909216 12.507566846227776 -0.8614493997404197 0.6878408009809122 -1.0772418309568286
P 2.331596442773442 8.537107271447923 1.5196054200620555 -0.13543517301357966 -0.34678010998159636 -0.6881907281211632
P 6.503168754161134 7.748652181068228 5.841458970975679 -0.35440317374449287 0.8587003762403727 -0.5133148326134579
P 4.574472799232542 1.0498287174348824 12.963084091024987 1.1156893362997495 0.06263438700176954 -0.6627766589234327
P 4.141124265447073 6.141782570855825 8.009736257612241 -1.2766997866792722 -0.4729356574654629 1.0563814425680516
P 4.842279876707871 1.147787274746364 3.7855119003036397 -0.4226099126277173 -0.8588230178611661 0.23933910818809748
P 0.4666839412296979 5.64643403386527 3.578598200173504 -1.0046906990619793 -0.3584115235729376 -0.14706992903903057
Ni 1.5618716510853012 1.2707286121000592 2.6284164814683852 0.7734410527502357 -0.4648991603142316 -0.214110929748928
Ni 2.0225465143627956 6.511285216927473 4.998534905217458 0.11049264413562908 -0.12951520798471888 -1.4967471365172933
Ni 5.799235267683761 5.587926733701217 9.33727377515925 0.31988071448759103 -0.28115090201756093 -0.08735580100784957
Ni 8.436796116233154 2.3071022792188343 10.343130628091002 0.11645760346981233 1.012345901614392 -0.3235761610613072
Ni 2.321878403742172 5.084959398885401 6.9796042136999565 0.10244277724795905 0.05746389854442362 0.8074927430183061
Ni 0.661747786690046 -0.2470390670613902 8.890775123939754 -0.04662901271244872 -0.9822220856458181 0.5594458226435656
Ni 0.9841278967588554 0.7885437652237419 11.215309248776599 1.6887887451710075 0.1373028223499377 0.06002420307243211
Ni 4.1022702062289405 6.8259451864921115 1.5451917319509965 0.7178548308444992 0.4233640171849225 -0.44861405000096294
Ni 5.61440250856667 7.9235587867241435 8.028488272592133 -0.252322664931959 -0.33164531122268687 -0.21932281296717065
Ni 5.375613821383038 3.0152523450151745 4.88335714094461 -0.6783423745721736 0.34594321590259774 -0.043853763960156736
Ni 0.9369583087979508 7.397246441944941 6.9496873119782725 -0.416856812194024 0.649024599444663 -0.9809239356596848
Ni 5.135404527003959 4.1859864977720616 7.17990892341255 -0.5402093430114566 1.0266687459949673 0.2634174892935399
Ni 8.063538361969721 6.905490140983635 8.899356677214667 -0.08529017672807246 1.1439010228472752 0.850933073590128
Ni 4.779076429190718 0.4226297357999537 10.434032296537971 -0.5952980564554844 -0.911466869309127 -0.4102105105221
Ni 8.225578066785351 7.223045615660012 4.570947521759001 0.7886486137286096 0.7393507959347461 0.3988279797167712
Ni 7.016695634181318 6.004028915164896 6.975431971803012 0.6363544601761622 -0.9552638118894193 0.2905161452825448
Ni 2.395749977905384 5.494347627871239 2.5640267817007674 -0.8947477567822333 -0.5932979953063201 0.3905423426692113
Ni 2.429066383597318 5.266199921973243 11.353318070855499 -0.9231767015468875 -0.007938538120786327 0.23958310587810352
Ni 1.1679110352729423 3.4122713381018066 3.7698580757933065 0.324177542090732 0.45848502925777174 -0.3735272961684535
Ni 3.490739526629903 2.80857661921141 3.0823448178355304 0.8581257346838254 1.3274988716090106 -2.256144309579953
Ni 0.8269879294994941 3.2391653746872535 8.255598120876641 0.6161548452998357 0.4635781275099629 0.020418929975984188
Ni 3.4994893811394356 2.4546644584757757 7.381035232700599 0.2237199135936018 1.0281000791248551 -0.8475474449473468
Ni 4.510210682658909 6.682590538100666 6.030255857559809 -0.5131338269509034 0.11677307782770212 -0.9887979390911228
Ni 0.7991069298095006 7.339327291256709 11.20226499824822 -0.08817418314408684 0.03703956925180072 -0.36264561625894315
P 0.29414260131193337 5.579520720423703 7.787472761008506 -0.6983345014233844 -1.5327189266262118 0.7977762870614905
P 8.635282991642786 1.403822314251785 8.275966189647022 -0.6136439059525239 1.4018433479588566 -1.3682097190648115
P 1.797077150693158 3.1337780370734696 10.395547414221586 -0.5506068841956969 1.148649593275854 -0.5971466796284489
P 4.098424613502414 6.148605104775358 3.775354106433524 0.6820715025973028 0.2960131638413741 0.3730994646024155
P 6.831319967855775 3.948790338399885 10.592303320481605 -0.8359407139463539 -0.19036910604729795 -0.3955058573220737
P 6.300537687060328 7.577708798034004 10.212326184668246 0.0038587116244578703 0.508146401038641 0.7963128151420867
P 2.444774498828496 8.50798934816801 5.62003064662761 -0.16802467691382678 1.2387209934426537 1.1559818652712093
P 7.0779084219341515 4.0332667000348374 1.5487007222082836 0.36233399855579534 -0.06681422941107203 -0.05093946716234453
Ni 5.179506689237116 3.166985861323713 0.3509750327379157 0.8725928179517487 -1.071126204977394 0.15426361857399237
Ni 1.484896457380445 1.176543259887311 6.907255494256448 -0.2010186153413441 -0.6319226496570536 0.04438778208675581
Ni 6.9896769521074145 0.4394670980247094 9.319566856555626 0.11229498745169048 0.5934625459086424 -0.2773562108618191
Ni 2.5663857135214863 1.4303433313846088 9.302615483817096 0.3099979081562403 0.044750564742813255 -0.3883391643703054
Ni 6.31255403327404 2.281757561037654 2.7774698458578713 0.7426706043365984 0.43520446146327624 -0.8671708756052292
Ni 3.9332450953312423 6.954641340255385 10.243885380695492 1.3445144323304006 -0.30262578406188523 0.5136925276678508
Ni 8.135446421729036 6.998770647848966 0.2734605512059982 -0.24096096006223666 0.6174321693503624 0.12584264422913813
Ni 7.497186610567268 3.958797927942329 8.520200236131416 -0.06884848623228142 -0.357624508895268 -1.054998703287912
Ni 3.0013810658392557 8.528764597344729 12.247547772657674 -0.18193357368543506 -0.5094833746825096 0.035995187147686396
Ni 0.0036410976780103664 5.032722676978955 10.111928164300126 1.2011607758006926 -0.8985928415599364 0.11331391563450807
Ni 8.66810173239364 2.277595272439531 5.871587606508659 -0.23905808661256894 0.7422065202159862 -0.2250751420699156
Ni 3.3616180955533426 2.1652949163714728 11.559053662343297 0.42040596299786315 0.22235362937369446 -0.5490289981856158
Ni 1.3331900864323294 3.2396992334422303 12.589556692848022 -1.1139656687404236 0.47968763147731586 -0.4497895583663028
Ni 3.041447617822928 8.466665061151424 7.736790563408924 0.886047400794758 -0.30310580902209733 0.7586955190099449
Ni 5.663698483094007 7.991123588815852 3.661753487601226 0.43406109188745245 -0.7637189403664654 -0.2598539403119976
Ni 3.2984870356639835 8.328124190008243 3.6486287058369267 -1.1374629805314154 -0.31372497929884036 0.26783130209051936
Ni 3.3569581420141397 4.389069987546576 9.113990517848976 -0.06918272964324858 -0.6259057540390124 0.6168626700001376
Ni 7.279299850908994 5.966414494072726 11.429149540041221 -0.5845446745937223 0.6346410770294812 -0.2341171976675258
Ni 0.4255614347255883 -0.06990563700547885 0.2991228701041225 0.23218167120770983 0.24139264828301651 0.751509542784467
Ni 4.383541382473852 0.18811010896544011 1.7965767712160357 1.036103666155622 1.1856287416033646 -0.9564791723537591
Ni 6.0179182912477645 5.521891120246645 0.269027713848997 -0.03428437510416676 0.9991862243039825 0.3540661021200483
Ni 7.905561412763998 8.764042484580377 11.62967955624532 -1.1343354906460272 -0.3130996870100156 -0.32643471355602494
Ni 0.23582712836153272 4.821821323402748 5.656767367732785 -0.7353833266465657 0.3885265977907631 0.7058575492733069
Ni 7.8072861595809195 9.146629194375691 2.639487264294046 0.36047200564639215 -1.0162614346187142 -0.4330701887290929
P 8.665930103559836 1.8005969990946142 3.579446040264035 -0.9319673032553238 0.11800849289669998 1.1632848266905256
P 1.9590354194275206 3.3472853452502402 1.5091435981552075 -0.07883182269723843 -0.7801202645426242 0.7819264645134276
P 4.82511496046735 0.9684650237950484 8.166616534256894 0.24540099811146124 -0.2447278833038366 0.1423126168597033
P 8.563709724662015 1.6347840891802505 12.523445977229615 -1.4898609509204213 0.32060345158622844 0.6363768287736653
P 6.34508322351372 7.825717859307826 1.4436554161358237 -0.039653352725563966 0.2001974049916294 -0.4114194432285366
P 1.782626770494891 3.2098212400704855 5.919846628267854 0.08312813607974716 -0.5441058498523855 0.7207828031245715
P 6.9510491042261355 3.9373078509411497 6.023197159004601 0.987404401177706 0.9905385759313133 -0.04881187929638045
P 2.4970926568162097 8.48113353825664 10.07920443231075 -0.9371722444950312 -0.04791353585182716 0.45894371406174506
