# total energy = -381164.5649001822 ev
CRYSTAL
PRIMVEC
9.26972099833171 0.00000000000000 0.00000000000000
0.00000000000000 9.26972099833171 0.00000000000000
0.00000000000000 0.00000000000000 13.56717367882436
PRIMCOORD
 96 1
Ni 1.2598755883968213 1.2595696876042768 3.5030303415996653 -1.262277440606355 0.25755537408580803 -0.6925924567332845
Ni 8.239771557140516 0.18468343212427357 2.78147433306209 -0.5265110195887577 -0.39149262239762256 1.020955497660274
Ni 5.8407121475871415 8.008436400209014 5.663793033760906 -0.03863365321179798 1.2151761162431782 -0.6909868028090616
Ni 8.338799986436044 1.2666702938797028 11.0516023724882 -2.0783044463479174 -2.0469544712817265 -0.8724346951073297
Ni 2.7023739499426846 3.980001054028071 1.7254463979564036 -1.7318986889866042 -0.9211609566684393 0.37068159918954224
Ni 7.090437391504079 5.198496607942515 13.022533229489433 -0.4368360835294283 0.4219144292225894 -1.9449876052289212
Ni 0.8147611991095758 8.871938719236107 8.306488519994462 -0.13095014065903254 -1.3286887781520536 -0.2442296035111794
Ni 6.103239915637191 2.030560191189135 11.752035467814531 -0.8446698662892357 0.43518774929272797 0.4416131932030975
Ni 4.322424547258142 4.695503007789562 3.767332334246473 -1.724271768568966 0.9361108931100522 -0.12343994832491643
Ni 1.6083892883148225 4.704207275795599 12.975305855008964 -2.170591108998481 0.2729197723570203 -0.1769443480009598
Ni 8.9815995185028 8.008427130488029 10.325908360502387 -2.3619459759978163 2.4606984488783814 -2.2218113406260382
Ni 1.8578838286582806 1.5199098015015842 5.707872410994463 0.3238263293989004 -0.3024054405209631 0.5983887795656662
Ni 8.625892515099512 7.037433126905011 7.831556219210921 -0.6971032001194446 -0.262955976276089 0.07358085871094425
Ni 1.86675495164207 6.010848606567778 4.494709727563379 0.26062167171595757 -1.13209785956476 -2.4602150814840598
Ni 8.4996574547095 2.43910460421374 2.6582028024713638 -0.6009580829547393 0.004878925358856113 2.0204553965499334
Ni 0.6311706670895747 3.2538296514114697 1.031889581657633 1.6050692553641646 -2.626026552796651 -0.8102934456918949
Ni 2.441894790230585 6.522565014168741 6.660573547183322 -0.19349633882237 1.5554459359100825 1.6008125369703399
Ni 7.9334350877097055 7.655111715099178 4.624737030808845 0.5245297274926708 -0.22841989017243244 -0.2713619409515972
Ni 6.112963852951711 5.773274927412567 8.896348675509056 -0.5054845379357616 -1.456619415258472 -4.253211152002617
Ni 6.927707439591413 4.074329734783599 10.566793183993868 0.11211758133356174 -0.6025087152713108 0.4611965146516638
Ni 9.060521922979273 8.382108122883551 0.9466035137241391 1.6251135756095496 -0.11325298048958561 -0.146294998546219
Ni 5.621242233517971 3.4506443673903773 7.309667219799707 -0.26757239200217786 0.623695376651255 1.214571907000276
Ni 8.04409701684291 4.75615479220224 7.2773233093346725 -2.8106353593214046 0.9039039693602047 0.9309715150009581
Ni 4.267112122133512 1.290363700720419 5.096373018809695 -0.3117917668318695 -1.9745979718961864 0.6719696382766105
P 0.25800692512508183 1.3007643276669307 -0.15621148411517333 -0.6622866066608917 -0.7008994339370832 1.9577490186596476
Ni 3.678633155045861 5.197282274493323 -0.04909151537079401 1.3635940746696709 -0.2233486462971121 -1.5548059883332384
P 2.6684653105751805 4.000598374059398 5.501692495903202 0.4964404254556224 -0.3884497218062407 0.6597376149867927
Ni 0.7777731584304575 5.331683959072175 1.9482599003852947 0.16498486164623843 0.7478758026866217 -0.3612831886937778
P 4.22120846380987 0.1777960294315301 3.1272469764844733 0.1637540745629309 0.37072042284727763 1.193675266056925
P 2.6266866780903966 8.76924875015103 7.11048779799722 0.21484575103242354 0.20178428986277505 -0.743403625847881
P 0.658426427705286 4.63234839871061 10.65645826812124 0.6638259261235535 -1.1372230966064674 1.3553233500204465
Ni 0.31230709671801926 5.857638658107935 5.942774556561453 -1.614635301786045 0.6760643771712744 1.4234547555810453
Ni 6.95661042962637 2.242901689819921 9.04717445173125 -3.1447286178639517 0.589574523708146 1.4617690777802115
Ni 6.404858097086028 5.5478723919122315 4.474779827443058 -0.707793075733123 1.5488492565291714 1.5244322611373875
Ni 5.217759088151829 0.6821151996855093 9.62588220592735 -0.6787079854417085 -0.6795271389088943 0.853096399790034
Ni 0.9920455399426679 5.470905898563849 8.477977431266984 -0.3592162788624201 -2.5846806428600133 -1.0257660316750399
Ni 0.8990554068975467 8.332403878955569 5.443109713214642 0.7189004985001941 0.18583547984300255 -0.03449957643876639
Ni 5.578768371959223 3.0822100370730414 5.053528368411498 0.8110264672031775 0.407113359654015 -0.0487206051341548
Ni 7.6651322834852555 2.3331609630625088 6.9587795443371405 -0.17821370163168662 -0.25955826344844973 0.10865276271341287
Ni 2.0307733947718174 7.246122355467236 0.37623294658302225 -0.26365737321848787 -1.0883425688556805 0.47540905870662
Ni 0.8507323513965083 8.939895043785908 12.18585933694059 0.07514486076395446 1.033510194396833 2.2661142763084716
Ni 5.840016918513176 7.6542496310474615 3.291939328329917 0.22953780582695954 1.0493276210450637 -0.4127677297263149
Ni 4.341705566909429 7.0913365544397395 9.782990072061889 -0.9373691909971857 1.5151624057996875 1.014523368881685
Ni 9.080924578869888 2.913677239823017 12.157503260443818 -0.8409690203988807 3.6784801210652067 -0.017300181841344398
Ni 2.271749061528962 8.658716597111631 3.0300113112276748 -0.9016223724148794 -1.7629419314456543 -0.6428562658504219
Ni 3.6243403992297125 7.343333919449471 4.3937290950281565 1.9263409366620117 0.4863285338326011 0.3378956630077729
Ni 3.371823929844755 2.379250015805874 3.314827196416933 -0.3479476479271362 -0.4203296012339729 -0.13271031788324886
Ni 0.7129453647134977 6.826102027861721 11.766375726180176 0.8125197639192524 -3.7565529541092335 1.2446748970332435
Ni 8.080693875296411 8.965006717937511 6.692809001912818 -0.30247177498252426 1.3468019428129967 -0.4477681570608998
Ni 8.960594330748082 3.213441477074615 9.175357080500463 -0.1477337878752746 1.5326862736160636 0.8641122912845633
Ni 6.5101157788842805 6.575115062439485 10.741334614387142 0.7216981158499893 3.5251315581063163 4.098021422069929
Ni 5.573660755695829 0.9808662564333158 7.0585931190002 0.033714104422993545 -0.05876230564087299 0.41502335852971106
Ni 0.47783557739641785 3.594760719562762 6.727418432186878 2.1662230618377727 0.026415770989367413 -1.3455282183068957
Ni 1.8112849412606746 7.141114956135611 9.495339506195052 1.3761377156626364 1.7693707177901334 -0.1139327801654296
Ni 0.8306328153821401 1.783679712163784 7.912090628166891 0.6666235434733486 -0.4998831325885842 -0.0902914865974058
Ni 4.11070411993343 1.8442202599246282 13.656309615148228 0.2637998123336231 0.4249578440346037 -0.4910714478342253
P 6.126896243593963 2.350736354052336 0.4716897523825701 2.2748866231844627 1.3187812892303548 -1.7878980871703596
Ni 7.872366165852648 3.9149554218679357 1.0924468149162525 -2.8366981178467277 0.4990837766157405 0.7160694568093023
P 4.1377995143760815 3.652668666563527 12.001834055006336 -0.9252700937408066 -2.230722527072739 0.33011576195203796
Ni 4.231609090756382 5.249841592485053 6.175438064510275 1.7688125312938183 -0.02994075342349037 0.10134928707346416
P 0.14182024228410445 6.866545820524493 3.2876520823738016 1.2951963028215632 1.1719157628926462 2.0076127362593104
P 3.591377271402801 5.865332526526477 1.9035826261481272 -0.06728859794432927 1.618986379665889 1.9191709012761338
P 8.946254072382438 6.108069440271 0.053443649373812914 1.354108760887055 -0.5917195950756067 -0.06384511948041909
Ni 5.885827879626956 0.8138740868111968 1.7976371310526988 -0.5104223415570113 -1.6350447186803325 1.4569567439932327
Ni 2.30708523792834 0.6447183643108998 0.9737619422694954 -1.602270609573105 0.20966214994895505 0.5765649988223553
Ni 8.579200930492044 4.834196573185022 4.121815734479584 -0.32528568755324627 -0.16280713726862928 -1.1151776867706535
Ni 3.5185543433352473 8.714464699122614 12.967938280769136 -0.6418846459657719 0.8807594129229414 -0.6799577986884097
Ni 5.807025981523306 5.766915898816038 1.4982362668637599 -1.8176097553021795 -0.6684582826892422 0.421139755840094
Ni 7.846299710439465 6.4485926406989 1.936958256558925 1.5186984439774036 -1.1499749969554969 1.292831145023496
Ni 4.87123837824586 3.5227813361049525 1.8311073126175559 1.795395681098985 -0.7342795520594257 -1.1384528552485103
Ni 4.235947320177922 7.994615246218597 1.4045824217960272 0.33072665606315943 -0.38972473186392237 1.1372801750966477
Ni 4.492153138515386 2.8582999266514837 9.565440844181058 0.8737459577195856 0.8207938310025864 -0.17972422473894206
Ni 3.574089241763546 4.8110964284874225 8.656806107616378 0.35022718798993235 1.5818653064438757 -0.8071705837921971
Ni 7.8349072233474315 7.708839017935168 12.599115549142477 -0.9432310490946013 -1.5075624819652425 -1.3676967839841347
Ni 3.56016612084228 1.5793843313490161 11.231082710222923 0.9346458785287516 -0.8236228158109492 0.01573797956054709
Ni 7.338179954581146 0.46020178716437776 13.36282468689268 -0.2844347149751553 1.7698828815398615 0.44622061006812186
Ni 6.608476788268804 8.546886683134167 8.63398683546466 1.5488693111338294 -1.0680614500091412 0.3662320480586209
Ni 8.380068784266587 5.7857519718599875 10.011394143217556 0.6497931021795712 -0.05798377560363563 -1.622103328028316
Ni 1.1115137040127585 3.4652905265485665 4.265424105941926 0.7398722156558548 0.10373321392460846 -1.2924498504246775
Ni 6.801157208687869 0.9798187779618758 4.738484850058354 -0.7979176977353613 -1.0282240062972292 -0.02879661251671815
Ni 1.2725287575429787 1.0566091466115213 10.527191081996643 0.052316035794897 1.02263468513491 -0.9148728096668824
Ni 2.882836878101944 0.8395725343012272 9.02974088747251 1.357855629523997 -0.6149209728927345 -1.5501252950281175
Ni 5.253651447810379 6.767443233461075 13.00887058772788 0.677483369005988 0.9248551176905748 -0.7720115193925607
Ni 3.2124496169290917 2.6756400746184963 7.43456651339561 0.18714237157988417 0.6366205693533552 -0.7705138518011116
Ni 4.844448884595755 5.13756673190025 10.797909575510094 0.06781001766543805 -0.9136307097296653 0.6171930567563629
Ni 2.610520284690471 5.527358499369781 10.961502538446574 0.4796531786949546 -0.11780023354063583 0.0035810324830389943
Ni 5.414036160313538 8.871873831189202 11.954619658135247 1.800536087649344 0.5191072709255188 -1.6241560967922866
Ni 2.024460714780218 3.345599889174807 9.596441572075195 0.3954541781485319 -1.0626091686453183 -0.02457254713304155
P 8.304965504836431 0.7370327346961273 8.919494241839487 0.9372804879381212 -1.4904183660857881 -0.4648245983225543
Ni 4.688773190353584 7.803000843712945 7.61540393828271 -1.7890417138564993 -0.22478512163332254 -0.30017063765317337
P 6.468661586634013 3.868523389448081 3.2323109211141143 1.5206383413125941 -0.4544699945611076 -0.479626182111761
Ni 8.695406152774995 2.098377469924143 5.118175402569227 1.5940690475989192 -0.6069328124809353 -1.5679623232095383
P 2.6130879974036474 8.153201632850434 11.206227807342636 0.6453103838178692 -0.3469785991456476 -1.1488198003051313
P 6.423267762964613 6.354236150780412 6.753521966484006 0.5769468076418064 -0.9256845555704057 0.687680621253964
P 6.7465307429162165 8.012987833213238 1.258594512956529 -1.5050458861909757 2.0215293463404023 -1.294068359864707
Ni 1.9707334119442277 2.298798107366681 12.627429911894811 0.7798212452449667 0.48034969054134696 0.6119073828773913
