# total energy = -381162.60423221794 ev
CRYSTAL
PRIMVEC
9.30225094039336 0.00000000000000 0.00000000000000
0.00000000000000 9.30225094039336 0.00000000000000
0.00000000000000 0.00000000000000 13.61478453720933
PRIMCOORD
 96 1
Ni 3.249815838649602 5.332013119638301 12.499406891915898 -0.4792181480400651 -2.7799474433192444 -1.2815429737041866
Ni 0.1458872039499359 6.397092963460006 12.092134804173982 0.8818122796674878 0.5236252134005305 -0.6478555188372261
Ni 3.1401236937170225 0.394804280596977 7.969999438703896 -0.2232630285618413 -1.9997058227074076 -1.8983634776124791
Ni 7.250574501584512 6.020798302095292 11.908103719601923 -1.8487399010480805 -0.012857058468326243 1.3803640950391582
Ni 5.881990111229964 0.5913338697425926 8.007589835385762 -0.3010694953183589 -1.906259078310472 -0.9174490550344909
Ni 9.188931073864554 2.2098427705379566 2.88058902766818 -2.2490321240152045 -0.6021065947368855 -0.07951547902782435
Ni 0.4565079725717723 1.9432030451014355 5.239145956264367 -1.0275884295957594 -1.7801012168337602 -2.500708927833048
Ni 3.9227685897399684 1.0017966296106866 10.021148596207055 2.0427322056702626 2.3331686467548076 0.8645668623234787
Ni 3.643124317270226 5.737963357499374 3.7197637036059223 -0.3613528655894486 -0.041721805218818464 1.1427939058260252
Ni 6.199113153368411 4.931002377109588 2.9473419815382775 -1.5367594152441728 -1.2473305894885356 0.9487342383010176
Ni 8.353988922175821 4.416253010421221 3.0375263756959154 0.6947257010262036 0.30995779894692427 0.6389659296570802
Ni 3.2228300082180037 3.246206565224073 0.17129444237042052 -5.147304563030303 1.6375361176436185 0.7874404523531212
Ni 2.1946801012502952 7.0474226398831386 7.989142541235846 3.612022760772921 0.5757134494553374 3.2574090136795193
Ni 8.860422076383715 8.901798489261948 12.465220188910324 0.5434574176351092 -0.0027477379484662358 -0.2950459148320983
Ni 7.582004405909721 5.759479464286097 6.2024331267848325 3.244488448963109 1.1716532532598791 -1.7627984638892544
Ni 7.4194382657433575 7.499735297210287 7.448308732247153 -0.21455547348551438 1.712659124030702 -0.25366683766467923
Ni 5.627154942435187 7.078957271101034 3.316670187056654 -0.63943746997686 1.882809846148596 0.975527961455094
Ni 5.742363322268124 0.1856096765831704 11.26829023804364 0.543047069570568 -1.126221346179325 -0.028722564745673113
Ni 4.712539010103005 1.0511543739299087 5.681313578545428 -0.9222842716396051 -1.501623747883304 -0.35128648249238215
Ni 0.7183328528406288 8.563103526830195 2.7858028098929926 -0.23872512875318244 -0.3041165096747988 0.8988116424389618
Ni 0.011170143116947206 2.034169758576308 7.586634136280561 -3.2602976480812242 1.2208338287495877 0.678221018502961
Ni 1.9364496108052132 4.92378383025853 10.058112951390113 0.10313774643245463 0.4496250077639805 0.2912748778254403
Ni 2.0835833164021103 5.868483242637519 1.9173158105243597 0.09940990395890621 1.023742573487108 0.6953533073078734
Ni 1.962523820629333 1.5312993665384589 2.391926893955468 1.8526518345079772 -0.10781226908998852 0.1884585192881464
P 0.8470108922616236 0.1436732681889154 7.699909508335599 0.47667378435165647 -2.560702277667545 -0.4394804631308108
Ni 1.3129383242939394 9.214000640570227 0.6201094532852013 0.27439892800570803 0.8175128462584695 -1.2227960946822811
P 7.17034258587526 2.3069396674855707 7.391616162938163 -0.22535282121133446 0.6540048262680735 -1.65418632460579
Ni 5.934538527675363 1.2817013651111375 0.41931385178662767 0.46180355210804336 -0.7762931774870502 0.6061614815325496
P 2.2298147036426252 6.974623222800169 11.347160304192332 -0.4449337729358983 0.13639188049989415 -0.4907104649503807
P 4.477768796923864 4.219110402928332 6.838025246795422 -0.2341673341791709 0.254428141310736 0.5480576354112819
P 7.465056505121697 7.871797434325991 11.16782685642412 0.20958835928822614 2.444746553534815 -0.6998154568442851
Ni 8.45649972926173 6.601147143517762 9.525869771289244 -0.2217324508499278 -0.2325082013091931 0.7690377814762175
Ni 8.01438233913659 0.2444771121985743 1.1595097853798888 1.7514997510469836 1.620359605864332 2.308613326012947
Ni 7.799193364516054 6.932958440137939 2.801609194956547 1.5501733746572335 0.3047842251657848 0.05191057282636221
Ni 6.445808852453554 2.5512632925410488 2.7854083944464914 -0.35903501608954935 -0.12043252895716033 -0.18725447167771622
Ni 6.956930341214198 1.655503023181929 4.958123090182091 0.6193862077529397 -0.12208651962081553 1.3532502695415016
Ni 6.9686511775960716 8.064326125274905 0.06430181070611057 -1.9721294557510356 -1.5220264799093723 -1.8916025047395617
Ni 6.193150410415411 7.2614302286143895 9.360736209820185 -0.17081098140971226 -0.44225879720689637 1.3999422742814018
Ni 5.145744843677482 3.63575693440162 0.6618105147267093 4.37820996017422 0.9570694976395904 -0.34031738507538806
Ni 4.018721309802685 2.280586390128549 12.036518505316883 1.3661965452895244 1.0563058521351096 -3.6885015098569514
Ni 4.52410330963665 6.146415900905465 7.931483468037907 -0.20366942270062988 -0.43103027548092865 0.14079515177391236
Ni 4.350346561400927 3.499655698605438 9.706987390817806 0.12371248526001274 0.9297253012986827 0.9358470979257044
Ni 7.637631867468136 3.716174895132806 5.385709433869035 -0.5857592637271137 0.030809786292005002 -0.46420624801226507
Ni 2.5888350847207207 5.9097015172471075 5.984596731502168 0.047725331100421035 1.053044921995651 -0.33012244682025726
Ni 4.8728260987506715 3.24837398972961 5.029247171842539 0.6318172344274409 0.38512194298458835 -1.642139934964217
Ni 0.5042266602477514 7.013153146842804 6.861401803801492 -4.004663380732058 1.1093204566589283 -3.1785748769894355
Ni 1.8988220051189613 8.850961687018346 5.545710013182922 -1.1322847787645853 0.8825355309867575 0.9519913117857346
Ni 1.2014322403974986 4.349946564603767 12.721981853907234 1.0391499091811136 -1.827774354540007 -0.8995456923915088
Ni 6.536515102897718 4.734241161911664 7.755199298179202 -0.789119639827757 -1.7191555303883232 1.8703734201574564
Ni 8.41093730338997 9.257749127478125 5.944105892928344 0.13054519191113 -0.5211561830347475 0.35207375428036786
Ni 5.50731404155608 5.690856757945558 5.601571891468974 -1.5509706737475484 0.7158537412540704 -1.0331075596417756
Ni 4.410122826948481 1.0666054130015687 2.1333550108951367 -0.643906047271175 0.6301308478639535 0.40493383550419293
Ni 7.607985593222874 0.08677790980601717 9.400573100141909 -0.19690819271739637 -1.3179955601042657 -0.031559262863519844
Ni 3.5762411318847738 8.677074707267268 3.8694173890249224 0.17281464210330236 0.5496010686390018 0.5526609385112482
Ni 6.4125719092849565 2.2034614262856036 12.107450960604739 0.806230845586747 2.0581004605962168 -1.3169686615016478
Ni 0.504156893364526 3.923754628356221 6.079723411667496 -1.0587707687358348 2.9749113678260763 1.8639166087885188
P 2.7594569743368482 1.8080692434193133 4.6211713696058645 0.5619395355996968 -1.5149464331341393 -0.737333251284085
Ni 0.05797814041055701 6.109923169853014 4.517930335808863 0.6012750999745258 -0.4160692832957221 -0.20098287700740222
P 0.570917289035501 5.600578411051844 8.378878955435328 0.8597838391125386 -2.122888917826512 -0.10421683842924631
Ni 2.531393684198445 4.028935181506889 7.7286367201725055 -0.4375755327986141 0.7354848852214365 0.8176910237075465
P 0.8520592239318163 2.8803676340920776 0.942011061812036 -0.05317118470634069 0.22030446015414962 -0.17047879488127415
P 1.9392867973897143 7.199012123755367 4.118009817108688 0.24627054520060818 -0.8842851666880126 -0.18216548719058306
P 1.2144274851796233 3.002068985190529 10.809132054134412 -0.13143890736999297 0.7816377296284152 1.8137584998768894
Ni 4.531303251985515 6.005244938261568 1.586749155100926 -0.4451111790540269 -0.2668877072303275 -1.4543115930609019
Ni 6.860605531107612 4.43935049989439 10.40613435077144 -0.6165857621896671 -0.30256356336538215 -1.2628381982058314
Ni 2.4646128235750573 3.8485831372435877 5.129043582058422 1.4165965950086314 -0.7582417193019779 -0.6308312163650879
Ni 8.268389607583758 4.028851461247019 12.44089108139195 -0.31553015082837915 0.4531733872368712 -1.4593668960966222
Ni 1.5529829138449247 1.5954662946036668 9.311124514046023 1.0181879622174659 0.07564082656376651 0.17388730634219085
Ni 6.7721690299310495 2.225861246926517 9.460600526469074 -0.9246270608401688 1.088395790691119 0.3503935383644675
Ni 1.4944624521954284 4.109874068299492 3.027370177948511 -1.3057524810708545 -1.349076083559154 0.487810003474134
Ni 2.0275837647998265 0.65484964023103 11.8477628074128 -1.3981913530285661 1.2232671207814287 -0.425622474201796
Ni 8.925044814752663 3.795764955516384 9.477809690998015 0.5303075105167124 1.0879782435377263 -1.0798725837114564
Ni 3.716928377471641 3.730760824852471 2.356542061008637 0.1573386579548903 -0.35945384879452286 1.8925301587601537
Ni 3.953745085892062 7.9403085136533695 6.415245376250155 1.5585189184084514 0.12185512033629983 -0.5497625339175306
Ni 3.1700769422484765 8.053786674782316 1.6715819642026182 0.344254258235949 0.4935456204063306 -0.6667855229725097
Ni 4.135483165568776 6.169820364664824 10.414425447173949 0.07370375744205371 0.2662791271120511 -0.32212708731960654
Ni 8.594721878307963 1.8679013224734478 13.009974896736287 1.189296934483571 -0.802893810793714 1.0679398368296125
Ni 3.6182873068419705 8.366165568861433 12.417160108619095 0.6838008265835835 -0.47419575512480916 -0.033371376371594146
Ni 5.861980969120909 0.24221108383141213 3.646788473977226 0.8916544625688902 -1.5029998022952242 -0.6667317869164389
Ni 3.462576925733893 1.1138422440707374 0.034171819403818755 -0.871693446065931 -3.4522641805226284 2.291218527575267
Ni 7.6523108196987675 3.485674415207061 0.9181256716709756 -0.9740837728094 -1.5309821464407634 0.6075879295664309
Ni 2.0273046972669246 6.804764117773973 13.562176986790288 -0.7982164599227026 1.4703982142101193 -0.5130376676926713
Ni 8.751046207988425 1.7277629097012879 10.558347085467148 0.12889248679905546 -0.009084478799771452 1.9279730729487958
Ni 2.5630492446805997 8.687483926244504 9.89789376917545 -0.5074054091075585 -3.428546010970082 1.317594725121421
Ni 0.35049579817305715 8.862012761321255 10.158032151320471 -0.03249463019359565 -1.081727377532008 -0.17589276680799384
Ni 6.8729496183129655 5.774390972794147 0.92257214769521 0.5362295324281023 -0.016559189910261802 -0.8942643893879115
Ni -0.013165475977194687 5.060759477657803 0.8666274793743971 0.4634907100024791 0.08534494122540785 0.8867071458659438
Ni 9.152605783331843 7.282276573322149 0.781573276696603 -0.425408558418777 0.9958111371841624 0.28225724770786226
P 5.340403750127546 4.24047767369751 11.819158385290372 -1.229198141553883 -0.04301995520495172 0.37795782113598136
Ni 2.034262781087275 1.9199381151085266 6.822872809983967 2.4862431301167054 0.7574343929093342 -1.2962954494230126
P 4.446550442243255 8.232799194887688 8.835246464015539 -0.39061381933709505 -0.4937464235632271 -0.494931959230896
Ni 5.016955177243326 6.324507498152262 12.870328573047143 3.063433164117569 1.1918176440228958 0.6681173544100558
P 5.3672686512948875 8.436518493905963 1.4113226527933405 -0.6329063537265616 0.06318845973302666 0.7913199899131856
P 6.249577865568143 8.105060682827464 5.408146463514336 -0.785198707506796 -0.4495753854729677 0.6755087617781205
P 8.244427008758596 0.2529449513719229 3.709524715823757 0.1634051758639444 0.40529764660151496 -0.5603297679104157
Ni 4.42074599770094 2.2173775939263036 7.729440434667262 -0.11298918530523767 2.343039883121932 0.12165534562066789
