# total energy = -381168.37279579695 ev
CRYSTAL
PRIMVEC
9.27275772330712 0.00000000000000 0.00000000000000

0.00000000000000 9.27275772330712 0.00000000000000

0.00000000000000 0.00000000000000 13.57161823277224

PRIMCOORD
 96 1
Ni 0.5457490954928095 4.082943682552776 6.87034677215695 0.3469266628617896 -0.3841678066014352 -0.06975942808232502
Ni 0.8996299929144405 8.680849976981042 7.805987520508835 0.032569706405905195 -0.4676201587898205 -0.6911564956177064
Ni 6.858845770491169 0.9183971276974567 13.513328301594834 -0.2358303237038906 0.24909413069233233 -0.013753345030350509
Ni 0.02174739918306631 6.065728238863647 0.042175284912096746 0.6542549946056667 0.4927079549963837 -0.8830528369428082
Ni 1.1464559727100028 3.7166326531203575 1.1913333392841237 -0.8747556299310225 1.1272287043979166 0.7131458554046042
Ni 5.8846776401984995 8.969371840103504 8.551965132626293 0.13931702456648912 0.5051358963470913 -0.22551968580650195
Ni 3.3092989425870623 3.1645975550239576 5.825061224887977 1.225392651764864 0.2419660042879833 -1.812355191771459
Ni 1.9380805903101195 5.820102153944769 10.90369603617448 -0.3788839324946765 0.3612078553711521 1.082986703860406
Ni 5.944245837167765 6.997241682659022 3.6966786053217646 1.092646852657989 -0.527789114970233 0.8879621013189676
Ni 1.6068113131110218 0.9092792248207632 9.581236626942914 -0.47525684939947177 0.7178867125236991 -0.08330348531534686
Ni 5.838295305011659 3.4819298770479605 10.03830199282888 0.028945736500072733 0.7665502391676734 0.8709879353584743
Ni 2.624691224305484 2.946010832241191 7.810751863535424 -1.576507127455756 0.27397058221903786 1.6123357071185906
Ni 1.5538545925488372 3.5116676117429226 4.3740238995892815 -0.11547647050346564 0.6471739193891693 0.06780873211385742
Ni 2.4194016364003526 7.882919883985673 0.963259657858883 -2.3982247558241925 -2.1256417979813005 -2.8254192024987987
Ni 8.14443947600376 0.29681541781880477 9.241036756577394 -0.8464480412355809 2.7516509103673967 -0.2847573884218967
Ni 1.3189107247701517 6.069437342037325 8.583940383810775 -0.49510602291491507 -2.122476255769125 -1.949323256489798
Ni 5.4325935998747825 7.990632240149277 6.2603022277000235 -0.7063969667165447 1.232813112598651 -0.15993521503747296
Ni 9.336090870885025 8.686413631741559 0.350374867646712 -0.3492396272656824 0.34140393327134755 0.7140920213679574
Ni 3.7834243285203604 2.309797637618174 9.649977436060684 -0.03855009235905619 -0.3414738672773345 1.8489196211590544
Ni 7.579320516462212 7.395284089742254 1.89425846358891 -0.031790662148035574 -0.4090072342426182 -0.8271850792409109
Ni 0.1650124365421644 9.255390058583732 5.692995824561799 -0.45783762548175994 -0.4099348882632101 -1.066311300087254
Ni 5.177917303212132 4.518809669249587 7.714814055396662 -0.5029365747029274 -2.329145127417711 -0.8820495924892745
Ni 1.6943183297360151 1.262903266847617 1.612878478627365 -0.8224300810544287 -0.32253177895719287 -0.2408930829387787
Ni 7.2135658525058455 3.7351967145046148 6.355412905831057 -0.2767244908150912 -2.003151615164163 -2.970695015751884
P 5.948696760976179 5.092895385713502 2.5543147006881215 0.4401021558752098 -0.009189122698435788 0.3820085941665872
Ni 6.90299337101587 6.2284187768190895 5.876022447942723 0.4891804014590994 0.7486173088383365 1.7454756563400906
P 8.872786793460934 2.1414414445649386 5.52381157422504 0.4107388722217442 1.1463533410425097 -1.06320412191684
Ni 2.08599962487639 7.850168502962099 9.54559770909863 2.9247720279675242 1.0533164304894829 1.225229129603806
P 3.1510593284400334 0.36704079548183977 -0.03150326780563232 0.2951104495214466 0.9150175627748628 -0.8446145875712681
P 7.10881150612325 4.4277233680619945 11.570524168393034 0.25736022735586644 -0.1157405227981297 0.42652364585982677
P 4.6202536410496755 5.552425450658378 12.859406921144885 0.18331245631083268 -0.475243222552717 1.2947617863873058
Ni 8.394015755802604 0.10181210029007512 11.799707798942999 -0.43137146087043127 -0.13277870922733906 -0.7723025682704184
Ni 4.77249378081328 1.7422584882558005 1.2443494054970874 -0.8556762447020683 -0.8584563785503666 -0.6652240920226608
Ni 4.678254741928061 1.578742674844215 3.6448077247136736 0.07325021484440288 0.7324000756485257 0.08197036832622012
Ni 0.4050155210497465 1.784913174753095 7.57334329669783 0.26681340234896633 0.029817854692380907 0.7958261053136553
Ni 3.8151000696235684 4.638715702096657 3.6144069878264173 -0.752679137612536 -0.13423009696188495 -1.0741621635902403
Ni 4.9650518720747625 5.660378898528269 10.725731411349834 1.2888274231807415 0.9835444040016674 0.28305300413628026
Ni 9.242037287158492 2.7178268049965335 2.9646388756551945 -1.0054705146507974 0.030699743076701966 -0.006665584945633681
Ni 6.704324532275753 2.907473250266679 1.9997370123661655 -0.033736215910180604 1.1755237919588786 -1.2200385865418022
Ni 8.321669698400019 3.6366922069696668 -0.3059657753482679 -1.6426703535463902 1.4278248596242828 1.0282957400754291
Ni 2.1761122864808917 0.773727267511328 6.3556428702278245 1.3720234363839467 0.3512934244709176 -1.2565515938661713
Ni 2.132483960400507 1.7611934599574257 11.704177064877546 0.055175616730879166 -0.9173410687017168 -0.9307851100217649
Ni 4.370334269207265 6.84208989690408 1.8512504850143223 1.3379118394122185 -0.7776342648959769 -1.2597266491600434
Ni 7.221215877801556 9.07779819862804 4.7768028314253 -1.7021039742226751 0.2062451538476061 0.04151354586275431
Ni 5.279185092611469 1.6893295859674187 6.281311515351528 -0.6395590831563889 -0.28536596854017304 -0.1431194290317148
Ni 1.4234147066885234 8.312294940128549 11.805000689171836 1.1941725174083175 1.1375334287580345 0.44155585760260085
Ni 6.024937376711126 6.331003297845084 8.546455259861794 2.339776124768996 1.7283302549090558 0.5136912421162702
Ni 7.642328906625063 2.941930818750145 8.426047570810486 0.6164212115873449 -1.271170629330927 1.934516016273636
Ni 3.5413218916164766 3.9741000499212014 11.569967802916983 -0.5155663476517959 -0.052852882134973495 1.1004236683899307
Ni 6.730325345523235 7.808181455036066 10.641682206158501 0.18439154830762436 0.3170131631318089 -0.3409226227595548
Ni 0.2625414499424351 1.8692674536804623 13.022660315506933 0.025282942936504845 -2.451294124845346 1.7135430692975524
Ni 9.36251823099748 6.262941254608096 6.135349032709373 -0.015265410799502742 0.2044849766233898 0.3212369714051694
Ni 3.5569093977038575 0.6951647531896588 8.032321632545623 1.1272888682118907 -1.1908995030840006 0.8858108593039197
Ni 1.0405332588276992 3.8289813882510577 12.151009015107338 0.7577136147126499 1.14197938034453 -0.8731756870384123
Ni 6.013568975483803 7.3243845825774025 12.80623321804704 -0.5314135990966977 1.5232045593778736 0.07963169289071448
Ni 8.750163842539147 5.1044306965836395 10.281654397502292 0.18389146874275425 0.5523459783739906 -0.03175980891010014
P 8.260627132919216 1.421819792323842 1.479523237672541 0.7534265573015219 -0.3697955970401631 -0.5118824710423054
Ni 3.369154595052288 9.03997461901446 2.363415505821066 2.814582774004927 1.915129127106592 2.48452074810896
P 3.9843557201964206 9.303914400853373 4.893926109616317 -0.5038642287235193 -0.8507415264046122 1.1947821259678584
Ni 5.748015733764342 3.3783902619547455 12.97376135381675 2.152905004572628 1.3918381571170289 0.03208505346000281
P 8.956427070027368 7.241643763530585 11.598929407772854 -1.34518523314518 -1.3043561149439602 1.2209613554663876
P 4.627486392238347 7.586989087273791 9.688154307751557 0.23164611041921393 2.3924269181954925 2.9885698391497755
P 8.189347442679065 7.754677641755763 7.006647041031676 -0.9924226803279036 1.2373531665608497 0.49451929717350956
Ni 1.761972371623898 7.925500388419494 3.707128076237808 -2.19067630978413 2.0939719776818455 0.543800917017457
Ni 3.868817156336357 6.564945707766875 8.179614755951334 -2.4099474435777593 -0.7662234519558739 -2.3513993108302214
Ni 8.850448719597459 5.168227271170897 2.2101785445795357 -0.3329735431158072 0.3031178932069554 0.32967738886303866
Ni 2.4953269783655365 5.344502399499936 13.592518581628646 0.45118643871382935 0.5090938525535749 -0.5481941609891462
Ni 7.08526797372833 2.189706149612421 4.076859826072151 0.8011359475623429 -0.8644557906669113 1.9177007444885101
Ni 7.505620636401234 4.978543734869016 4.227084068260862 0.6671048539851414 -1.3033667544474972 -1.8327304129937017
Ni 2.2372104885092994 5.945451295699211 2.4948568495382735 -1.6493606210823724 -1.044011608148789 -1.6669585366697937
Ni 2.1181668221501107 1.1540874524898448 4.015272022424818 0.19099336989485816 0.23341091562912059 -0.20444255342122855
Ni 6.977221798279095 5.638866100120938 0.19493748094739682 -0.4489614060380526 -1.8145696829242748 1.0725066302646884
Ni 1.9130163256139918 5.9254870478668895 4.877585655584681 -1.966611354146284 -2.3009475819375727 -0.21604054267147307
Ni 5.482805584088445 3.8202186320032436 4.7090532801306955 1.2813272581489543 -1.2767730631193688 0.5637778743600163
Ni 3.7403894589477638 9.320419909976238 10.926143528581578 -0.009869950815544292 -0.30579672559069915 -0.862419991183805
Ni 3.351044898806806 4.683660759803697 9.423684124158807 -0.7587171162764997 -0.7550869757230801 -1.249170728021068
Ni 8.275055544264823 2.466701974622678 11.036589493784183 0.1733579162012821 0.5669716987069654 -0.9471576378425172
Ni 5.806220835317281 8.80508638778338 2.2907124472380147 -0.1300836788936792 1.75769096745936 -0.24671251783403314
Ni 9.079597113667273 0.3221893926299345 3.2312260298843185 -0.15275206702547242 -0.3594952435554196 -0.6874258249306806
Ni 3.6394833071078594 6.918812696051606 4.064455657783579 2.808778508618324 2.6511056072524664 -1.1217951920871712
Ni 3.626121262924685 7.326990227556911 12.224906404912312 -0.5687339328137109 0.2821369200799141 0.03700640202102014
Ni 7.484126383509771 1.1409757727708938 6.896336458094911 -0.4838592463565021 -1.0369431313377817 -0.07947382715661153
Ni 4.459816383272242 4.220903775097721 1.1436175815063458 -0.15249084294428578 0.4812025254599455 0.903229054780367
Ni 9.06411160791717 7.709380219247223 9.548122681084111 -0.5965951780003531 -2.687425781839739 0.3050210237669392
Ni 4.622089647120646 5.728746942777086 5.636102818256549 0.07046493878978186 -0.24407070933581196 1.5583710799766772
Ni 6.179022795303636 1.1298670087657288 10.889228679245551 0.25944564912998547 -0.5759690171095694 -0.6101122386501814
Ni 2.7213411802535927 2.725013192395534 0.10798404797107497 1.113580774597179 0.2925257195134059 -0.1411785032552601
Ni 4.382379581763784 1.942911697193835 12.281717810947741 -0.039603473324235014 -3.064364417682587 -0.4983895787621932
P 0.4678254741928061 3.3434319645428325 9.440892508333087 0.33115834428393937 -0.9241192679658149 -0.8204806706375418
Ni 7.772230972525194 5.057566177984221 7.864073930760217 1.5170408537693227 3.0912085344586244 1.6748209701370058
P 5.627052606512774 1.9222798107902521 8.56808860412227 0.1531701283994975 -0.8998125728996504 -0.9178761152695806
Ni 2.975618748325074 7.455390106671703 6.2237406704412885 -0.7966079777850023 2.055957446111285 0.5981805202096021
P 2.71481315866792 5.128280229990388 6.641664797811226 -0.5121544937567696 -0.7196929124945024 1.8258059179597264
P 2.9183316498076204 2.961032700094586 2.6046917399930134 -0.5787033853215969 -0.7977153519165681 -0.38389526966633886
P 0.4708113022476168 7.319729658094437 2.0831482518116253 -0.4126905966314764 -0.42991235982640147 -0.18349191931149045
Ni 8.558032298142637 7.39158425932651 4.135353310396843 0.6258964980676318 -1.5586950389749994 -0.28969236382966884
