# total energy = -340878.1701235355 ev
CRYSTAL
PRIMVEC
9.19471345139672 0.00000000000000 0.00000000000000
0.00000000000000 9.19471345139672 0.00000000000000
0.00000000000000 0.00000000000000 13.45739255199548
PRIMCOORD
 96 1
Ni 4.199657711969647 8.608550319611474 8.567339614636843 0.7513704461034415 0.29680249251188884 0.0038630824998320567
Ni 3.086214711164658 2.5386327557743864 8.373283351667055 1.700945949358832 -0.059925729821354856 1.4701387899011455
Ni 3.062041809920056 5.234228462156076 7.843156639990268 1.1238441041964 -0.2955976735705103 0.3818137045469618
Ni 3.7769399630843945 6.902416100005785 1.7941938277455913 -0.8670430917781132 -2.8123921941115113 -1.80408678111508
Ni 7.223909250259687 5.8422932415809585 7.003455884899968 0.10617884725162359 1.1214138974883525 -1.190996433673181
Ni 5.487175024818305 4.083565261945172 6.708348803380047 0.49239685151386803 -0.2350404808127436 -0.2241480022699559
Ni 6.327038526333873 7.027776821028571 9.128822137581922 0.7484447878162143 1.9131776598071761 1.6330312877947295
Ni 4.00095995773007 3.412755759015854 11.210626597100488 -0.5668210320617141 -0.19418256625611718 -1.185347977138152
Ni 0.41249414717590593 8.8196793262218 0.36648931869083884 -0.5593764028582108 1.868077682144744 -0.5306139860135378
Ni 1.747234588020817 2.77367721165714 3.3769175250177232 0.6451419765608051 0.9801726593159571 -0.039376702025409605
Ni 3.2231607709353316 1.0666235207222532 11.580247635138573 -0.11235746525850972 -0.49741590199501434 -0.9356838328749627
Ni 2.098592167047053 0.6596599935914701 7.141959529102302 -0.5832370115258922 0.37551398758117915 -0.5002322883978869
Ni 8.769200350248859 6.324004270947523 4.857351875859293 -0.09145671055010056 -0.9762812946813508 0.5012039082825368
Ni 7.626858365567193 6.092619310954975 2.8418780780290347 -1.8524469175860225 -0.16244769704668152 0.3239967935384936
Ni 6.403731629902236 8.654523886071349 7.313985259024518 0.23537343867213015 -0.24490683208386207 0.5321857013760318
Ni 0.6675849169778232 2.238636845197122 1.2376792083921662 -0.5566939709300412 -0.5560897616871391 -0.4111355934395306
Ni 3.5807891444266944 4.7671830004902125 5.259875275941382 1.1557219267416032 -1.164053072315118 1.5357374017375616
Ni 1.0773261669941119 4.426114305637697 8.898512039573207 1.1572357922829681 1.2198030734922283 1.0640685267996641
Ni 3.8515734508753545 8.739804851854416 2.8279232616658043 -0.4512270621437777 3.5216389715720253 1.119933456288084
Ni 4.689211831774266 4.44433822738239 3.1367837953278612 0.7463022875519146 -0.07205979408072752 -0.14108620065176994
Ni 2.0712287002901357 7.639960832008257 8.394492796817653 -0.8759077412575947 -1.3111165735962451 -0.8533697080560787
Ni 8.534201867932566 0.7735346787699205 7.9791298990946515 0.2890385322957538 1.3125098543993459 -0.34879302664656703
Ni 6.667022245017936 0.29881255097658704 9.46042579457168 -0.14091290829869924 0.35994724349117363 0.49220967520372644
Ni 3.769915202129326 3.2210459868781776 1.2064824656638244 -1.3125849306116555 0.34083700502428393 0.4597500120131244
P 2.490222590292139 4.853346658749309 10.62424754897473 -0.6246682820874856 -0.251650835675915 0.30833980372752706
P 5.296807680821257 5.581650703893346 8.272070706162983 -1.4388911447407735 -1.838397638581808 -0.057110886080379064
P 7.087579236279574 4.088751080241846 10.770704620174621 -0.476840648946824 0.9066481077642451 1.9154736549302043
P 2.952578748179095 8.14653436611632 6.221971457017806 -0.5932208622114815 -0.7804565648361204 -0.1221040031223123
P 3.852842321309647 2.6944739513600684 6.101420490518053 -0.31958015252803673 0.17226056937204529 -0.5197443902888855
P 7.536170908368446 8.251170203378996 10.978540999955092 -0.08218299855765845 -0.922831916612959 -0.20157114541070448
P 0.8357240415915217 1.720946902719061 12.622441722115378 0.3425683858930939 -0.6397100069119562 -0.3816820640651039
P 4.957816991172727 1.497717653416495 12.933792184136902 -1.0506468540771197 0.8265176208602412 -1.244104112131438
Ni 4.682205460245781 9.139839243048367 5.319047853331886 0.8157308146573823 -0.22768275489609177 1.010696538936427
Ni 1.6970406481599265 6.0021157480220655 6.054656178715068 0.08288696660321852 0.18898919498063582 -0.008829682476488018
Ni 1.3013185774999116 2.453149506298896 10.590133323718844 0.6622925201981626 1.2809055972305037 0.5953073124268651
Ni 1.2476398413013625 0.37098185560529784 9.435314113099967 0.33152884024948065 -0.08380099377705567 0.6277775171404285
Ni 7.034911918543143 0.3041611156985288 12.990972267157035 0.2787021833667523 0.4726880602310311 -0.5268820297749313
Ni 3.837799770363976 6.9828054783175215 4.447856124687901 0.7539904002247918 -0.45463583071501057 -0.8944135133712662
Ni 5.667271874068216 3.52908727158592 9.134407006435469 -0.057813311464042366 -0.6301850981406566 0.4614870493088891
Ni 1.7149979232191532 3.818656377290085 12.755535197016714 -0.6125635284041515 -0.4567405357628392 0.23159134592187858
Ni 0.12716380429934168 4.960520236880568 11.19241922583972 0.7044167030617223 0.8537430322350975 -0.19609752389064292
Ni 2.6337060912134067 0.9022671011568731 4.636004784367595 0.36079827863755926 0.038857339186829855 1.2941722324324227
Ni 7.971264741344696 5.1212254357977045 9.064415009914297 -0.37976684932026206 0.9547948426728007 0.6279456672871766
Ni 2.940322195360893 0.9245376162213654 0.5719323146014087 -1.1197359955652975 0.05826582562042868 0.5939168598372416
Ni 5.563619871127783 2.4709780553720355 4.669930518000995 -0.974304116350322 0.31428419423642 -0.7246618264640036
Ni 8.278561254275788 2.8119272189517552 9.634725377091 -0.4173072694678813 -0.9098709855769168 -1.3103316158011047
Ni 6.16387833896778 0.315717950835212 3.5894496448764057 0.03372413172532257 -0.4788378818825108 -1.1617473070000768
Ni 7.668786258178598 3.8342873898864416 5.31400087520592 -0.6349550087254742 -0.037452745529819365 -0.7493035362720837
Ni 1.866591161263943 3.2402997165115726 6.483461747270938 -0.18154096623270669 0.19392648438125312 -1.6906281123725915
Ni 7.745681645439385 6.757682118076809 12.479214753694956 -0.6145160241448321 -0.9971807638381793 0.5406865397581914
Ni 5.67268756019719 5.569881470879619 1.1414436611930403 1.4673753682233956 -0.34348267017724715 -0.2034061417369142
Ni 3.5630249583465994 5.169286202174857 12.865913132730226 0.7724113259341407 0.9862026675601209 -0.12772854839794132
Ni 4.862964328852715 8.277200436708577 11.392651577727728 0.477866519108177 0.39555573672340266 -2.0329087918219377
Ni 4.810986614613181 8.742066751324241 0.19936620989590356 0.802247949679599 0.28121852203070274 2.9797321862534876
Ni 0.4967342714143213 7.908593575546596 11.668205181960934 0.6745757084408899 0.2354935091897622 -1.8733358452198898
Ni 8.680397809274966 7.840368802920142 8.944160113182544 -0.05368926199333979 -0.8841879789885159 0.49887448881841184
P 8.229498264149811 5.424218822908153 0.9043478647748471 -0.4913527265200699 -0.17609305574425801 -2.0078009410107165
P 5.652560332801057 7.461050100773011 2.8130121951202085 0.8178828280033784 -1.0527441029257805 0.2518642372383017
P 0.5067417973613069 1.0254036210343298 5.289589830887056 -1.2189764638258747 -0.5538714138795816 -0.5437484665129668
P 5.05415919704604 6.825300039625993 12.973397492170754 0.47357997591768114 -1.5235778835568923 -0.26612151848826426
P 2.452276008536159 5.076410403212619 1.2823425282079342 -0.5630080860735271 -0.755264381841209 0.04427516776829149
P 6.804860191977932 7.877055708955122 5.511918917758338 1.0269901338901282 -0.21452230625473376 -1.8121281633623179
P 7.722667278069571 0.7767059353843226 1.5972844452413033 0.7034772219665884 0.5360917212986573 1.1095924793733922
P 1.8287916949206342 8.135702993858375 1.6666171808194399 1.550458252887504 -0.001361399123900881 0.9475970393727808
Ni 8.895498932027428 3.8028506651411793 7.086824350318304 -0.652703848068463 0.5356662037254646 1.0351017072536688
Ni 6.183674556685402 2.0341188374437253 11.288020337821699 0.24662612876781398 -0.24496571034625553 -1.4645939488235165
Ni 7.326549834738002 3.176543574545019 1.2460418001312172 0.5780688370613916 0.8422915958650462 0.534329487191912
Ni 4.651550286130336 6.8460249233861035 6.647440264120017 0.565167298508375 -0.1454082250658915 0.17791339678244844
Ni 2.378984948885827 5.299455758249345 3.4742812635377742 -0.8711108340895836 0.042594437631758894 -0.975763731614984
Ni 5.438047671699283 3.6067734041898154 13.030147262608825 1.5996385712668968 0.4424223193679542 0.2452084224846809
Ni 0.09346701902691218 4.268443362106911 2.368810998628257 -0.0867158534310055 -1.7273285531174185 1.0452747911319287
Ni 5.6486525796519675 5.630998730131376 11.244270053035825 0.1412504941437761 -0.16382015191417593 -0.09877689836059762
Ni 5.553753943765495 1.6352889536910231 1.4293908194725007 0.16549522562375368 -0.6397521730038015 1.7536257962510509
Ni 3.8941633628437824 6.540070838595639 9.893282553803992 -0.8926376524177658 -0.6699006715627237 -0.17588196817471644
Ni 8.52370150535313 0.9266524002785196 11.008739196819924 1.0144837738930013 0.17928688009120736 1.0040787765095933
Ni 7.254867849913766 1.1524653640161306 5.72445195708835 1.2162112423759117 -0.28880199080491553 0.8982989644686012
Ni 7.603448625525826 7.807911464999471 1.2385324777856614 -0.9282186348461692 -0.10502339349094171 0.6481090296089289
Ni 2.9328285040279334 7.651546170756146 12.96078786236214 -1.517041367989955 0.39516801436668075 -0.6925474624279622
Ni 1.5858949538865341 7.651104824518131 4.315476159538021 -0.1986704268241417 1.372045547871134 -0.4001338430123883
Ni 6.1577270757754485 5.923123966130709 4.699079598079213 -0.8120099141623692 -0.21662701130256237 0.2674955160176555
Ni 0.9306245164206528 6.375117682137611 13.397102753263566 -0.468530843529548 -1.244374335073689 0.2573147188299117
Ni 0.9171652951038599 0.5791713123761805 3.0451658331439653 -0.09757156519858681 -0.6929863497375935 -1.058191756303913
Ni 0.6505112538659551 6.40659118573604 2.3511277260251306 0.7458258621361284 2.7742434509559315 -0.020530772963500126
Ni 8.284933190587127 3.2485657637610585 12.394796252018676 0.05307091168305053 -0.6386558546158291 0.7288347268947706
Ni 5.192181038271874 1.5348918792559494 7.216822884725562 -0.33121130900906187 -0.39827827786088826 1.0058754633987
Ni 7.976781569319881 1.925924646137057 3.5773512411268253 0.6855049537588839 0.6358752065468986 -1.0972722672451427
Ni 8.307800442544268 8.447863510120921 3.7254504881206643 -0.14166804129716892 -0.3658934337722795 0.7625472886558674
Ni 0.07264375183457669 8.199974039769279 6.476383656978776 -0.25533111274097964 0.002972709475078751 -0.33325662157386476
P 7.075138789195534 2.4645141719277768 7.640044503899214 0.8766556751672128 0.4095461374652238 -0.6797230569697841
P 0.9230204885281896 2.4166556892430475 8.306225388157355 -0.10355400803426681 -2.1116195155602795 0.4072611980857889
P 0.2314410477436287 6.174957968484609 7.627313503875146 -0.16390217010502095 0.3422976487302105 0.496483619988732
P 4.757666472233018 1.2494971733863416 9.50914122453522 -1.2238361059110212 1.6235148636638619 0.6278255967695445
P 6.9366572123051 4.041499448634387 3.371305991495631 -1.2982500020462222 -0.6556637020277353 -1.049141987396819
P 2.5834753724993478 8.180039901352279 10.679301814281756 -0.4123077593707609 0.21787862432147637 -0.1324030710554752
P 3.7990900274047616 1.7375341654977836 3.0196505037587356 0.6788514529981082 1.239175821591885 -0.9353691298480213
P 0.7994104409161962 4.308725401039053 4.732547434990672 -0.52145288833956 0.04383139536265354 0.48200548097721513
