# total energy = -340884.6686383371 ev
CRYSTAL
PRIMVEC
9.08662274376646 0.00000000000000 0.00000000000000

0.00000000000000 9.08662274376646 0.00000000000000

0.00000000000000 0.00000000000000 13.29919087540920

PRIMCOORD
 96 1
Ni 6.392002768789303 2.246949097691083 11.612134728651567 0.575846375488776 -0.5283897246687094 -1.8080390808946085
Ni 4.813074897213269 0.616163871524429 5.981908956901795 0.9373403946417792 0.18025361487985084 -0.9788621680346495
Ni 3.242388592242052 2.029415355111894 4.682844514923411 -2.1773777929030116 -1.2308770719182027 1.2351289052160213
Ni 3.7957729889344165 4.381060517213896 4.789264311622019 -0.4625571424446163 0.7986342641864117 -1.1327447491201397
Ni 4.100629173710181 2.995650444957369 2.6431612763898595 -0.3457812364034368 -0.05414537569415191 -0.6166389840251059
Ni 5.425122528746538 4.778055054109669 2.642588819172546 0.25846811570806455 0.25911243416028273 -0.31876665548780586
Ni 5.121302218935436 3.0742315563117892 0.11919013595595174 1.6113466037324442 -0.22456966318840677 2.244102033703438
Ni 6.398854082152073 8.09757998472911 12.009887089863593 -2.493558689941512 0.7700495105701834 1.883925447810278
Ni 2.030696568883976 6.785953287148566 0.13915071959520428 0.21435981253494055 -0.9302336083936688 1.1443892753376033
Ni 0.4832729261674371 0.39468017414577544 0.17987423564019814 -0.6213865260124202 -0.21718391224729694 0.08560719374785901
Ni 8.25649592557988 0.23313274741986165 6.730613938817079 -0.35235271897336734 -0.768074903342316 -0.5932743411572363
Ni 8.937947179745558 2.6405724976404525 1.320615184554619 0.4327979089043127 -0.030610268686689222 0.22891534175161224
Ni 7.100750236936094 0.9212017887501344 4.628024921398755 -0.913416279726014 -0.9197327088623449 0.6312510775113257
Ni 0.6991719853594086 7.525695224632768 2.1567298402424506 0.8283999254846185 0.6682335682729459 0.38856465011755015
Ni 8.097589071351608 4.305050920026138 3.7704403940749125 -0.8366621654934105 -0.5475626980527344 -0.08507831782758252
Ni 7.843063688586961 4.069525664902806 12.489961524912072 0.6186323603060507 -0.42329176918609035 -0.32560373301429735
Ni 8.206292336283724 7.1271832217799895 8.726649586186088 1.5157840985440862 1.203732907403243 1.1372068986565513
Ni 6.920698812157204 1.1897114835377303 0.4454080615600127 0.8540366522161162 -0.1857981988471639 -1.1307269473591623
Ni 2.0125505837573834 7.019852036844928 9.366154264918672 0.524569836701987 -0.41284949080684374 -2.3296598622706006
Ni 0.029461556122159803 5.42219663630249 1.1133220655295963 0.6535687671719196 -1.8489553594929964 0.8771053611101216
Ni 6.72207433099436 2.288329576542613 6.971502118538167 -0.8791164780028794 -0.3665817180885558 0.9339971892011592
Ni 3.5797112791997483 4.613732572873158 0.4233157562829541 -0.21199208363371233 1.023818678140682 -0.8797114312744012
Ni 6.2457172332094215 5.813212175595209 4.699628415337697 -0.5499988182980527 0.30038841009093425 0.27426497353100504
Ni 5.4666847400480085 3.1890955512968997 9.167903243940454 0.25272581390764864 -1.4996663670466173 -0.17166047389420114
P 0.33938716758902415 5.893374359264114 12.22368532193425 0.37688541400740894 -0.30572139226807354 -0.7086104294280958
P 4.542802397661247 6.273549557917862 12.359124156239412 -0.9854351932664771 0.3167791927441319 2.2717483346657974
P 2.765649856312238 8.416365961792842 1.3868266767038162 -0.8624269331623405 0.9547084536065814 0.04668737675420992
P 6.502323452525892 7.956982674832378 5.645918368802166 0.17157896992398836 1.1048565073503038 -1.8422118701215757
P 4.716665832519652 1.1143197766797714 12.76270104247204 0.5066862715533468 -0.4850213849854033 -2.0454539754768
P 4.125917244119449 6.385460400591433 8.037166666395276 -0.5440225461099598 -0.7775597029042995 0.2671083078815658
P 4.913872800572957 1.2439131867325868 3.794591728009801 2.211633628762088 -0.9586198728458459 -1.535666182179994
P 0.5661192981219693 5.839199915936749 3.5402180918408535 -0.424868626754907 -0.26186017210874896 -0.2556319318108501
Ni 0.715790509244249 0.44983869868957044 4.528520953082645 0.46871904828095406 0.023467744104637003 0.036542832121040286
Ni 2.15774572463762 6.787279934033134 4.747891102068488 0.6718451968836042 -0.37808354808056827 -0.7736523974300934
Ni 6.265398857538015 5.942723806045551 8.593511484697178 -1.551597765808586 -0.170028594717733 0.21664218081121397
Ni 8.88992437984869 2.7963081206172578 10.19889687499785 -1.1156332862508336 -0.31934489658877907 -0.5327976239284178
Ni 2.697672833411865 5.1752131502103875 6.654755179562773 -0.9424031538766674 1.4698330857352686 1.7253241210928805
Ni 0.35812560050242453 0.1606214998934652 8.928584323924607 2.0020069600367587 -0.7878520859692432 0.6205905124736861
Ni 1.5673151680248145 1.375378441019793 11.48829315063938 -0.1510865063975914 0.18955355212453806 -1.3928097770016787
Ni 4.302997343341807 6.71786722477823 1.4227470040968735 0.2944712732755509 1.0843434749986163 0.41451042344903455
Ni 6.2144229053296085 8.497763926121346 7.736072343333288 -0.43501625671187016 -1.0075718772645164 0.28721510593376987
Ni 5.515470816234628 2.9142979137413505 5.0091796579576835 1.0468776168426743 0.788733460132932 -0.05139892329726633
Ni 0.8369560769310577 7.691616951428759 6.426594631973293 -0.003349376088207135 0.809586135212225 0.3529114196903148
Ni 4.980277837781342 4.4199240016337455 7.0533853085080125 1.8220109696936684 1.3891510972031689 -0.14359662577844945
Ni 1.5584284512227071 7.8384295111134685 11.47131025319241 -1.9709079246391088 1.0254071056737244 0.23933319465082653
Ni 4.79405659632696 0.5204026830148507 10.392292913575897 1.0690693224483654 -0.2031130359765276 -0.2785553733762428
Ni 8.323109955105696 7.647328753378175 4.15605030164414 -0.2840814454007946 -0.6878947941472991 0.6694702688935245
Ni 7.729789852538833 6.553199451886831 6.506482399642788 0.31610479238492656 -1.2674965229134494 0.5261940025689713
Ni 2.443065671044744 5.267778573587756 2.3828822442600845 0.009435691491603103 1.3495193417441598 0.8772035772508828
Ni 2.256926209192835 5.41463656638495 11.21202893221281 1.8714399137487576 0.013007725113577598 1.3278613971547517
Ni 1.4238101389290276 3.507472630348263 3.645401199217615 -0.997352256419037 -0.49742927173145296 0.6934368070114508
Ni 2.306230222861786 1.3785314990262665 2.670756440251127 -1.2642749306523582 -1.0612395419913012 -0.9827687021779076
Ni 1.4138602872947663 3.366102957539281 8.088594223741786 -1.672297432384204 1.733869182449414 0.14341921966032073
Ni 3.587098703289843 2.713410863576742 7.0107217985599 0.8937558251826091 -1.1529708463590271 0.81590230723824
Ni 4.407875140202668 7.32060106825203 6.107268000870988 0.17950182431549086 -1.5463421738366014 -1.3586333882302861
Ni 8.414148825903563 7.366424905504614 0.10997539208170128 0.3485516000597223 1.7069985833108148 -0.6434337356204467
P 0.6431992994398785 6.016616220191497 7.675920719727368 0.8362942406310307 -1.3188576509942447 0.9809190505636785
P 8.758549991786454 1.8899538730272905 8.026247272140582 -0.23205388738059393 1.4328451956570096 0.08053877808601613
P 1.841994679487902 3.393717203307792 10.348246419683734 1.6903679167326693 0.5974819514806807 0.48185301455975077
P 4.159392361398553 6.296120728200514 3.8664342001204153 0.441260437849369 0.22801776963800732 -1.1644148265299106
P 7.039233802631119 4.2403723410921925 10.179319746827971 0.26062989924607377 0.35492793589971133 1.0864067852855483
P 6.443269492917615 7.824454285713018 9.856774634037215 0.0020070031276997694 0.3414057330435604 -0.3896568547404644
P 2.6410177421428074 8.853305291185611 5.678063204547702 -1.0201985648895913 0.08803277247021614 -2.2180503309217086
P 7.153743419338844 3.969945368957721 1.2886638938682697 -0.6642085062739529 1.3499070641008817 -0.007106014917161956
Ni 2.614802836238841 1.3576504405280634 0.2938959007198323 1.3175309617630213 0.17805994966264174 -0.16317840456511898
Ni 1.5485512925684222 1.2334908307284795 6.976556097971022 0.2290752643682442 -0.10266003546508772 -1.048378369757917
Ni 7.150926566364762 1.124378667783997 9.214357692794334 -1.2383646385444995 0.31353111812047935 0.19586046817917238
Ni 2.7311206908234777 1.8085286488312955 9.121502406159308 1.4723717929967224 -1.6926410290375624 1.205936085702149
Ni 6.632743745225938 2.3701546121284776 2.689694778859462 -0.4790083460221042 0.2907382885956799 -0.4960663299456553
Ni 4.627035388208828 6.536280160797339 10.243063312306973 -0.4753908038741748 1.6670089302917548 0.10889830306531567
Ni 7.536481045536758 6.242664128050415 11.214528662061744 0.009164440108087443 -0.9749777453785788 -0.9039170819863271
Ni 7.806480946413869 4.262907164884857 8.174852622443957 1.6390744086650157 -0.544068825966863 -0.8261314411654159
Ni 3.7539472655805315 8.150954805276736 12.384924712157513 -0.3677981069941601 2.063914496174833 -0.06132132461730084
Ni 0.4195838804234189 5.220128325213267 9.918868977533004 -1.3055640192091322 -0.2957434551197552 -1.163731170199325
Ni -0.27082496619984225 2.537312119584065 5.93323464617189 0.6359112019911564 0.9987018284683962 -1.4856314862201059
Ni 3.92709285726167 2.665333543944892 11.325683497743562 -1.2792989148650162 0.4308155883669612 -0.2412484093956684
Ni 1.3048117307077634 4.046754588925218 12.997033224061513 0.5329092098056177 -1.5300753183557778 -0.7772614549375904
Ni 3.3482113978426047 8.805055325726316 7.590286571990743 -0.36957242528576345 -0.6218930333351935 3.8262128804992166
Ni 5.892638342841853 7.892649387553319 3.3227761241488842 0.24125817958768125 0.5178826544897983 -0.13476411508848404
Ni 3.536577082206289 8.54127976125968 3.489468396532623 -0.1680439601875364 -0.3859580657326385 0.6964635096529167
Ni 3.7177279883073213 4.58853536868886 9.439406072178576 -1.3503204974892165 -0.45736248561755427 -0.9422892540066224
Ni 5.385268602474511 4.612178760426164 11.696851127515991 0.9141752693792256 -1.686629789846476 -1.7432603938563265
Ni 8.15853304843927 0.23857109098434137 2.341110131978932 0.15304491567554288 -0.30995085696838875 -0.07119847452169673
Ni 4.89448194816427 0.8581451719319103 1.5703682731838207 -1.0523746354015038 -1.2393295735609302 1.160032638301815
Ni 6.452165296342219 5.973182164655636 0.16668318576124203 -1.1001565307714731 -0.4383486635192128 -0.6516908334229163
Ni 8.132717953925173 -0.2957332157887342 10.799714349787024 1.826400871231248 0.4961882002355003 1.070286739795234
Ni 0.37386817397855004 4.950473715991043 5.720380514178677 0.1612907006241029 0.3313727742875906 0.11719242475330785
Ni 7.286589840245601 6.143120178595319 2.249052650799148 0.638401829623494 1.3577908377243326 1.7613884709156051
P 8.583278130441009 2.062054503121269 3.531426784574965 1.6194777174800108 0.21880370723890702 0.3028546122432397
P 2.234391385400171 3.2516296873215436 1.539633681249825 -0.8700137443706629 -0.38809465245966707 -0.33471083752188807
P 5.033116547601641 1.1413252187409808 8.13091244203501 -0.23543668780989774 2.0607790358696443 0.8094262125955932
P 8.534328495049444 1.8451113910043873 12.111546405036004 -0.05018407705355873 -0.9470139131758013 1.311047925141839
P 6.619586315850221 8.177051585088241 0.9828808735978068 -0.5183403108525073 -0.3759418191472171 1.7300099566043239
P 1.9291717357245244 3.2919652045859142 5.8801442369084205 -0.9086021461668223 0.28589792978424305 -0.7335259617228528
P 7.1120994284349 4.312538296963702 6.079751890625446 -0.1544309973897921 -0.03913039034255841 -0.8451169811289833
P 2.875925106936341 8.818976031391786 10.130870784335992 -1.2707821356432567 0.6372083235360252 -0.20324930444407577
