# total energy = -340861.83324582083 ev
CRYSTAL
PRIMVEC
9.38335843836316 0.00000000000000 0.00000000000000
0.00000000000000 9.38335843836316 0.00000000000000
0.00000000000000 0.00000000000000 13.73349355895349
PRIMCOORD
 96 1
Ni 8.039333245173928 4.7116564788080035 5.81032578915294 -0.5655483359968777 -0.8646887326133238 0.07850632103701963
Ni 2.455249615626467 4.971247094936973 0.8577459478478836 0.39129284768199063 -0.1539905674182638 -0.009204806427719632
Ni 0.581196787691085 3.0629909865081264 1.5659342960488054 0.23906091482604638 1.5631530747463531 -0.7168551859353912
Ni 2.884575805771592 3.4779043378181127 12.654700512865695 -0.2318777668140458 -0.2986796549299437 2.3221833513878978
Ni 7.938809324314009 1.3127787872591181 6.53156732752545 0.10607060380853345 -0.3343025463398759 -0.9512459489792779
Ni 0.2910661542725813 8.216078188076702 6.631629587141432 -0.7821830606089238 -0.5508953619703932 0.010302924587904837
Ni 2.383617055947141 3.7924251352888136 3.823816223204876 0.11968073839280034 -1.9464829588275252 -2.0522859107969684
Ni 5.8340375363771555 3.2564758411829633 9.676619538479422 -0.0963844868690211 -0.10191492976894705 -1.910313965106136
Ni 6.593611033034446 8.358433121649542 1.1472394512163182 1.6017237359306995 -2.2885263254550847 -0.469728720492391
Ni 5.614523244899797 6.893493791063211 3.2572143115060914 2.3375536631963807 -0.6592056537427228 -0.4045204021158581
Ni 1.6443397639776125 0.833251628515042 1.3519073926904503 -0.6997761189659174 -1.458044834851089 -1.3988097033388556
Ni 3.9881619960316406 0.3163843324919627 8.797442937887025 -0.6378315589423208 1.4333331910370217 0.41355937238967483
Ni 7.456983242708859 6.627119006654419 13.534440114975089 0.004444408924598797 -0.9515598806752709 -0.11211809555419401
Ni 1.507943263126331 5.545818293108858 4.688409207835312 -0.9825303609148563 2.754109399210218 1.1361504323675788
Ni 7.488680228115824 2.3035488568714677 12.010640852458383 -0.7275777145592179 0.9417644918514038 1.1511062823464626
Ni 2.6149637626400652 3.022708227966949 8.902105858232737 1.3335643610768 0.2589370849246831 -2.277053034708162
Ni 2.324914764441526 2.1541001041844585 10.961594495821615 -0.1854546994648161 -1.9908038922320874 -0.03295717165231098
Ni 3.629961664200544 5.92135907166348 2.7487591964828173 -1.472491606404038 0.07910975894897344 -0.26428060862478353
Ni 5.292139192908364 2.656926142373618 13.308428785991579 0.40978267895606196 0.2712539546188232 -0.444999336066511
Ni 6.166677599336562 5.439683123796197 9.93914902252712 -0.21013549004094778 3.1065618769862438 -0.5136377631705155
Ni 8.760500655013367 1.525649660835905 0.08489875209151244 -0.00837022634156623 -0.5435175814490834 0.9169664589711176
Ni 3.031059417135747 6.58044618089532 6.6666914449483174 0.18412106825505709 1.4558979637114153 0.3706507459516068
Ni 4.618845678730952 8.471887310683172 13.090162481210232 1.2446535568770047 -1.5690748395474268 -1.2756662032084354
Ni 0.323626408672275 3.401692699133873 7.56597376804856 0.6898701727061152 0.003864110941096571 -0.8795967600734077
P 2.2243063933540577 8.657987462126723 6.05306483154231 1.1519539750587386 0.6218734929511678 -0.2706975678947209
P 3.461455310163167 2.3440661993780605 6.832495391704107 0.8934220959922744 -0.47483236026754355 0.6364930426365555
P 5.741799121175718 6.942099588697335 11.879142464804982 1.1650673725122451 -0.09115794836275913 0.15588598466876377
P 2.688163343208368 2.740644467951159 1.3488409110945367 0.736863510736518 1.0394517566922485 -1.4421808712356388
P 3.999853660867957 5.506924271642942 8.96345331853238 0.24865832870649432 0.27621669794073717 -0.6474947930636977
P 0.647141155377012 2.9731171776780787 12.322802673572864 -0.8437252429877793 -0.4739854388862159 -0.017558320598737503
P 8.51119419992822 1.8982628315021397 2.551147540688389 -0.3968986239045422 -0.43552687779970156 -0.7694136767583974
P 1.4547020863355926 9.357291646389424 9.813391373675369 -0.08785408080050676 0.048622131883077555 -0.012506874217759105
Ni 7.9785572314140385 6.359880953252899 7.527836045287144 -0.7012195362806634 1.0343895116779926 0.34679193705613826
Ni 9.028254793138801 2.0760493272113605 10.349423241337044 0.8306367852349372 0.29402750086991297 -1.3460280407614496
Ni 5.846583086847584 5.388562586052816 7.202997306681601 -1.022877140163019 -2.5446123140842176 2.399005599854275
Ni 1.66815472814661 1.2027495241205568 7.36014979679286 -0.20362237151277837 -1.025536689273053 -0.13859120214405812
Ni 4.627009200727416 3.2390790943077374 4.115405968888265 -0.26263484549124444 1.920389604174583 0.22354919234369242
Ni 4.412130288406672 8.786530091815889 6.53067497012101 -1.0030058551603886 1.4070385190065509 -0.9848939760510264
Ni 4.64563516758142 3.947729103752597 1.6122299107915168 -0.28987696903664917 0.8937540254103963 -0.07391638767349207
Ni 8.235661257509602 5.0999304750053875 11.706745770285151 -0.45759619889491515 -0.9690945471249246 0.4260968427350532
Ni 8.544476972941395 8.698748771957348 2.4644068353004323 0.1938565503752661 0.20488401183402133 -0.6463694212100028
Ni 3.342220972221695 0.9408224516960472 13.4436617503744 -0.009990021333176342 1.646672532727248 0.2251414765314768
Ni 5.060998920105005 7.640409136946672 8.395778888943715 -0.5604174425282155 -2.1281913038760316 -1.2799817998646537
Ni 9.294151026258143 7.424835856088297 9.14345804021857 0.9191974051841653 3.4084263574020714 -1.3640419608403669
Ni 5.727536416078445 1.9775428284540162 7.323536869806645 -0.718914125346949 0.048452181964116554 -0.09037221923667016
Ni 8.21055138985151 4.277657376071798 9.28669876284482 -0.5551381964071472 -0.18435889529747604 -0.20130992132951783
Ni 3.1483889332780435 4.366405181867851 5.954911147068952 0.9774496039578392 -0.7368928213125566 0.7800696138103468
Ni 5.706452009266886 1.3533336632001773 4.683519539660187 0.19621708018764272 -1.1728547297671477 2.2332231820074053
Ni 7.479437619878446 2.6718925993671374 4.502141094272522 0.6797235711904164 1.354108760887055 0.5121087281204987
Ni 8.825255212826706 0.25132293885186013 8.504259897910533 0.26499511819330496 0.6543480685401054 -0.763036312477144
Ni 3.331420726453958 7.4340878476842915 9.834321893405615 -1.318845823919703 -0.48387030210009563 0.3136565879547501
Ni 6.530526713054867 4.804270228354106 3.856928219091227 0.33021166409995395 0.19184106260713413 -0.40829863821136775
Ni 9.198309401347922 4.126904336537079 3.6279217220372897 0.13069097346037492 0.26662056961186986 0.07005381939429225
Ni 3.2712546310041497 9.331928428048682 11.258951253710782 0.07983121049603026 0.541469440670803 -0.8980331124017245
Ni 3.21122928593359 1.1359493941287935 4.72763164685281 0.040317468672124115 0.021160179017382912 2.226808536730313
Ni 4.08615241006507 4.44356453977237 10.901770892961311 -1.264808434558325 0.12202121360051889 -0.451875494361054
P 1.2508767704652337 5.880625911908705 2.5080385145318838 -0.8414703855153314 -0.250903158876613 -0.2582148620466779
P 2.8313815457739366 9.299030372738791 2.9359740909300243 -1.141171539731254 0.2863046783043585 0.36076536851709484
P 6.108200508437745 4.172695126586215 11.640207435998791 1.3763919977652876 -0.9154168550958105 1.9475653932584263
P 9.26473419699502 8.487069584924873 13.501343132462525 0.26197818574385207 0.4017734354983404 1.627535811897797
P 4.54775735385139 1.8794961142688869 10.672929543019029 -0.8449398321211706 -1.1003820165187177 0.057262838277211056
P 6.67896206301128 5.295038650720901 1.4893557680426557 -2.5969162656942566 -1.1818456204118484 -0.4826644547174526
P 5.74902430731052 0.6396250851250943 0.2674801440538292 -0.10174960783567637 1.8387827898353686 -0.03981121845966692
P 3.5254591992871753 6.95006606016285 0.4574021374619327 -0.3090183178517904 -1.3614852558567843 0.8509343591417087
Ni 0.04484776250816593 7.285370996969379 11.744005210680053 0.33905754452635795 -0.32360932829208783 0.003456848200348885
Ni 6.515400738964865 2.794523713127828 2.3356418200120532 0.5721882099108984 0.42313698877578093 -0.6873283801208678
Ni 2.136356173040418 5.6367242713867345 12.149005981947433 -0.2350307106207307 0.8023374240696117 -0.11910712527751748
Ni 5.685555269627659 8.48557763090483 10.443594628413507 -0.7769616643089845 0.14671948767814733 0.6624012778618851
Ni 1.3417076818741773 1.6234242576211522 3.4365875331573834 -0.2624607818072254 0.2103954285705538 -0.029881618050780795
Ni 4.401874277438699 8.570703460274865 1.8012717451613809 -1.6970520136210645 -1.4015769816713475 -3.0196002260930186
Ni 1.332971775002098 7.937514420824915 3.51319233456766 -0.8389023676778392 -0.49556496482920454 0.7901539946295423
Ni 7.282114971529409 8.765436301645712 12.601250087177807 -1.0086625392255337 0.9711894819807404 0.6702953358979811
Ni 2.1999190443094454 8.08082645697665 12.97191621093109 -1.2935446261507528 -0.03134354730828796 0.18835541805137881
Ni 1.7377792490819781 5.556139987587147 8.518405311025097 0.1834016735905293 -0.020540028934880755 -0.30183954071516406
Ni 1.1491423963437701 4.041450089615462 10.277570172730229 -0.05200416098143302 -0.47205556885335476 1.535952088851529
Ni 6.72254776378551 1.2841876935542575 10.113592227561234 -1.4135606363957849 -0.25247487423910714 -1.2371729322292435
Ni 8.056927042580101 3.9935574272362007 0.32903779158648344 -0.4436829312479327 -0.09458471465612098 -0.23842970899995067
Ni 0.4401517709811267 0.5609718965288084 11.906129004186399 1.3076406992325027 -0.6703606419182777 -0.26204452020541324
Ni 0.34460009185215834 5.735737471509377 0.20655681156365888 0.009508453711067495 0.6832814637450038 0.00849775305836601
Ni 8.200755163455751 6.801640093565054 4.7104920040036795 0.1920565210520499 0.9750888170351465 -0.12098763012968197
Ni 5.924342979703567 7.072941141247573 5.956463154584141 -0.07317513863209332 1.0862630606188324 -1.7335107706687305
Ni 5.052741564522374 5.498047614391613 13.409932329491074 -0.27850395131301714 -0.3580402562764479 -0.19353207715631188
Ni 4.168866716270632 1.7442256164516006 2.479376107301537 -1.2536485612867636 -0.49432569310546476 -0.45422702531236614
Ni 4.706917882706606 8.768467126478884 3.938793331341984 -1.3461555674782493 -0.8620816340077798 4.028815809608545
Ni 8.731327793074275 0.782988729749221 4.342943031982839 -0.12072872004134048 -2.0879399125551528 1.0027811407440923
Ni 7.980978137937128 8.994502852194797 10.54204951869846 1.6356584410049315 -1.4771432462434366 -0.23892156103470466
Ni 8.301954686136067 6.123260799017431 2.344719281137778 1.599092726065756 0.9523528088902115 0.5974415851610485
Ni 6.002722174228247 0.5044606192601758 2.6238385432196702 3.926799064154411 1.3856497689181297 -0.5574169651389947
P 5.8642050343296095 3.7404507119113197 5.808979277191455 0.6319619875354213 -0.6550546076888267 0.32348540111971386
P 0.42944723547127933 5.615302063664976 6.664095069619098 0.9002717719242559 0.26667327722667616 -0.15659638047222707
P 7.877592292699139 2.317182876941426 8.361720112172947 -0.8487941728702544 0.36715018899751606 0.7720074056275028
P 0.8860911975569886 2.310530075682238 5.401671138040243 -0.6644640739281847 0.3268998261179015 0.894697363160272
P 6.944473578427341 8.294372932373832 8.404568280959909 2.9780907939953223 0.3185828216117739 0.7383023000655736
P 6.891523285753719 8.72336132160876 5.011997144737258 0.674562081594135 0.8905242056191889 -0.6411997040836054
P 4.073484875932625 6.116805048289192 4.802437658416279 0.47591119515401903 0.15612329749055046 0.3894167137052003
P 0.12350939612720681 5.798803024771723 10.107535269574203 0.17470337448558299 -1.4136506250064298 1.8939275533283126
