# total energy = -340889.2122771176 ev
CRYSTAL
PRIMVEC
9.09821641144592 0.00000000000000 0.00000000000000
0.00000000000000 9.09821641144592 0.00000000000000
0.00000000000000 0.00000000000000 13.31615937996207
PRIMCOORD
 96 1
Ni 6.413814833389183 2.4566184653136403 11.704171917363563 1.1874603954954646 -0.2316952184895945 -1.1394823249542891
Ni 4.660124554816571 0.6459242227077999 6.240844095332917 0.23799005035937076 -0.5143070213233981 -0.901315382697422
Ni 2.603454577219069 1.7197903248605086 4.909854213829062 0.9856593934621414 0.44367110417339073 -0.3798951473680103
Ni 3.4839799449746574 4.8881258538035 5.398357459857236 0.5542514229268196 -1.7640706457334587 -1.0791519034953478
Ni 3.382780485731576 3.282609124923671 3.2352274343863954 -0.6383077272477911 -1.2813195448394707 -0.2959866814788128
Ni 5.0841014316238695 4.535597269132848 2.621844801705992 1.1028333062726878 1.5867941112040609 0.5592594176643724
Ni 5.630294647189805 2.8815415566099514 0.7797953764705166 -0.7667497567729892 1.1507733244870761 0.05424050651111949
Ni 5.59252795157549 8.13792681096393 12.753524695499493 1.4676520189235498 -0.8267333364154729 -0.5217948450600111
Ni 2.2127498772032785 5.614163509795398 11.535268991788426 1.6858872552534965 -0.10977067836793997 0.11360907827742371
Ni 1.1776640119540769 8.091935327868201 11.62696445434668 -0.16052554032330418 -0.3266938807546825 0.9208213139408334
Ni 0.7523469678945522 0.11751347078392178 4.521262119624315 0.33606632310851803 -0.3708772601401161 0.7706519200408728
Ni 8.49136521725863 2.7185379144451534 1.6433471120078278 0.32698878628728195 0.3372017222645418 -0.24918206242044827
Ni 1.3276935977599216 1.531402659384716 2.599194792375267 0.21475447687019789 2.274237419636238 0.9902781231810751
Ni 2.052421110613188 7.007628112757895 0.6271036525927016 -0.888588936269689 0.22370782940874373 -0.5490210277658157
Ni 7.618109324279203 4.261804647807481 4.008709558607629 0.9659323473468588 -0.3172777296471052 -0.04489737473332268
Ni 7.764745275427341 4.079194349644406 12.839080681738658 0.42177970341693816 -0.19317032294151892 0.3516400091770589
Ni 7.853816812421836 8.708876272920264 7.434345372296832 1.1464068199882642 1.0007198873396894 0.9577079025545379
Ni 6.910277198984544 0.9780582458537478 0.4318723088608049 1.164605345274162 -0.6238738112106481 -0.9128339248599827
Ni 2.399827399540439 6.995936904888852 9.488215828757133 -1.1210971375788823 -1.263476860231095 -0.06769406091286406
Ni 0.06053862104266281 5.395187641319045 1.3854927458925699 0.7825178182405232 -0.6477686155503748 -0.2614464816100981
Ni 6.312451606253772 2.372041447141952 7.200167294304227 1.422778812559943 -0.18313839262681364 -0.7122310568998186
Ni 3.779626481709704 4.620001421195966 0.47971618878309813 -0.5231744990163569 -0.027920380559351914 0.22141183428571548
Ni 5.980093766988308 5.882488103160224 4.959709709362129 0.7151461736640845 -0.4256522989984669 0.06968692297317676
Ni 5.603909820092355 3.2818812676244313 9.285531226281018 -0.8441409903689591 0.0058757420544866545 0.9860525151355019
P 0.4540637680930084 6.248982449760044 12.551052991283406 -1.4149760286860729 -1.0464464428425269 0.4307672516275291
P 3.7853128668600164 6.535185038037452 12.784924459388705 1.896380385744179 0.6661748859717043 -0.7095200857265587
P 2.3924760408181154 9.088781390258582 1.7607823381320813 1.3404731723814913 -1.584435124053581 -1.8964271798217145
P 6.310104266463723 8.016110793719873 6.041408465876285 0.5104429103823016 0.40750031067978854 0.5845655005293288
P 4.822482223628294 1.5529199407934986 12.585208604871866 -1.0387472744260562 -0.9854164242133997 0.8495207666236336
P 4.341686986399072 6.518198668316439 8.354025823465037 -1.598821217571924 -0.5047810841108339 0.030374498526799302
P 4.840487593568242 1.2653435218637752 3.986911142317015 -0.6691241984080154 0.6347956003294745 -0.2875087259147887
P 0.15096215297049592 6.047193111761995 3.9062818401720802 -0.9692680965883114 -0.5074704580175389 0.017607685779434192
Ni 0.7909425110083772 7.620829690935111 2.5747324183694347 -0.41697122628470124 0.5583132517010192 0.0370663087246781
Ni 1.9861588017336265 6.668373825582131 4.815775928437421 -0.2740821680962377 1.1548644638373142 1.1500850401707998
Ni 6.197240894000321 5.922765906456918 9.273093964680253 1.0895039361536334 -0.6290736102440327 1.3301769326618058
Ni 8.890467570864404 2.6599454018563335 10.36645663441473 -0.6462138694687452 0.07774116073622095 0.2681670881633833
Ni 2.519232389480761 5.467946076594324 7.360027502757933 -0.21443668851946296 0.1832173254938651 0.6800922673837448
Ni 0.9826255504064788 0.5350569988875633 9.500427454595131 -0.6035644102293347 -0.44698191371417856 -0.7419216419857158
Ni 1.827158374714649 1.366770436512869 11.739912440221119 -1.109979944619798 0.4060121561700363 -0.6875222412992289
Ni 4.226112345496 7.3174223757469194 1.5285485489500712 0.819499280560879 0.08937077455534931 1.2941812312934873
Ni 5.7290466862641924 8.184855410332428 8.59420872417637 0.135351869271154 1.0976203946131806 -1.3009326910847079
Ni 7.347428292908087 0.8198211591773482 5.435283480290928 -0.8233947589605431 1.1838994176170836 -0.5941122636774994
Ni 1.2074424737092333 7.6064090181939195 7.356272668915477 -1.1311804899568132 1.050311839335204 -0.7441096507759701
Ni 5.250271253040361 4.823919741794292 7.29826699127417 -0.6994048516694278 -0.3709873033554192 -0.38964657032781924
Ni 8.889175624158252 7.561773169318026 9.741223575081074 -0.7557552054346983 -0.351744138855091 -0.7579031050156366
Ni 5.003345664273192 0.45047725125100335 10.602192327027709 -0.14011303810522321 0.7014691903976241 0.3937801328802186
Ni 7.9175862100515 7.841015622171452 4.573461315660936 1.2645276700931125 -1.8553882596025335 0.13174049777081182
Ni 7.272331616059001 6.425478746609503 7.104277554059101 0.21102406329348816 -0.6271265138199908 0.38685203830181764
Ni 2.6448605593295844 5.583702681822205 2.7629435784501615 -0.5676023903124289 -0.12050889072105052 -1.1130274731968703
Ni 3.5053880477885535 4.5216042125549585 9.439652279930215 0.22902898451134104 0.46387997502109785 0.23152912522537547
Ni 1.1706674836651325 4.073535259142815 4.1654408904962255 -0.08485488896286678 -0.6190496503491274 -0.007315816935122885
Ni 0.5962761665050156 0.354863186957965 0.6309358212732001 0.19196087601445005 0.4252671477449063 -0.7120248544262834
Ni 1.488695632351809 3.435058836249489 8.455414525605919 -1.4237627737397673 0.1634234306963895 -0.33627226847173697
Ni 5.290157833038713 3.191890810789646 5.0209907448500175 -0.1923869078082751 0.02850247831506704 0.31462435118465815
Ni 4.267864059823655 7.248612566320018 6.0719420795794035 -0.6422700543296487 0.37726927970938895 1.309099028945584
Ni 8.24150090464578 7.756020086052701 0.14154004023183414 -0.5905312311944604 -0.0988594307720749 1.0740904298120406
P 0.5554561095203883 5.892778185728229 8.39437368302678 -0.5675252572175903 -0.8068965041952039 0.03169141756600994
P 8.683010044148523 1.7172337260969281 8.233860222647008 0.6575714605734095 0.6442752576851355 -1.403277509302222
P 1.8041307894099434 3.412140429539669 10.585054926917103 1.2004303253925712 0.4848424362053779 0.14969245426354222
P 4.125076654145248 6.469950827593067 4.075357631855788 -0.37001568347076924 -0.3194875928142304 -2.444101463751649
P 7.070278429789977 4.252952083405475 10.689666217250371 -0.036766260985756034 1.2181493399388892 -0.7775913274731835
P 6.935333686510882 8.233339804678051 10.438111456060037 -1.3351422470868812 -1.2032066025861277 0.6257581727175546
P 2.5190777198046725 8.6818818653347 5.9370764907816 -0.5819789707490751 0.7278844471663594 -0.19999248806967493
P 7.004034317342897 4.382174048669296 1.5894165254206403 1.2511705320599162 -0.291962133700452 1.5897588502593394
Ni 2.8891203707382878 2.3557738365039382 0.19547426610551802 0.9630791941687802 -1.8446112235916876 2.232287300456697
Ni 1.5638014074171365 1.3962395589158483 6.969930563587007 -1.0918971189761582 -1.5511123415317352 1.6593997504859292
Ni 7.042501575607731 1.2043672766199442 9.427361499610925 -0.7007323122315997 -0.44576012549193555 0.07956355865694038
Ni 3.0518419681996294 1.6640819468199275 9.46400729498441 0.686674805697269 1.4788669138027626 0.13916918613471516
Ni 6.4972727709632885 2.3870717003712585 3.0496138150423313 -0.3023303643086535 -0.8625912266543467 -0.43696592423907327
Ni 4.556186532485098 7.198508689483584 10.507541763834539 -0.33937096200171873 0.01379268290871818 1.3707080600066328
Ni 7.367171422149973 6.251502655658663 11.864431537510225 -0.08531177399462726 0.4687339606792895 -2.1030839672854422
Ni 7.720000247956562 4.223546648516179 8.46629417258631 1.2916024148227176 -0.19574322587501772 -0.4774389446524552
Ni 3.5033136544857197 9.042025656998652 13.044655787514378 -1.8395196680013932 -0.49094623511027063 -0.1336791095544214
Ni 0.18540436037053262 5.207818976062189 10.416538675532186 -0.8818349053753072 -0.8977042683073958 0.08292604737127009
Ni 8.675567703263793 2.8601152573635735 6.102742271018368 0.1542422784177537 -1.17848570280068 0.07699194127502225
Ni 3.7265929792438297 3.239529071024904 11.592355749589442 -0.02977594571085195 -0.7613262717645727 -1.0814620396857633
Ni 1.0698865423691142 3.702300741881695 12.666077190103927 -0.19760599011536933 0.532799937921263 0.17699551295386937
Ni 3.177606611292061 8.724661678097531 8.122763723777512 1.2004346962679453 0.5324932053141217 -0.5271846486170146
Ni 5.697248420503644 8.090479613269721 3.888039006788254 -1.235784279411833 1.0474417168762606 -1.1661742324231787
Ni 3.191854417924684 8.73572510904598 3.6838086173728786 0.6724427212582871 -0.5036888794879196 0.5039267065303386
Ni 3.7921001361754296 2.782780419319324 7.067178667516839 -0.5105609240174046 0.6814991750336006 0.5489184407496804
Ni 4.9807911862129925 5.0764498317656095 11.514202981905171 1.200797993144635 0.28982966073848154 -0.14192669427519428
Ni 7.874915575883555 0.25186228089926477 2.554318750590625 0.8052887933884518 -0.5424590582775819 -0.06604135580078949
Ni 4.914483386252228 0.7411816369242106 1.667808576192036 -0.8844116649635478 -0.4875261536851281 1.2165765961351307
Ni 6.009672067986173 5.715617719093214 0.36634058674535575 -0.7741249661911378 1.360509007986444 0.4012206483186639
Ni 8.309300812069987 0.43925278187509853 11.430151840632185 0.16374481859155027 -0.5548265787039993 0.27332909198029703
Ni 0.0934932700873778 5.215597950947815 6.3038028418955525 0.6421785230571069 0.14036217800155182 -0.438391086721374
Ni 7.30214647067912 6.336889415075754 2.717840991081131 -0.3893691482967165 0.20303950242611482 -0.41694731502530125
P 8.568554483843032 1.7909201794287375 3.8515123980475185 0.08121497821743433 1.799220197051398 0.8081447747800082
P 1.944243319513643 3.680210272849761 1.490477972913323 -0.8476006667827855 0.9896973109769408 1.7708491021078725
P 4.9132369306272805 1.240196052175033 8.387621896754705 -0.01677567679644208 0.30832566266013994 0.49412360439698766
P 8.766458883506388 1.9837386762136537 12.765229550692895 -0.2559900864812172 0.5963480949865536 0.49207726339092034
P 6.426807086180617 8.07243785046481 1.5955687392424662 -0.49280437136493194 -0.5085397798223177 -0.9577796363327375
P 1.7745797830607994 3.3979199175557677 6.261444276544657 0.9046835278387064 1.1943275549289432 -1.2419878371193833
P 7.029946037195842 4.274523954111701 6.172372739550162 -0.09124999385593317 0.49402615958717494 0.048318484599729684
P 2.8587232302787773 8.827953727075927 10.556971462847553 0.5260461641371973 0.4038105205330272 0.12509573876078456
