# total energy = -340854.9750852336 ev
CRYSTAL
PRIMVEC
9.37752403775052 0.00000000000000 0.00000000000000

0.00000000000000 9.37752403775052 0.00000000000000

0.00000000000000 0.00000000000000 13.72495432389844

PRIMCOORD
 96 1
Ni 9.0418366853664 2.415275057931753 7.129934920074037 0.7433874278979649 0.16917318869597317 -1.5506973654815037
Ni 0.6358542616599318 9.021421815817101 5.920931085874658 0.43627558304026803 -2.5296364095006756 -2.6437838767800725
Ni 5.293180880376649 2.0257139597154117 11.774295236482155 -2.0253800875450603 -0.55967465082492 2.2625993211766775
Ni 0.6634101156657263 9.04544703207126 2.5079887613125558 0.9671993869847408 -0.7031476065413116 -1.4616104407151602
Ni 6.796829329045405 0.9092766017714697 5.437455961217197 0.32068007046043484 1.0396386758920741 -0.8219377147990425
Ni 6.69077891116161 2.429941505325002 7.777753026736722 -0.965882210835214 -1.1389575627990707 -0.35724784228213957
Ni 9.09407887106192 5.7829689541294655 9.996089767308906 -1.5293135004890888 -0.2590694967374893 0.5460385480987241
Ni 3.3572848446590253 3.7264123182782503 8.222853448054892 0.16365971507691168 1.942003582899933 0.30552521709686736
Ni 0.6433778490919035 0.5450470088897729 12.139708272881135 1.6998403749994788 1.46977189348003 2.8983855675541954
Ni 8.22446356891002 0.08689682530021972 7.070945605926189 -1.297379940736443 -0.10859079912722587 0.43550476631251445
Ni 3.612137811926502 6.8682579286581795 10.004668326180612 -0.44108046062807904 0.2172178508090259 -0.4397522287349588
Ni 2.939581797192594 0.8431425521575627 13.527548052286676 0.557701329148633 0.6668559711991289 -0.44767508312646126
Ni 7.230136576295958 4.386233655544107 11.547393854729425 0.43460873686080637 1.7187122722033175 0.7132173320724878
Ni 6.035515050515396 0.5827249622026475 10.061407034590363 -0.06476017509552073 -2.5249636866153544 -1.1450320511279248
Ni 2.7720054449436407 1.6425389552809135 7.654956226656723 1.0807069066872934 -2.048361636041898 -1.4104809690291966
Ni 1.8665023587930427 9.177566966421317 9.746762037128452 0.9067764058119931 0.7222809849366529 -1.966055481642814
Ni 4.857941863200898 5.185798854097815 0.663450439018534 1.1927406700577974 0.8918385535552383 -1.686123796744335
Ni 2.2022458472971995 2.137700350233431 11.097833483040265 1.316882529545745 -0.3724338059939586 0.4183791623758214
Ni 5.538590681068038 7.034071306412292 3.85179825270945 1.312217777080224 1.290067723345746 0.7141915230602991
Ni 9.063536275691193 4.587297145671125 3.778672321269196 0.8202780677084325 -1.5180834361012243 -2.533371965283708
Ni 6.427214224182927 9.113143377168361 12.796254978798064 1.06660312029606 0.681300428759233 -0.21617501136680833
Ni 4.139398471218592 -0.391428163226569 8.205093355524154 -0.7186811834005364 0.9656646955077692 2.2401875291403806
Ni 6.184308222375169 6.893633508355195 13.55568437502242 -0.3538688985075777 1.8902387916228154 -0.014470168591717016
Ni 1.0661306931831844 2.6703999733925827 2.972728530952772 1.0774518900851058 -0.7055605868581785 1.3589208375637176
P 2.8987051704744524 8.395997236248457 2.805257206971596 -0.6412704094205407 1.9847096064088914 -0.77119005193253
P 7.556127439935039 7.270384908912215 11.385000459944823 -0.8549648204573405 -1.077974595357795 -0.13706190998372522
P 1.5278987254967245 5.2881076399420275 3.471425252418879 -0.2705127055774244 1.6005140318933144 -2.3185629810264907
P 2.0949294636857263 6.218198593781308 12.17937332351027 0.8326263048611402 0.0695542540500544 -0.3739656692574527
P 5.031529208275345 6.212168845907996 5.747942026825588 1.31919600817027 -1.1007972496792653 0.20694526523842421
P 3.9418421750334383 1.0648553499315976 10.077314128396736 -1.4073439660621119 -0.21453644732212085 0.09599933561546048
P 5.360455236897858 7.865266893110137 1.7557237933544678 1.4076476133454594 -1.0393910786576421 -0.5222437596719716
P 4.537708799241776 3.6322244681389955 12.99792988348393 0.3998199113163953 -0.1631436946724416 -0.0807570647444093
Ni 3.170681496399265 8.45674483612919 6.206712064745509 -0.9027112346036841 -0.3765532274789708 -0.7147121714504594
Ni 0.8954166214343711 1.5249823155611104 0.7254161792550118 1.5201094653923173 0.9101550924762389 0.10976013684497872
Ni 5.392948357241596 4.703634707282793 3.6241560465679266 2.738605647147664 -0.11808356910900954 1.0978116846883803
Ni 0.43852677705815085 7.143253817281602 8.232392265374848 1.9987611994059513 0.820330775323239 0.19533622024458616
Ni 4.525114784632356 8.62471504438231 11.448986118831241 0.12165997360635823 1.492254133742946 -0.4042267821348393
Ni 7.478500297018596 8.617428708305228 2.549767505830717 -0.2232110922779833 -0.8578300578202775 0.04622097864075266
Ni 3.1564745476775435 1.2502771301788587 2.4836812815887446 0.8551239717430241 -0.17880916912384046 -0.539154419384381
Ni 5.766398869382745 2.749790090803866 1.1914959970617844 0.9316795968115761 1.453752121013006 -0.4897018211802083
Ni 9.53234682846019 7.028763627879953 3.871493866174949 -0.7953013431584368 1.0635471070785554 -0.16933465397450193
Ni 6.354941647418366 4.725231144844592 7.68800543416825 -0.9619389099167498 1.213884394014948 -0.537348476523894
Ni 2.1583871679760827 8.461808699039903 11.751717909919504 1.9354922641439765 -2.8779134157427726 2.610333567541427
Ni 4.432877459466115 6.481435067423186 12.141574400138973 -0.8639292287394799 -0.45797620794215316 1.681637221727891
Ni 1.059069417679913 2.0058992516962713 9.068887090833515 -1.4190738529045304 0.10654548656242296 0.327722579129513
Ni 6.25538985360332 6.021664447702205 9.910542367699152 0.8325332309267017 -1.306065898546215 1.0002244357605095
Ni 1.7453916375118324 4.742692094362641 10.543125749019719 0.5331624634670044 0.21441431992195978 -0.9030894438787092
Ni 3.046916935851885 5.951576834008379 6.14316621173041 -0.9439478726559678 -1.6707254599113937 3.435631199951638
Ni 9.149706342888487 1.0193087163069101 4.058757392117885 -1.1357678522171795 -0.9406725443388058 1.3033276736794457
Ni 7.701525948139852 5.452139288153481 13.944004826825637 0.9044629271874682 -2.3239658972096167 0.7101278945138867
Ni 5.801564584040471 7.772888905085265 7.130827660350147 0.1637774716016986 0.006731919407194858 -0.5964931052048501
Ni 7.876857512661323 4.953179996017931 5.37119250177335 -3.2002767874429012 0.26873633040329203 3.41871976890828
Ni 0.057252596719951594 8.032711960024368 10.745980346213305 0.8119415228182791 -0.7395503135400618 -0.28242102697923616
Ni 8.42454241902662 3.439947717914455 9.229455619465476 0.2138556192050123 0.7894862791385564 0.17719400211792063
Ni 2.7366146697121048 6.9528525718388074 4.242863505760751 -0.8790709694769248 1.1909254712259296 0.8420380850933433
Ni 7.916871407179862 6.9730142482425705 6.98141744741718 -0.5045684538793955 1.2523727798981334 -2.1970364476742033
P 8.582225483551866 2.767082244891559 4.971425844287141 -0.6142252323772905 0.6436273396884915 0.9623338313623234
P 0.12765341971232946 2.693102958775611 11.100578284288348 -0.721409380964977 0.9190436532151203 1.1712169370534087
P 2.463006654627174 2.9417761377872362 1.1575052861498214 -0.4107087903147572 0.4597037321562212 -0.9292079953426321
P 1.1066697290406118 9.514717083511782 7.755299483489666 0.7356463504999653 0.15198459273182857 1.7898289856444853
P 2.504999206690454 6.120916160752174 8.360528627568478 -0.7849840203928287 -0.8359034329505153 -0.5351162447592656
P 1.253596773642548 7.922291615999106 0.28685001659644427 1.8869686055119759 0.3827943232926762 0.5349768909679238
P 7.991938486069222 1.057897227191322 8.969765725365878 -0.03217272807780266 1.192474303770288 0.08699070435894696
P 2.1910021961306354 3.239859490273945 6.24537559582119 -0.0937907579999159 0.7904499286034065 0.5494488593318536
Ni 3.7868410823460876 2.3806719947085497 4.990599129670924 -1.18654354010815 -2.2859418525573596 -0.8047239220239173
Ni 8.27617123574274 0.6483366837348384 11.1032546296119 -3.452450328391506 0.9613192740548797 -1.5208669123836323
Ni 3.913362634922634 6.271612969965418 2.4254327918296865 -0.6045121188545847 1.052131409042446 -1.096705338998079
Ni 4.878638058467459 9.28701204796007 4.3441538925084755 -1.2212675738528969 0.5585320525800446 -2.130814343321175
Ni 0.6515934977883393 6.161098850701069 5.924047237069529 0.09299577290244629 -0.27264466431876266 0.7913333596496243
Ni 6.721959178158128 2.6529015137788976 10.310323091471226 1.7333518764933633 -0.6829528767609916 0.5997401513872381
Ni 7.735847685645793 1.5841826239969046 2.2867148316574495 -1.003306160009627 2.0658335675744164 0.5506176828289743
Ni 0.3040596484737403 3.9048665982613278 1.2262462874103546 -0.836382686579779 0.9940165071775848 -1.3423451925932237
Ni 8.730024637877316 7.769156650569593 13.132695217328639 -1.208721618867086 0.5726499800386654 0.3809917228662987
Ni 2.0540997245871284 5.519582440105048 0.9010103144459267 0.7313916889886695 0.3329054088820331 -0.09026808955863809
Ni 5.284891149241334 0.5231645568487582 1.1038696004014659 -0.25590935384195285 -0.5048240215336274 0.11868083637337624
Ni 2.0690474976976394 0.5617877645716325 4.479769767771706 1.0812344970559895 -0.07150315024630911 -0.5663631185886892
Ni 7.773751637284868 8.25864464355733 9.051923150082628 -1.112205748626523 -0.8668458881656426 1.0904537016614124
Ni 3.964291967270931 3.9677147634976166 2.2051613194804225 -1.8956903016556899 -3.0008234597061483 -0.39665591176611686
Ni 8.147286547141196 2.7710114274093156 13.003735508535824 0.6665824058227681 -0.899102434206503 0.12453935203668229
Ni 0.29228241619676987 5.012586609979716 12.603364938509893 -1.2510694877056776 0.15124694323485566 -0.3376472944423927
Ni 5.487726991387102 3.417432283009601 5.710541648220412 2.0757523693500253 1.2765732884037368 0.6038716570571084
Ni 9.345893520582969 6.627686930303694 1.471095312172001 0.34595709985966866 0.09368894231472898 0.23495203486399535
Ni 0.8799568355184435 4.384489436097084 8.314233667535873 2.0101606994921446 0.7275790001107986 -1.7050998236262054
Ni 3.1796651643038256 4.54681437495715 4.217719550904281 0.7318542304473847 -1.219306593471784 2.528371169635007
Ni 4.336720329306028 4.6191619719129795 10.947283900952387 0.09204009385739632 -1.7598697202782336 -0.5531839008942537
Ni 7.39618439214779 6.012962105514906 2.739912744870804 -0.7141907517293506 0.3474879346818983 -0.0012894082353848762
Ni 3.6656834734453336 8.023493854022089 0.34161569397580144 -0.47177968948414883 -0.450447760775592 0.27563588573660275
Ni 2.380024945558848 4.038552579104141 12.629414762175946 1.5428907249528911 -1.2384242881378413 1.6792072721301599
P 5.381564043216402 1.9171316103762606 3.214095681087108 -0.4450736409478722 0.15912557465198401 0.14599700768982599
P 7.720243485861672 8.207574648350402 4.831595709779329 0.28089353459111627 0.18637232618307903 0.11820878183296418
P 5.555057613051762 7.829829230259056 9.35593028442248 -0.8391545928979612 1.2330560818473926 -0.10558389398010204
P 4.880344767818847 0.4004071423691752 6.342246355550732 -0.0503815377763455 1.235494773195872 1.2124440620239958
P 5.291286620547086 3.538458606575633 9.288883801732252 -1.2410974640946304 1.6854496534954457 -1.7036782606883303
P 7.743134021722875 3.9668895413936482 2.18055188348675 -1.0377777114239353 -0.21776883821648946 -1.7985648228555862
P 8.54543745725793 0.6347055149811127 0.6662955797724417 -3.0436847778460487 -2.8034936060703006 -1.9055625664640792
P 8.415286802928707 5.106193053636631 7.546706779416331 1.3035415894624647 -1.2538982154037244 0.553570337699395
