# total energy = -381175.4890764966 ev
CRYSTAL
PRIMVEC
9.21364128384970 0.00000000000000 0.00000000000000
0.00000000000000 9.21364128384970 0.00000000000000
0.00000000000000 0.00000000000000 13.48509534804300
PRIMCOORD
 96 1
Ni 5.000989509852968 1.2398613001595382 9.156393391869738 1.5162769790201047 1.54865873778492 0.03647289811505331
Ni 8.130172481039901 0.3065452213404968 3.0695992734133037 -0.24961914995786688 0.731738787915443 -1.0641731706983286
Ni 3.455760491727885 4.62987324663195 11.467577299030648 0.3580808797063962 -0.4945961731580321 -0.011303855048593435
Ni 0.5342299643042954 0.5065816690965288 8.815314521079685 0.6009400852326102 -0.7527842957318325 -1.253523862783441
Ni 8.48334057075228 7.45155093504122 1.3917159314134726 -0.5481972463129398 -0.07391844455602108 0.7676920660816005
Ni 0.2650644862515584 1.0477292353876246 12.324851352386899 -0.684535390756763 -0.4898046653066596 0.45870948656375193
Ni 4.096200707634263 7.379011936050701 1.999745320856121 -0.17955890280567138 0.669655388321137 1.4319766770091273
Ni 1.2815253867129641 7.397890687343928 6.21483517206641 -1.8130828139661033 2.76594264439972 -0.5734287671862188
Ni 2.9583159908390146 6.711953510048603 10.442669332104805 0.741404336029665 0.27614187883874375 -0.44083877693091816
Ni 7.245165366974714 6.53824872813977 10.947699423984263 0.38944345317807766 -0.18094344185802386 -0.6323653936214271
Ni 5.6824120028468394 1.299952669576045 12.962642646381708 0.7182312403473115 0.19466156277506474 1.0459684747648437
Ni 2.830356938637781 3.864707966666809 4.626048664073718 -2.1678626543237245 0.6777057694294393 0.8744758939070746
Ni 5.152249861234568 6.791872635825785 11.92093268294131 -0.03397250029070278 -1.854666808055477 -1.0943376100968507
Ni 4.336584612583153 3.1924530468973216 13.285853502343576 -1.5952790087466204 0.2302739126620357 1.4545008262535726
Ni 6.531937383759165 7.0290594071979315 8.475612168319504 -0.025806933760774912 1.3004588367720828 0.8306653244800275
Ni 1.7158932983615083 7.241387773987782 1.5300458584100485 -0.05025683927302312 0.3124437985935716 -0.20432325423454487
Ni 2.814666107279867 2.247953450108676 10.880705194407247 -1.4948041538583094 0.9455414423953329 0.37348667273850517
Ni 0.4108473278021075 6.6101427722300805 10.010998253303272 -0.8509855240946183 0.6535746807091906 -0.11421920105759684
Ni 1.481452192135961 5.8710705247990616 11.952635901743099 0.9575204691340801 -0.11736623132701077 -0.5221242033749718
Ni 0.11955252575909654 7.580781469760006 12.644367538134718 0.046717715771513096 -0.25160944091501825 1.1755073368986464
Ni 5.665265416142742 6.904960870756512 5.341850938705238 -0.8589999097586626 -0.5069271839195593 -0.36076022631077226
Ni 5.62200736962166 8.840498167204515 3.8414582638784593 -0.3882656308198926 0.7469106105598751 0.3216046391572332
Ni 4.51252830935985 7.887531233940283 7.16672134519072 -0.4964998179386482 0.3837608009710036 0.6265904388108628
Ni 4.930284025507327 5.061624484113937 1.9076015356275708 0.2846627718255614 -1.1648431723165809 0.6897817267573669
P 1.6718336650358816 2.523155706027358 5.991347242774677 -0.28311136817804144 -0.98316568050601 0.5383576345146986
Ni 3.805491893186298 3.558004270693689 9.238463902921186 0.4686486000543348 0.33236187767373726 -0.5375433661435194
P 2.67610215379093 0.2995096847433724 2.6162300690404936 0.5648114578308531 -1.8415441546305897 0.26974086040840645
Ni 0.9980861353544848 8.613842587988618 3.7518233532117176 0.1598683663552795 -0.41600474860637393 0.23920078283802032
P 5.621887592283049 4.85045703614446 13.024983987035798 -0.35163281008820735 0.3972012427466256 0.5516682355806758
P 3.385543330378115 5.739112752216539 8.503094617981501 -0.45277898001192984 -0.1883975841432239 -0.9749034404972178
P 7.553186613672543 4.119253238495977 6.839478599738411 -0.1856840418668028 0.391391578043384 0.12395262629527685
Ni 0.18642144981264466 0.41665007917569163 6.0102130949699 -0.3367162979876911 0.22356513318329238 0.2370953064592433
Ni 7.543576785659446 2.166845764586825 10.210806202751803 -0.43297274391928015 0.6746235309596897 0.7207691762778167
Ni 4.286268916725511 1.3787569447400108 1.6342585925497732 -0.38772544204570647 0.14293945181042478 0.08375111437572673
Ni 6.590674347885235 4.108058664156656 11.237332085113023 3.469005918757342 3.361698871438546 -0.21012597695925103
Ni 4.936982342828057 4.293953093679416 4.841283934735219 -1.2883666814942392 0.6205773998475635 0.3319648993456347
Ni 0.697253371701543 5.688621997171698 7.592000920931193 -0.037981878560412005 -0.42167454529764153 0.7875936901015339
Ni 0.5837182751613855 2.107703400237767 10.191913630996428 0.29002557879937146 1.439504095734424 1.3651899584018812
Ni 2.489857605893771 1.2243731689131188 13.130410157752058 0.5383869450907373 -0.4759960415583415 0.6990315274904091
Ni 7.9628158980774 5.173468877451406 8.981087279080104 -0.09416485350988299 -0.9099231789710909 0.21817147297154682
Ni 8.623682757037503 2.775296217442895 2.124104603350052 -0.8996225683760314 -1.5660617637527159 -0.3705635855544392
Ni 0.6879125820182473 5.263412445106105 0.3607030056750916 0.2340657756043001 -1.1950713750735031 1.952763135409282
Ni 6.934122045887338 4.561461959002762 4.471334118519433 3.0057388947298946 0.3956177003095896 -0.7465329155054821
Ni 7.904760743417263 7.800941431766666 4.686057110717341 0.6074604028496313 0.04314542503922247 0.2995106354716713
Ni 9.135528179483872 4.202415566057062 11.142761426731406 -0.8028408460685915 0.05407287058500365 0.7059174559769649
Ni 8.120599507592532 2.8616188240149976 13.101539212326324 -0.1124014311225677 0.5520824402999589 0.12178055834462254
Ni 2.365270746456481 4.961481415394523 2.147299024289812 1.5509300503176 0.5686292889150465 0.28702870095457667
Ni 3.9803391666326413 0.4130263540006668 11.578869795246368 1.2271780258000609 -0.6971373957914897 0.15296264037438173
Ni 6.819108159897419 8.777366296115598 6.6443631578709645 -0.25282840092378395 0.7995801730394487 0.7744802926480274
Ni 0.856355453305527 0.37684714819143683 1.4167715079224035 -0.27567368095307365 -0.04839021837792956 -0.44307949333597885
Ni 4.774140444167011 8.042891655758918 9.936910441188111 1.8600524978474224 0.3793919824793466 -0.7697615470161194
Ni 2.9463474706194432 6.021464793886096 6.28982592104186 2.2413380978050563 -1.3277202435911972 0.48688980565270984
Ni 1.7336387717586552 8.601920135976204 11.15799986829503 -1.0240739886845975 0.9424046965385641 -1.6511195127550082
Ni 1.473869365237803 6.11245871666399 4.331344814701037 1.5015131904473689 0.4206705295131594 -1.2455678411611582
Ni 6.001379055565338 2.213273303760358 3.5390011352411372 0.601485673323435 -0.22824376960588433 -0.2773657239435159
Ni 5.180065844716389 5.565702806833516 9.675070729437595 0.22681397913789325 -0.3702162295173495 0.7929894071958085
P 7.951777955642415 0.9974411804542769 0.9176915856794352 -0.40358503478578234 0.1354886519593344 -0.9606667280725456
Ni 5.442166302519421 5.210019393010327 7.197022247766628 -0.4513520177574162 0.4378524406090846 -0.5269216247636151
P 8.917699268759392 7.907709108675357 8.271366929157544 -1.1253410004569004 -1.7609205301402513 -0.7854200794889828
Ni 7.652564950153138 6.503218463417054 6.622126034275942 1.4727942252461215 -1.0318315211428293 0.13109669353922584
P 1.2861874892773237 3.107798109424327 12.642088083244555 -0.49286710628206726 0.32204738312160663 -1.418975379653453
P 4.086885716146975 3.0976631038496327 3.010749902861768 -0.0683304089452823 0.26086669784722816 -0.7137613775014159
P 4.180118553792734 6.113638062767228 3.8063837736768713 -0.2570226415107896 0.5245379550227869 0.7593290388288858
Ni 1.7197906686870497 2.8746837675649215 1.1878760924745007 0.2529780391277708 0.20886176553484673 1.1408833190668737
Ni 4.076336096707862 1.2284732393501543 4.959966692743178 0.027049547918624385 0.5568639208490023 -0.1519542537145254
Ni 4.170923339644056 3.016435640989172 6.918190738488062 -1.3682205176980888 -0.07686570010980309 0.06020803694846405
Ni 6.131245331542901 9.074607582338526 1.4984366187508626 0.4351643522539603 0.0634576542340133 0.6061514542302205
Ni 6.3095200796017785 3.0504524051544193 1.3265413960191845 -0.08210612257313603 0.033423826876084375 -0.375327839712302
Ni 0.7460119621572553 4.024085536149595 3.359191394519766 -0.6483769385583349 0.43590405863346215 0.17054255823967404
Ni 1.9116002560088594 1.9160504448202935 3.813005617773719 -0.9550421827969167 -0.5593062117419076 -0.4691666773413339
Ni 3.2204164486420463 8.043481328810538 4.6274776998597495 0.5438587668385859 -0.25352542699080854 -0.2868705781101576
Ni 6.9634398529225 8.460444671794901 12.891077529290504 1.2740582352913672 0.5914848533569813 -1.7300238405613946
Ni 3.4281011401504005 5.769573050789211 0.12663597329166487 -0.16086723993343907 0.5514517486944955 -0.4619735020270044
Ni 5.043344619513761 2.860596109816097 11.180843249496247 -1.3890605943718917 -3.423917511059135 -1.2922724443065485
Ni 1.858999577076195 2.476202989292228 8.258650261253731 0.17140542046060156 0.10168430181537971 -0.9686813708469059
Ni 8.47437569763939 8.553115477313336 10.798473444630746 -0.07919254847076684 0.8291419458569654 0.077387376941228
Ni 8.634766767679647 2.4725636009267697 4.752714121017963 -0.1316379107546765 -0.21910529763972586 0.13878043533672874
Ni 4.442311148010081 8.151428351822466 13.385845467343511 -0.5811328206986959 2.1632979177711773 0.8908180827105239
Ni 6.206078527249874 2.460162039559916 5.914373718163159 1.0550930627739312 -0.014909570121980773 0.6286671188342334
Ni 6.21527374139855 6.71409107486072 0.6262825344826731 -0.825033837225863 -0.5369178167443786 0.90244718230902
Ni 7.784255527134146 5.467393252758979 13.040977025832666 0.24727430387477414 -0.3437600922083499 -0.6687513884496289
Ni 7.9181297371344295 5.027506369892943 1.9830511239463127 -0.2585383068243677 0.19915739376288927 -0.15769321308083162
Ni 8.133618382935298 2.1248684142247267 7.651227129417279 0.4300447716392078 0.005047846836552597 0.08315590399388906
Ni 1.980223457390973 7.710739882151885 8.462032182213555 0.5467173193333036 -0.19344234565598298 -0.2516793749210053
Ni 6.237119285232733 3.5046296458807755 8.549969018764465 -0.07829034837147161 -0.9520584175782442 0.7151813977773942
Ni 2.6303564240833315 0.3841121044602065 6.742480146839583 -0.12183840816575145 0.3425858693945906 0.26725023277606874
Ni 6.425860729957839 6.863656116218916 2.9914795718077016 0.4302779706959364 -0.9536404173533833 -0.17694563355254042
Ni 7.250721192757932 0.175202920005601 9.151741424310954 -0.7363857997691511 -0.8240061672922969 -2.192222314115012
P 7.184696238259512 0.7450979689272463 4.911824494899236 0.5476971667480697 0.7338699753258329 0.06563974948699662
Ni 9.07672671986778 4.811234564570393 5.460155937414504 0.9931243343806185 -0.41353031892395237 1.1132516733925344
P 4.960191505594107 0.940473235483062 7.031020991458706 -0.5202496120600782 -0.9056165811759371 -0.21074921236554672
Ni 1.721974301706325 4.723364066237791 9.692048706503492 0.37434105031900045 -0.992969039749677 -0.8029308346792365
P 2.351993889153631 8.027025765213805 12.982344175854772 -0.0690829708405907 -0.6848254111933562 1.8196077595688145
P 8.67114222405137 6.081611445151194 3.714617747747014 -0.7169734566808104 -0.2369634088670693 -0.9989188295752087
P 6.2132928084907695 0.5654319610122072 11.041501664670488 0.1309552828653551 -0.6070094313551417 -0.2391231355225495
Ni 3.099745386813161 0.3441156870058893 9.490581380233142 -2.9166036332241188 -0.1318245728441859 -2.0596482646993106
