# total energy = -381168.5412935839 ev
CRYSTAL
PRIMVEC
9.25424452255446 0.00000000000000 0.00000000000000

0.00000000000000 9.25424452255446 0.00000000000000

0.00000000000000 0.00000000000000 13.54452229213421

PRIMCOORD
 96 1
Ni 0.16280715019817227 4.745539649571809 10.62115398357123 -1.700462324854194 -1.5571971142732344 -0.577633806406502
Ni 4.088293938894971 8.235241280505615 12.965060744657242 1.18883079348043 -0.8845227366201154 -0.1658387250061015
Ni 3.350832435422386 0.959813240148109 0.5522368709868702 -1.0938228752439614 0.9572181074023127 -1.4567842229711103
Ni 3.5707873227284934 6.331606134998397 1.4265362632659078 1.531981277129239 -0.24365316218241906 -0.5602999431137448
Ni 4.388723737847575 8.960487181014381 6.707545943332278 0.08763373725958457 0.5409251381315587 -0.27695357610676175
Ni 1.523082096205562 5.439709796480191 0.25836740608051817 0.6747734262739927 0.2870724097083185 0.5192232276780929
Ni 2.723172544954133 9.033910358222672 10.845112257121388 2.7594053575018345 3.02570479632886 -0.8912574842407877
Ni 5.204753778564726 1.9076144707151288 8.213479924165144 1.1449351205387441 -0.40410156941088465 0.8639456837997121
Ni 2.1179264350755544 4.557706245513744 11.24867135867157 2.899278254571794 -0.3058861999807119 1.2037655604133914
Ni 1.2087431675146096 2.7057468022413507 13.306571986546956 -0.07632114046024274 1.6676717606867344 0.6307484268432944
Ni 4.323120397385062 5.140223930483883 5.25803786852312 0.24950730697035095 -0.6449545431403473 -0.16768683395843378
Ni 8.522548560516782 6.670385523861658 10.46453884848146 -0.8191624660467506 1.9059549168064915 -1.2458953997039057
Ni 5.670825302857788 1.4213501845530865 13.377180022526767 -0.45505183520650666 0.5732912131670901 0.6075352219516247
Ni 0.6872239108594106 0.9897784843881449 1.4225948804611424 -0.40811814676944547 -0.5673036281250875 -0.49553848246664334
Ni 1.01197941735042 2.7730714322124013 8.436801505682038 0.9831708227123325 0.26632900651338 -0.6601160813721342
Ni 3.4060987845889996 3.8920761891662856 -0.023399357646983043 0.946827251086292 -0.20829098063304124 0.24420723491367619
Ni 7.955837125442253 1.4673622890501399 12.578567395702194 0.8920666104056442 0.49735599529135643 0.22967124608103023
Ni 5.242909029337323 6.8730534821250275 7.86533153799842 -0.8061110321794311 -1.2349255309559632 -1.4109447960394925
Ni 5.926316489695007 2.033370401529783 3.720992042535659 0.8161946416676782 -0.46348119692078243 -0.2523005534447719
Ni 4.499561826254897 3.7925190250111567 11.173106749246744 -0.027070888074863055 0.8600880006165187 0.18201482054533166
Ni 8.82965066987614 4.0292611121478465 1.0381920653769492 -0.2456809912457253 -0.6300367454882504 -0.4514787731432676
Ni 6.320029074916778 5.7042979058275876 11.21120739997579 1.2990228756565045 -0.6299850663147085 -2.786157428784698
Ni 6.886333323225846 0.11692830682436048 7.157305010546305 -0.5317810097384454 1.1327786876818686 2.0990411646746368
Ni 7.004852434708904 5.7432212589077585 1.5901133666205876 0.6566186097418368 1.655144574754001 -1.939566691323666
P 5.525487390322345 6.857487842590826 5.5875491313498165 -0.48519133490436434 1.0066892175492468 -0.14806443174181597
Ni 6.87110083649975 7.51334541656723 12.557316873667483 -0.20984264139087733 -0.009713884853654238 -0.3556085069065037
P 3.3409118851366175 6.093170521087178 12.300986326838736 -1.1852407621363263 -0.08003715585924925 0.08791578727637762
Ni 3.388321380578774 1.717504522468353 9.361716989181236 -2.1315615058998447 0.8538214508815166 0.1743804439285255
P 2.471716208792842 4.867371780646569 2.51841405281991 -0.1712753226406405 -0.1997351206432302 0.36730574073877387
P 1.2537373050980114 6.8096619061385395 9.003721161261632 -0.8692251870310965 -0.24477827692579782 0.2418438768878222
P 7.163618256259879 5.8493489367782745 8.741675192924964 0.7943610907323545 0.24501507552695218 -0.04627522891745579
Ni 4.700943444509198 9.168596635143452 9.227666478869255 0.34207036321075285 -0.1676582947133435 -0.5826538853289126
Ni 8.979402857118961 8.473436284055426 8.253801593614885 -0.22195330861148227 -0.7338458069561168 -0.042480280651397806
Ni 1.8796203805897091 0.48434588124204253 7.260527781015047 0.2196403442075895 0.01946170826903745 0.08941345486782665
Ni 4.685044652166893 4.250382034282318 7.262356419761753 1.1099580902429271 -0.14822898234413825 0.8862788000792737
Ni 5.27223573069516 5.729506468307469 13.057326489437223 -1.7440877748536285 1.5316218369072914 2.5941181341238293
Ni 6.560750487261378 7.902106980890786 9.253549675785548 2.1129228077527356 0.6997010427536078 2.0948361254543535
Ni 8.254249499056892 2.9528443891632783 9.683601828975746 0.4389513301002182 2.448194917094732 0.11403588140219714
Ni 3.3223756330634884 2.459491351584353 7.018297926789308 -1.9428098808513121 -0.16136551972609628 -0.4896005197156535
Ni 9.221697491057387 7.581271572441802 1.5602749055325245 -0.39644893796163333 -0.44998033422087025 0.013920723846150219
Ni 4.096456182693523 2.0753198926168994 2.3275045378336845 1.0872351947241146 1.4886116518943524 -0.33509033234849384
Ni 8.978144279843903 5.18258060833646 3.0282303916659834 1.5459706494297953 0.6327687997074328 0.31494085398381244
Ni 4.655736459298396 9.062172821443509 2.2752902385590916 1.6445423737581224 -0.6014532774236029 -1.4699354156410878
Ni 1.0948511783663317 3.2397722451429933 5.930360594615605 -0.8333773240945518 -0.33014224431459915 1.461122188224832
Ni 0.35747666479364043 -0.22807918870151447 3.5851674935205233 -1.8658662763157219 -0.42539827400613184 -2.2906112330085713
Ni 2.4351711965927487 4.847919358351152 7.326029324786194 -0.5642607275337056 -0.1913291559677221 0.13096556727800027
Ni 6.034248745276088 4.164206507919373 9.268895989721079 -0.26702140459471435 -0.5979537489107767 0.47469943423410504
Ni 9.158370694783587 4.7364519813063 8.009404395287536 -0.9888542462503549 0.4066356486866481 0.8548887158037665
Ni 2.3657088361030296 8.19281056869568 0.8604022930587589 -2.37554968282418 0.2557838840076821 0.3807032450916024
Ni 7.39760257848504 9.104964448795554 0.5038723374948146 0.025201181855975953 -0.6477513891591942 2.163760202119577
Ni 1.8242614889763997 5.1671815452063115 4.708171009596125 -0.7396241042007907 0.9578940504234149 0.44063848799465405
Ni 1.9098354894358232 2.8083115959140867 2.395078106986346 -0.7881099676163201 0.5910819614916079 -1.2352101520759178
Ni 2.850992172330099 3.132830193741556 4.503025690034714 1.168440402749536 -1.4540413701186508 0.1540479030187605
Ni 4.0124368953385865 8.174653740654005 4.225349302451158 -0.6911474967566419 0.04791739250656909 1.7127259727128954
Ni 1.0004116115134698 2.292174607958704 10.961324285408324 -0.08275069813567039 0.8451730311778992 -0.10887927690192217
Ni 5.306541215685218 1.927705435892744 5.926635761136107 0.44505821432890447 0.4512838835236421 -0.45627028099464
P 3.5327153601579226 0.9605998509450216 5.022580270546565 -0.40762963716880124 0.3213660407838659 0.2521596569915335
Ni 6.858561334972496 4.079622711639593 2.9407870337833084 0.8072132641046744 -0.9129128577270343 0.2721376427753571
P 5.721103614147509 7.491690484040459 1.196064852317312 0.18185464081838357 -0.43173527196775324 -1.2396085382539297
Ni 6.964846335002395 2.9698629451106 7.46376302447666 2.077631588650609 0.6692005601719055 -1.2348327141318411
P 0.15117826634640288 7.877907131079886 13.022475929436128 -0.3697668006847567 0.2428450644588269 -0.0046706660027919554
P 7.022944483037895 0.25678215396862253 3.0895730778826302 1.082698740306342 0.4626859547129967 -1.4222455657642925
P 5.523627287143763 3.426606190776745 1.1460993344974226 -1.3247017684798477 -0.7999786940294481 2.172523035913871
Ni 8.545869257084073 8.732564389047782 5.693548175219426 1.5328420824676376 0.2166684060634591 0.0696684110304155
Ni 7.535796214135583 2.00564468449978 1.6505084181830716 -1.7505834098803013 -0.355031294246795 -1.1301250521091053
Ni 9.000317450072169 2.3759717934415723 3.225533664294408 0.880157260562568 0.3173422643364535 1.0668604877225045
Ni 1.5701491845949453 7.413297777444614 11.350323683819887 -1.5424947750660531 -3.082174963501447 0.7633772407563304
Ni 3.954570103419826 5.369294248789507 9.301930866918008 -0.7094174987104234 -0.6836786991834225 -0.2398381593117031
Ni 1.8332936317738906 8.304240928761857 5.38251208645104 -0.32882455394444016 -1.5339420004000357 -0.6152662720472952
Ni 3.204643132377343 6.841542779025175 6.15096050277518 0.8335817267958741 -0.9041669932136042 1.1530731762648465
Ni 4.5910585433028395 4.159051893638429 3.3372481296719383 -0.5061121442174316 0.394148829073547 -2.055374834134938
Ni 3.1228541179877696 7.765884499354859 8.319086588060765 -1.898620073707975 -0.33916321686628687 1.0229581299125996
Ni 5.517149315875071 0.14822523687234623 11.386663251788317 0.7657421414440813 -0.18363615819883858 -0.18406836064025073
Ni 7.391790912832556 6.309266388366079 4.355268717942647 -0.5926264231605922 0.28826385891325834 -0.3207651739750734
Ni 8.678214210103455 5.735780846193432 12.77738743903196 -0.8286660346618115 0.17686772912675347 0.08157056178464016
Ni 1.2543758479802112 1.0726687538933959 5.106609737570639 -0.1378044445767046 3.711757395061098 0.09937750805907401
Ni 6.55607709370325 3.9474443350242647 13.02422313082974 -0.3476208607153368 -0.23071177153040265 -0.24413730090768918
Ni 1.1334043616597198 0.6924673658891835 9.348550975289852 -0.5792397174410412 -1.1048163981409875 1.4213081415516877
Ni 5.398380339785935 6.656800292686744 3.2612365402295715 -0.4481931604134604 -0.5234850882782404 -0.7703441589924669
Ni 8.685997029870554 4.789201175922794 5.60292228259489 0.13919052629095383 0.014177834162278809 0.13070948540313618
Ni 6.31324571357399 8.991544426125424 4.9976308269174305 -0.8170274219816188 -0.7196222071575671 -0.9545343899225626
Ni 1.8382168899380966 6.922785792979244 3.0058684348464575 -0.10628889046692662 0.7807797525034941 0.11338436386112731
Ni 1.2541537461081418 0.6414366845078274 12.569790670057584 0.22315247112590597 -2.3469865264745065 0.3345249467633271
Ni 7.593811073969056 1.0025771047661467 9.421529023329537 -1.0800811001778365 -2.459626041749809 -0.696919880464045
Ni 8.555688010678477 8.949428358634256 11.26277205127458 0.10576052876728238 -0.3708492351156581 -0.6732132808757245
Ni 7.405672279836897 6.932687834775674 6.698836773673754 0.13830118170746505 -0.4523763452568726 1.2745063785723791
Ni 6.408342331798391 2.464377592769881 11.111953775045823 -0.0614604212983264 -0.28061971210443926 -0.5536844946797561
Ni 4.348051332524857 7.202291744733971 10.567328520299666 0.5124635403567561 0.21675376668841378 0.9239860848220602
P 8.350734253981726 3.4994000793475055 12.286615410291375 3.629381306656027 0.4538979241077215 -1.7417380436745293
Ni 7.952903529882002 2.0125853680019503 5.316292413293534 0.7431547430618686 -1.2503475219379885 0.4989652487600052
P 8.874848400842271 1.4900444427352317 7.302786363874127 -0.12480211877976569 -0.6317403584429184 0.25242499483777814
Ni 0.6360942090600903 6.537587112853469 6.818921703354902 0.8255210612749267 1.2879969568596463 -0.7119274096164706
P 6.8660480189101705 3.7869109527414033 5.08583303286301 -1.4353767038296117 0.24383108252118008 0.5785306071891585
P 3.2279545746999654 2.140432758111925 11.4097433379942 -1.1155679802305367 -0.4132688377324496 1.6602664693615987
P 0.17071120057044367 7.029024521785796 4.536981364576264 0.4877362128134052 -1.0813602240005764 0.03658268422004022
Ni 2.561926585831715 0.5039695070638449 3.020591012691261 -0.8002939112770218 -0.3397915944789051 0.18083725529746278
