# total energy = -340871.95715356735 ev
CRYSTAL
PRIMVEC
9.21828838341751 0.00000000000000 0.00000000000000

0.00000000000000 9.21828838341751 0.00000000000000

0.00000000000000 0.00000000000000 13.49189684799889

PRIMCOORD
 96 1
Ni 4.265919546113222 2.9940078038885956 1.2865881787669193 0.8698684770420504 0.9377985652251204 0.5632106890026364
Ni 1.545833174203905 0.26804200780574977 2.183393949280802 -3.2496198566524037 0.6550345530841687 2.745553282110091
Ni 6.705484191737452 3.699455740118721 0.5543445225813044 -0.6657300851248019 0.19226478040811404 1.0222675316034782
Ni 7.870334735543525 7.618666251126017 12.627767874127754 -0.404374106345981 -0.2988056389848467 0.019672795838579026
Ni 7.5667488523406465 5.1936849373339 12.167275664894056 -0.44989034561022523 0.944516086454612 -0.0991579358491002
Ni 2.3663806561077063 7.241573738321833 9.40999073486709 0.8943476931303371 -1.5917877077639102 0.909749115287072
Ni 3.2850844700900987 6.131194059114971 0.3209300923319052 -0.2894216266667854 -0.9154117128894879 0.1187757100800277
Ni 0.7115753323545284 5.0441366488937245 2.2932713347250893 -0.2983888631624022 -0.5665940036525726 -1.3729600892656033
Ni 8.65484792912133 8.8768427440271 6.103072749325437 -0.21263254543118867 0.3007835886468239 2.3991845486343
Ni 3.7748429004998934 4.325488124051978 6.021905722282612 -1.8396759910735994 0.09674444131160113 -0.9019342472283434
Ni 3.744302711903314 0.1972409457725395 3.326562157560762 -1.8883945393252253 1.0488997894790257 -0.4219691937199249
Ni 1.078226290186377 6.7561755582006535 7.188023780707469 -0.6754971918138947 -0.6422721112121778 0.3423806953623201
Ni 5.5243264962177205 6.146127685896274 6.900821561009781 -0.2981636345254736 -0.6782762972209287 -0.5382622465874148
Ni 4.366905892649752 1.4737738158400477 12.894515634279122 0.917847318914174 -1.172556996021071 0.07217780771583053
Ni 1.6504238714018484 2.1021845181125487 11.096761394562765 -0.7628208540322281 -2.2509918188447364 -1.8014146335995553
Ni 3.1007555805105045 1.4567015462110517 6.211723180618742 0.865592989595148 0.12748455070793527 -0.03313689176328487
Ni 2.765209892338009 3.247049813238458 12.478318221370639 1.7120538863465353 2.7480899324890156 0.9919033174893239
Ni 7.332954628620019 4.895381133233297 2.8491239692455426 0.7577704360925143 2.5308821089823184 -2.987691036089248
Ni 2.4340060178778553 5.617514170990681 11.420957526381471 -0.614752051415038 0.4893853183810539 0.3886237854902597
Ni -0.09533922322404448 2.2156985182267275 0.8720933836772665 0.01666897601524871 0.5005608753818992 0.5109738431851072
Ni 5.397565816051237 1.6545075730463652 4.482803742076058 -1.173946934390062 1.0853354065982406 1.795349401242082
Ni 3.3820055515583847 7.322252196093418 6.7823490437069225 -0.3045677382796045 0.0996076217920091 0.35093604113149884
Ni 8.493785998798531 2.9819226281415037 2.9802928347989512 -0.1851112000824683 -1.6312857658585327 1.6084854801345654
Ni 7.519366851318486 0.5848459943677097 4.375746230972759 1.6624840458382075 1.0754063204099866 -1.1025394291813526
P 8.441426122182603 0.5259678662103869 2.1272130922322505 -0.46717432950165344 0.42921353398716405 0.46971715052816526
P 0.6576483467553772 4.107438736468675 11.067807673354496 -1.2880154688024077 -0.139300826616573 -0.40043183386878134
P 3.2377301239323484 2.3051251314399526 4.092078302946646 0.27410427958342476 0.6252969168104199 1.0459502199323987
P 3.925156306855407 7.474621280703396 4.24985299171993 -1.0428767232133975 -1.0505164991468423 2.265102032993873
P 4.792624875374538 0.43532351713431644 1.356866563862784 -0.07856777040257437 0.05819692005570622 -0.2871626554292796
P 1.9314065120937671 4.321588788170192 7.105547756749247 -0.7784241077871239 0.6580376015765506 -1.169525922504231
P 8.648275289679928 0.9186125529298402 8.302184801707968 -0.47630277416548295 -0.35532311445560094 0.21164138516251293
P 0.24210727596221956 5.903871073666242 4.165730581500509 0.8963742366420626 -0.8827389052468152 0.6971867609721865
Ni 6.406922275569023 3.7001286751526936 10.159546336173252 0.3054087461236611 -0.4145281640608474 0.5874497640556592
Ni 1.1763180942480125 3.7611537426170316 4.841580438181618 -0.00026328096371567563 0.32231117830595457 0.3062664661382661
Ni 0.38479531437113235 0.33396751724350854 13.112841570506523 -0.394300781270379 0.15041339158996678 -0.48529469325144803
Ni 1.3091444080083832 1.0391130936227535 4.500599647323778 0.24695677263435534 0.6640205586328628 0.7150441008685814
Ni 5.0988379706963505 5.204341278419818 12.277463706648549 0.4073961810017564 0.22533585193046998 0.9362882992281811
Ni 8.972399518851168 4.060766543633034 7.093863576536097 0.210571806247418 -0.5409909583724877 -0.9043749954593522
Ni 0.6091389490941101 8.480290424966539 10.775815631141027 0.6208977593014597 1.8693673474904453 -0.09207840329449948
Ni 5.82065758665709 8.642744316797964 3.529898235449226 1.06739939094511 -1.3330892212125944 -0.05930635106980108
Ni 3.3902006097118287 5.2425879558986 8.325619533808851 0.4711412845692015 1.2657988234960522 -0.41070416232906687
Ni 7.6600748014356554 4.9282443304403 5.089602167812283 0.13330295716192528 0.23259304771351555 1.2524447707866495
Ni 7.727248467087111 6.843408218837365 7.363552892431858 1.8418439452591955 -1.5863176857882744 0.8964937929390624
Ni 3.0381726223510794 4.615827327202552 3.3539238804078386 0.5255555976540239 -0.6952406929894092 -0.9907980002402871
Ni 7.909659952734291 7.266601390612721 3.6447147796771078 -1.477535853696165 0.2775858103741219 0.915117835798153
Ni 8.578483630197677 2.263919383469319 10.0631875702813 0.27030058956661834 0.15982131516742798 0.11186921276818151
Ni 2.336163107595908 6.05297688427586 5.102351982134024 -0.6053348718661962 0.35587564452496134 -0.6103148415792908
Ni 6.833904163768524 7.129129059631501 1.6271366319111515 1.413024818496973 -0.6951455621724415 0.002262827892247716
Ni 8.116638176265528 3.0230269749426344 12.412922763500735 1.1176847694632235 -2.057947222847804 -1.7465362363941213
Ni 8.299529012895812 5.13638405827675 9.266301590366542 1.4174903104674943 -0.26426569622644813 1.032426988634983
Ni 1.9327247272973016 7.188402652349883 2.439699232631024 1.5044257361084734 -1.3166490733787002 1.559388208387282
Ni 1.2228151396090583 7.356627192554825 12.747346586007005 1.5396436787705035 -0.4287859595314422 1.9905498672397521
Ni 2.401382496162403 1.6582686346061009 0.6651050200290787 -0.4732207928060495 -0.3506293085243574 -1.4899206005137628
Ni 1.7120020361543833 2.549253056161716 2.6251186456971785 -0.512889315040265 0.7472913909380613 1.0740348939837567
Ni 0.6911098108624472 8.035185382290468 4.433180775207888 1.5252460152879344 -0.9844807997730077 -1.0695814861980935
Ni 1.4920536812149396 3.8420442210157586 9.182342343847138 0.48109479623748763 -0.6392950308617248 -0.0009340817784951655
P 1.664408014505081 8.649768652358059 6.248110529380371 0.8659611715678441 1.0389707032907718 0.39686108579838747
P 6.733157492723546 7.597123111750766 5.59128445392678 -0.07986154951333342 0.3148431520636836 -1.4685171951373224
P 2.4529956914392654 0.0864979630722247 12.445181241005976 -0.2757292167813574 0.7136243377029194 -3.1096294601679735
P 5.456101945718692 5.3653663355900685 1.2226556632242949 -1.0065233813953438 -0.05006837741130087 -0.5684696234087306
P 8.045740322206884 0.46064799830320324 11.501261721654709 0.44339316792165573 1.6152791060176308 0.8443407650845911
P -0.0012398597543736446 7.183369467027296 9.068470674153259 0.6700883620934975 -0.2785052368645978 0.2136422176426256
P 6.041804319054292 3.5742529506473244 3.656694866939442 -0.775860975045638 -1.376027158226701 1.1828393517836853
P 4.555272392433181 7.231940627219079 8.643583181018396 -0.7275676872568889 0.21500258832526198 0.05896310879776941
Ni 7.529230419624656 8.42388371985864 9.847451973020286 -0.024405682537874097 -0.5447902775139198 -1.3393112908629061
Ni 9.369468062047378 6.302921548811823 11.161333659302072 -0.3399430324551048 -1.4938227637816466 -1.6913773318337906
Ni 5.914785526819984 -0.09120389916596257 11.505848741831484 -0.24409899147058606 1.0369536728607431 0.4393735052393013
Ni 6.003170473473773 5.909217680785474 9.500885821380475 -0.49943756041073334 -0.18388889763959299 -0.9912782823108154
Ni 4.575746210384585 0.02424501962809013 9.388079785795188 -1.0765936558498683 -0.27066722887741773 -0.29087172884975065
Ni 6.212536233632391 1.655807351673627 2.3574794770829985 1.554981080458522 0.6624848387146268 -0.5627466048820244
Ni 5.220583902116519 5.526225463573862 4.190111109964207 0.13821196442776842 0.12117480643982355 0.884118302092845
Ni 1.6932520380845244 -0.08384586157532285 8.623844982460293 -0.7875332691772438 1.5990168785224979 -1.6768256592718604
Ni 1.2326879262033645 2.095141745976181 7.438028364116319 -0.7295600350965694 -0.12647076473144025 -0.042256080455733674
Ni 5.762324259328641 3.564223453154696 6.251146111663756 1.6417887222723853 -0.39765761355775386 -0.17655122632759915
Ni 9.225109669828113 7.772906648227726 1.4561263250313274 -1.2320541229454394 -0.058095104370519304 -0.6725735904091966
Ni 0.7553013603017101 4.644864934832864 13.046677307406025 0.08877942082825356 0.5942359337395573 2.2383329924301454
Ni 4.312730013270913 2.2188050813287643 10.627984709780703 0.2410553195482558 -0.8188511054539188 0.6479123402170907
Ni 6.386070507804018 8.676667617140678 7.4646480147684 -0.6094290965402279 0.8135304645719537 1.1037946417446927
Ni 4.543933898025154 6.9903753865992915 2.3631192257649745 -1.124854033518153 -1.0642893845612185 -0.6263083887940697
Ni 4.558544884721676 3.198921130877233 8.557761840295397 0.09353956122105825 -0.45733034682803814 -1.4471364154687012
Ni 3.969016921809384 4.490615319443019 10.42280036512085 0.6395014904455761 -0.3215899838692139 -0.31736334738237604
Ni 3.88137865649466 7.67948851625135 11.488336759858374 -0.282586606022823 -0.07725805045221533 0.4355605592511143
Ni 6.442587832369556 1.41263812891807 9.188885484766502 0.6866835474480174 0.158247800032721 0.2930962473048952
Ni 7.0459432274867595 0.3050737149081275 0.35255803892860393 0.07407013964253695 0.8092907154589933 0.4945781754359031
Ni 5.189426088214788 7.785148534873139 13.878708932670412 -0.8209774077683021 0.7973877933738203 -3.7863839214277375
Ni 4.69342687673651 8.925865600337575 5.825976538911911 0.7476996821200735 0.19833824029570354 -1.0469310957884292
Ni 2.7949388715785664 8.560332820856697 0.7946238120060347 2.873297514237316 -2.004199596812703 -0.24011789533565095
Ni 7.244643428271323 1.7513733447858317 6.745827107938498 1.4541899798813729 -0.1205222604574892 -0.32255980398165096
P 6.994081138430208 4.57594901272359 7.750959747832091 -1.5217143479855921 0.12197441952298348 -0.5566723736634865
P 5.985314649353164 2.768427074897685 12.097657309228774 -0.6026025605366977 0.4505385207171853 0.07000882508896974
P 2.2806966678779435 3.8635965786791457 1.065935546613839 -0.03759647019653525 1.5555690917515081 -0.48006944029676674
P 6.161116622406397 7.047113950080108 11.229643018051956 -0.33722871884773536 -0.5058542625703546 1.6224000333331285
P 8.911024156437637 2.246330889704673 5.318653582286627 -0.9891334680536705 0.255331884071928 0.016021829349553054
P 8.35829559976668 5.774759730024923 0.6864315296331192 0.07096758945781326 0.0011950487493656839 0.09831461401219842
P 2.773174493288037 1.7872048307728232 9.07443398474883 -0.2347905695854666 0.1155425478547107 0.6483388862315479
P 5.212093858742704 1.454489157058266 7.395218634009917 -0.9827293642995398 -0.4293706283903186 -1.2069956373149147
