# total energy = -381168.6412997735 ev
CRYSTAL
PRIMVEC
9.20695097552523 0.00000000000000 0.00000000000000
0.00000000000000 9.20695097552523 0.00000000000000
0.00000000000000 0.00000000000000 13.47530340554740
PRIMCOORD
 96 1
Ni 7.71741367637735 0.6889635121904835 5.766109044603681 0.052957268923321706 -0.4558565904959891 0.3313637754265261
Ni 0.3400955646178347 5.171065640014014 10.251552374961113 1.5428529297364204 -0.5355443334356197 -0.3995825984946086
Ni 7.903357259663897 2.4386082952453343 3.078136925194757 -0.9715049563386301 0.04344701544004131 -0.4355212213727467
Ni 5.879890386996818 3.826813959771929 4.647645869681676 -2.852638700336384 -0.5477565592310953 -1.5161769631071307
Ni 7.642828165969135 5.947276061688552 0.9596800972155383 2.126283288220041 0.8647841205406074 0.5326690687703536
Ni 6.490440138534951 4.707725828719919 2.601636698078234 -0.5615687825238393 -0.4728963195870953 -0.09526528566291334
Ni 6.606862034487536 0.8292756047122863 9.707204284210443 0.3217511920374265 0.868016511434976 0.6793327635099009
Ni 1.682054714049939 2.4713666270602253 8.88956350353258 -0.5599204482871388 0.108385110874323 -1.3505313279484419
Ni 8.224468091228808 6.975222938810743 3.6294114052159 1.1355649921777542 0.43945449498888184 -1.1499803962721356
Ni 1.9446645786806678 7.7820740935600305 11.528472701522624 0.3628474478571041 1.1447438304635447 -1.4774417513204618
Ni 7.4252863266992515 2.812318438125161 5.708421972141798 1.3439552173928209 1.980757563739679 -0.9964009482493615
Ni 7.677667268719991 2.382289375708604 11.617166943710812 0.6214574884596716 0.012861686454016558 1.4214953178618293
Ni 3.90226492357829 6.581570539969407 10.818431716306891 0.23770337235688738 0.7608336483988702 -0.779366159985419
Ni 1.3902311937562957 2.9038631523566 2.7956805568933762 0.9971306273265343 -0.7215945003925894 1.161468085196761
Ni 1.6811616397986617 2.7675266212956373 6.356111643496707 2.418894368358402 0.6528863963929143 -1.4208381438938047
Ni 4.457646624460204 8.726790133243602 3.643762279808332 -0.24706912984250354 -0.6347182101243197 0.38191577734246485
Ni 5.291050626020662 9.141784244605152 11.78452997909527 -0.11804397412032575 -1.8479539148116753 -0.0138387056553052
Ni 3.0759686882238726 4.692156874504354 5.255597419635165 -0.2483233139645788 -0.8785991720468288 -0.14498399304427934
Ni 2.62279335088246 0.8284083099239324 2.84394891843715 0.05683449249054083 0.5567564487368606 -1.0375064600404196
Ni 6.151283682923614 7.096248310285375 2.4529499628867213 -1.322077443483123 -0.6636662606172378 0.8916930291163094
Ni 3.4722266542106883 7.1090735930898 1.79748410067997 0.12107736163001083 -2.0357172078050105 2.1334859766160674
Ni 8.59297630676872 8.275410151355787 1.2100852275422147 -1.3854965311697172 -0.3202332127310033 0.6328644447450327
Ni 6.690995153128478 0.059124277519866514 2.3460775165570724 -0.6571294879399845 0.07242231962646882 -0.9247301620769366
Ni 1.7821803066544748 0.5559543732368568 7.368848637494053 -0.09877458436775247 0.023290337986508276 -0.6463413961855449
P -0.04751707433857562 3.2863659334835376 4.4764960153327795 1.9848515313033945 1.268477655879796 1.133243800243745
Ni 8.97995366610309 4.113343483215218 1.7207018117526331 -0.4596777640142922 0.43656046127053855 -0.888403045511128
P 3.408054205433345 2.08115762790938 1.1250203654556097 -0.5292520726690046 0.3168306148073576 0.008556631320759457
Ni 2.099967428892467 0.39120242916850306 9.888676051374873 0.24510660679949403 -1.3296442000867874 -0.0009286824618564652
P 0.152344656841331 0.6434903809836969 8.778055357352228 -0.2539517158949497 0.2899690145298232 -0.9144899724061671
P 6.234404036949707 3.105366482907669 10.404793788834137 0.6922445864755628 -0.6031797731964064 -0.331591575166616
P 0.910342808655545 8.142470985230096 4.962940670272031 -0.090351907521696 0.9643873714572424 -0.9290802115155161
Ni 9.050736705730094 0.6727712473892331 10.858251779572605 -0.10420732534754956 0.23553284706812985 -2.1960141770572763
Ni 6.576801339328565 0.8155259440230344 13.638623938964965 1.437140994818886 0.48947916364644084 -0.7110874302136786
Ni 6.636729383674581 2.3210815651674586 7.7418581313994235 -1.174858647571054 -0.35592552392629023 1.1057785049439408
Ni 1.1043185360329615 1.255441430470741 4.656512163537139 -0.25907258206128286 -0.5305193694172025 0.46823336689378714
Ni 8.186240830493725 7.6939359512149075 5.9343890923121325 -0.22603056400464946 -1.7931040568513312 -1.6252148770741042
Ni 0.20386859627429688 5.464794999173785 5.576457822131676 0.3327804532683946 -0.2808688520007679 -0.2681030676946673
Ni 5.509927473191939 2.426878639615157 1.5411708698682975 0.7149273727850591 -0.07874954739607727 -0.694872511016713
Ni 7.682353606801436 5.656456099058715 11.31094098989889 -1.5624840737037864 0.8429346287656838 1.2422472614283573
Ni 1.4009388778205785 3.038689743446331 11.121140614819971 -1.1417042723062725 0.12957768579153814 0.7893099014616922
Ni 0.9963946558940769 7.5885439826131496 6.985731752732474 1.039373080935513 -0.38685383807403056 -0.14433993170237722
Ni 0.21137778554586095 0.2137964515851448 12.900163857961426 0.0816860043165819 1.3018284634261 0.7165227422966369
Ni 1.8455333367888942 7.075293289709014 9.012862071219999 0.7466329314184561 -0.35243550849516075 1.2833841406779831
Ni 6.787143342881966 5.077366499238256 9.186680099981473 -0.578039783595669 0.5702485696860243 1.1967577616369907
Ni 2.6170297995288565 4.464717562862069 9.523482338210835 -0.10129040881107071 1.3394606719565771 0.35505520550619496
Ni 4.915701645854988 6.198220719346413 4.8728046195503385 0.7031589193952212 1.4503541510750508 2.54368568850489
Ni 5.326285627666415 4.862172432484617 11.266310294712637 0.3042962297857727 -0.4418098825949359 1.3439505894071306
Ni 9.403243240355367 7.148239962831381 12.736978016265672 -3.5010848015697578 -1.1778861215434684 -0.4167706802381209
Ni 4.3324781250157285 -0.0886601764693241 1.3965803071963039 2.2381697273794035 3.311072564641246 -0.21216383332488623
Ni 2.2969225256277523 4.522224179083488 1.2759885831158486 0.14903682295741427 0.07417118399677548 0.44156408513271694
Ni 3.0641469630832545 6.302793269305246 7.073982219880335 1.517001515890955 0.4963504368449774 -0.12901615686111328
Ni 3.4354172639363956 2.2034627655791414 10.431892607842224 1.2737479031398 0.8364986433323529 -0.7715358653077229
Ni 5.883923031554133 8.281606429408464 5.407679678371739 0.9672063289632763 0.408439020443974 0.04988145821147539
Ni 1.2033485014632503 5.1873619433620615 3.4242096424304185 -0.024185596107268025 -0.10229725280903026 -0.3089820652972162
Ni 8.057509240995184 4.575716564649682 7.47714908193064 0.43659722804574486 -0.987370462615977 -2.25978859120076
Ni 5.894050677702637 1.5241186758395289 3.8087407148723704 -1.137854816653195 0.3509162436371569 1.4022351840806366
P 4.650366523715206 7.160807451006572 8.4431396233918 -1.2371407934397274 -0.5686246609293563 1.0382320253525346
Ni 3.153813459301698 3.4285396715064564 12.808949673272469 0.6867575952190624 1.0899641636195034 -0.8439016206646434
P 8.112649670798271 2.532031227489769 0.3006990211001511 0.19307133546980942 0.0836158743494431 0.6602405227651403
Ni 4.111143021915678 3.3404015291613325 3.1359050188258286 -1.303450572410555 -0.42675041715865214 -0.33146841932519044
P 4.189567830909282 5.438223738460525 3.2339516818846077 -1.0506152295082358 -0.3665459797546139 -2.7954342261009337
P 2.2165182221596686 5.298425393806983 11.491011459114409 -0.4643453446932906 0.023863436881158905 0.8344499883334403
P 5.556560680230281 1.286063749643402 5.988465198574521 -0.8132257888473414 0.013179731915067626 0.05045764242991955
Ni 3.5262714568395275 8.68615985828601 5.93054887303164 -0.40782478389874277 -0.6158946496599135 0.2671412180020303
Ni 6.262927171284314 6.65149733314931 7.212427142730396 0.4246580534059977 0.9292409054630965 -0.12503094696112016
Ni 8.511080477231493 3.2028220597094172 9.323144607661948 -0.9061138325273297 -0.26625624429391564 2.831583679438298
Ni 3.4484543066148348 1.651137772443867 4.875782147518 1.0538519912779785 0.4791412720555426 0.8052201449340455
Ni 7.16183862952351 5.563134443275765 4.952322293632876 0.24636876134136929 0.3133462558031829 1.2412285903558558
Ni 6.406969920369184 7.549911616032125 0.12451480592034425 -1.462045985590682 1.0243300705594618 -1.4112206754086987
Ni 3.0073308681901425 0.8854941684826364 12.31385324643708 -0.5764708964466524 -0.4755952065754971 0.19550591305323103
Ni 6.475257876263238 7.621026105896717 10.033171782451111 -0.7498712358500956 -0.7666571970591828 -0.25901601779173455
Ni 1.2523755157730574 8.15885015113754 2.659162648896845 0.03967443577148651 0.8747875116102225 1.1678418499335887
Ni 2.1217326611607077 8.761104439784944 0.5281374120473319 -0.5926400500073471 0.822058556647623 0.4151038340586593
Ni 4.967094846583127 2.154371302612026 12.154332691951982 2.3380933377499344 1.3032019467348588 0.3905320582565661
Ni 1.3226429661415924 2.303892187568133 -0.021486261651605103 -0.6802722446050349 0.11339027739839826 0.7287473093872868
Ni 1.328111895061785 4.770259440211414 7.510810615642957 -0.5735555225720702 0.49496692623388955 0.7789619825684649
Ni 0.1868007504287531 1.205456893252348 1.6578128119508362 -0.47309378030988203 -0.3270353232545013 0.49639517403998373
Ni 9.023861615632379 2.530779082147772 7.362501365444253 -0.32249012708598007 -2.4197849984934714 -0.9685785267204544
Ni 8.838010101856272 7.348887046935349 9.982962595627244 0.8383441811815239 2.872827516579433 3.92533147846995
Ni 4.789032413390324 3.837797852367535 9.20884767601034 -0.5329122951294112 -0.24140601801945522 -1.9844550671959245
Ni 7.720286245103108 8.677183081018017 7.811404677501206 0.31775981148984633 1.6649692741539066 2.0531235762069158
Ni 2.5699546588403974 6.973344720797748 4.166240179048858 1.0482202469134978 -0.027030264644914734 1.208887712131305
Ni 5.862885148418376 4.512934365479996 6.799772517629151 -1.9408825819216122 -0.9187353779460822 0.7729579424662302
Ni 9.071406310824086 4.381265758598389 12.710445424746796 0.5438060592237796 -0.10588188483649506 0.10252890920386212
Ni 3.9006168793413964 1.855163807581018 7.614570191824598 0.16789766441765924 0.04168940931898626 -0.2084521888012539
Ni 2.1427705442964657 6.534826849518535 13.440699350284735 1.212960339538782 -2.6458908958207465 0.2988416344291047
Ni 4.429970529621653 5.409019289748655 0.04309129297167903 -0.03461501897070813 1.1707839632810482 -0.03238484408860874
Ni 6.537156208132691 4.359454491574928 0.09322774488229976 -0.33242075593613074 -2.1628536311449076 -1.3283529920791899
P 4.394146283109079 9.516396668687298 9.823429151410684 -0.18498238781408788 0.008794458363178402 -0.5042113276502929
Ni 8.52455945356005 6.562125459364277 8.170750135362034 0.1057569292228566 -1.2639458294477137 -2.51488059134774
P 4.066498516302861 7.841652273766371 13.294356704829049 0.25362904244820833 -1.4583603092089785 -2.308038427346083
Ni 8.46786304903051 9.373965136035146 3.6512143859834225 0.6172167109054466 -0.7684723958910507 0.22637226361478432
P 7.607215679330574 8.502444357152132 11.87637760201606 -0.7146003284629434 -0.5815218286069985 -0.23924706269492343
P 0.35099475326383467 6.487070394452813 1.8552126044215516 0.34530738209081174 -2.461806851451212 -0.9261776931567404
P 3.4913402845782304 3.999830983792567 7.467622649685315 -0.6448838378034119 0.42214891383089875 -1.220288240658763
Ni 5.363315984765766 -0.10273668392064134 7.758716058761161 -0.47159457005653616 0.01620103523989468 0.4556475598089766
