# total energy = -381163.5116256094 ev
CRYSTAL
PRIMVEC
9.29050808664766 0.00000000000000 0.00000000000000
0.00000000000000 9.29050808664766 0.00000000000000
0.00000000000000 0.00000000000000 13.59759768375559
PRIMCOORD
 96 1
Ni 1.980374002495854 6.912379598430202 2.499361296441856 -0.3925647724158787 3.18908837492625 -2.3058982410746287
Ni 2.391599763645755 2.165450214859842 3.4851325191778306 0.8551442834579983 3.0006159716810323 -0.9675408294845596
Ni 7.6092791939247775 1.6592011366044308 11.219786191202642 -0.08335079361351451 1.3545815867584154 -0.1424789672342385
Ni 9.239094453328901 5.854153560926682 6.275576583794907 -0.5005379925637637 -1.1275565200509807 0.6209880050224209
Ni 3.537862656144563 6.605244690316099 9.899159971259124 -0.6740167506136263 -0.3844573128173959 -0.7264091481724135
Ni 6.056500827895592 3.2119051785686135 7.021010722786831 -0.3881751279886153 0.593451490165049 0.3567580471299146
Ni 4.2071694425070145 1.6784417789319153 1.5669872691560098 -0.20852315124850537 0.1668507112103836 0.15124437213169437
Ni 2.3946749218352275 2.7168604531123077 11.56073204553713 -1.490504240931375 -1.5090277536568593 -0.8759871883452784
Ni 8.042662816953504 1.3841184815225926 8.990867870084852 0.39560535901441546 -1.178949529810976 -0.5375976164202225
Ni 6.16568287938405 2.079745277404002 13.477394530462151 0.10647452411517147 0.5714670154741577 0.835137244208452
Ni 2.7458003859225992 7.241235714541244 11.814204978719532 -0.5439703527157858 -0.6203663122780219 2.3490920028532836
Ni 6.993281343185266 4.212808780939067 9.095215141144907 2.956725183835353 -2.1476031327437397 -0.580384886789078
Ni 1.3531346369247361 -0.01236009200989151 1.3189437089220282 -0.8510904251035987 -1.127319207229194 -0.6256954378004191
Ni 7.699369251215756 7.168137996611429 10.580848217800153 -0.5733333792589351 0.277735962798741 0.0698959536601893
Ni 7.18537188918385 6.834813146092121 8.462642094859058 0.16580324378247574 -0.22449587252767786 -1.2597073658863336
Ni 6.451468199826228 0.7331483710470353 2.4541759811236745 -0.7675138886325233 0.38328334711395284 0.6177255322210652
Ni 2.1072637624711232 7.262120776806905 7.583353101950331 -0.6155256963562689 -0.6997498937136722 -1.2772420323359877
Ni 7.768072558802308 5.0832364871978895 11.384371258845478 -0.9532766062560616 -1.690696760826998 0.4364241928029903
Ni 0.9611959706429463 3.8433066917798637 1.6554942238624384 -0.09953460246222857 0.5799799380411753 2.112958031866045
Ni 6.064267692688339 7.279475445984955 3.879775652374893 0.9173485249008846 1.7137320453799065 -1.622159378077232
Ni 8.402549230203029 1.4703715589578246 1.4520060824957428 1.8601059767931771 -0.11180802051294293 -0.23797822328482882
Ni 6.604343511027945 4.840252537688943 13.485104723155333 -1.5844574926510842 -0.39372408283130256 -0.6977248928638435
Ni 7.298994803556199 3.4719465009956005 1.524603042037605 -1.0230622595906316 0.1296969849782218 2.691935753894951
Ni 6.836810605339059 4.27254674818471 5.1699429414296345 0.9996122560978075 1.254117530503382 0.579445148583628
P 5.429419400962604 2.537693003916007 3.839880352383255 -0.45665954601325864 -0.7685616131707473 -0.41234272637375435
Ni 0.492653348664855 7.588635684870373 4.819233692106277 0.5555588288843336 0.5378066471072351 -0.4098227881653781
P 4.657619728961906 4.614437447195539 1.3715893022648207 0.7287581080205643 0.5940641840483833 -0.7367989760471698
Ni 4.945030888326011 5.9341448358854665 5.087759106553283 -1.3817668889239558 -1.3800586479835975 1.7317148551105725
P 8.25609366011589 6.007279715847782 3.9912896214028004 -0.8879248203231289 0.30256690579949186 0.4703056760417835
P 5.995071988171147 5.372672977333306 7.366023032527759 0.8925443213730113 0.4859186999886922 -1.2165264596234855
P 5.991783148294791 3.656502444904571 11.08957507457258 0.21234741009060204 0.28578325858324977 -0.18527472224352606
Ni 3.9671584555981614 4.888795442643604 7.205366920771108 -0.8558209978100487 -1.1394463295100312 -0.23602469910288384
Ni 5.466832277183164 6.971420777566447 11.562105182638048 -0.7009369720432379 0.5359937622682124 -1.2741325401727281
Ni 1.6082241185209412 4.360843737407507 12.787724808390681 -1.3927341865687368 0.6158218874404491 1.742193386044393
Ni 7.420663297965053 2.1007139542427913 4.368867020224511 0.35115509912084036 -1.0848553816380284 0.00359260244726478
Ni 0.4058911513843568 6.207211450704117 12.014211966691681 -0.39250975080822725 1.1316625717995543 -0.8714350501982219
Ni 9.00050491416322 3.7152649087970575 4.170859349600926 0.1667751207774418 0.2481487360599275 -0.0897286721154003
Ni 4.7169582043581615 8.493707695928418 5.972364128211303 1.176348087632387 -0.574018578251418 -0.6168325880931507
Ni 6.164772409587772 8.806528395015201 7.746809372855946 0.6051011585888353 1.7761309193321024 0.3799177730758296
Ni 8.846654099608346 8.389375289681361 6.9691901265655645 -2.494526196061104 -2.3096731347360286 0.7385578677198055
Ni 5.930233531964717 9.743884921808641 11.978096974456223 0.05732428764276579 -3.826278443629829 -0.5748613858676874
Ni 5.055504320443886 1.4058396895195306 5.84982232603867 0.48284726015222007 1.276657877697743 0.13438230626903308
Ni 0.8657592259258609 0.772617236715723 10.238610053785438 -0.2294164497577468 1.7286536996867454 0.3679713993472308
Ni 5.693297703245338 2.0213079812959007 8.999691994702257 0.7361222616951193 -0.8953131423674 0.9412759822507595
Ni 6.853561391488964 6.998028792837291 5.949751031434336 1.0578865663586683 -1.1951893887086062 1.6038922043369281
Ni 4.32889367996462 6.52540206348732 -0.009146505249352219 0.22724129648329897 0.050528347766854914 1.2789289331201072
Ni 4.117636815703553 6.3455285356734965 2.5955227007927144 2.8895080625589076 1.593500833800275 -0.6797708794885842
Ni 3.697185579985235 3.4473638164960714 -0.05427143226471907 0.26897132923223355 -1.7181900811512605 1.0578287165375393
Ni 1.0320360950983152 2.441917155652349 8.133212754396684 1.1190849922448598 0.28179830579357273 -1.0598794284189812
Ni 2.5558373662847074 1.6795659304150758 5.783656256221137 0.5011332029456015 -1.0415299793775161 0.6326628702571879
Ni 2.481485429757977 5.859254049887469 5.720292203654193 -0.5487392348593388 -0.10143516191905112 -0.8163669055794843
Ni 3.7850923678667696 2.5151542312040434 7.84661637259517 -0.7069839495682663 -0.7461757892763795 -2.531512543477466
Ni 0.14316951736322245 5.877760742073055 0.8714933275407925 1.4515435433974615 0.05820797579929975 -1.025038666590712
Ni 8.407426746968808 8.241414657277925 2.932308265588695 -0.3666588511833943 -0.13967800745033362 -0.45376216986080564
Ni 1.6353988547874267 0.02518099322279762 12.304248623651992 -1.433015916906919 0.15220982136875721 2.367496216392084
Ni 1.899927492638931 9.391774663859987 3.5823827710809732 -1.230381363228707 -2.1856017234747007 0.8169099225671479
P 0.13553550683666815 2.256766619223359 12.047892845798309 2.0077461765133813 -1.010320129433615 -0.3076900859586701
Ni 5.279637828966609 5.374075844060226 9.422781734728158 0.6643481171756107 1.7609922639184512 1.3825796146332383
P 2.2118191409131853 8.679657216056182 5.7618328526348215 -0.4902175844743622 0.8151536019976735 1.1718861952062913
Ni 9.039209171013196 5.6086147216832805 9.309282384113875 0.4266444877084072 0.601167627862384 0.1446806028712476
P 8.995162871991175 8.471085308643326 9.250459531918574 -1.5828952903702869 -0.1347792845971356 -0.3418050253645081
P 1.6013677235244739 4.921144991935879 10.566203589842251 0.5279122708116585 0.42494318874658427 -0.4183048574944603
P 0.2993429589494193 1.8278981831435246 3.337503557914467 -0.44561691504585194 -0.8609354362184785 -0.28587478985579157
Ni 7.466093882697741 1.4141825658160447 6.832575062684738 -0.6065024098117361 0.4832532373413871 -0.3622956891186922
Ni 4.547564369709671 7.082386606614963 7.867869338982593 0.877221832083328 -0.698627607183771 -0.20493209146313737
Ni 4.545148837597095 2.024782631334761 11.208690537348602 0.3125204174677779 1.1058247848008438 0.3326583258682335
Ni 1.339589076078057 3.764532473385493 5.907245098659489 0.05918088123553033 -0.3402361382154914 0.32256726018081866
Ni 0.2125686840083582 0.9559839955846562 5.95074418675293 0.6359507969798402 1.5106087249907338 -2.813537106349232
Ni 1.5643264676289257 2.1193135515096304 0.5419933792166679 0.6405679840368774 -0.8382655054247886 -1.8314471754059038
Ni 1.6822415967551607 4.981877043550928 8.208243827067374 0.603999183773908 -0.6472171139222789 -0.13132834993405768
Ni 7.320855369175017 9.09288043645302 5.109446868720969 -0.17336382973855305 0.04263968904739754 -0.35620628839150265
Ni 3.634028705749484 4.016453891710973 9.547335860960729 -1.945664833801604 -0.5478236650236049 1.4885905688484298
Ni 4.318023785458025 0.45707813495147814 3.7522569249995414 0.5890664737234759 0.6285419061102788 0.01744570628027318
Ni 6.033627596891118 7.843650842401576 1.6736599543998265 -0.8570245311998466 0.11252895783936749 -0.6599471598944376
Ni 6.010494231659135 4.7246321640696545 3.1134007080685557 -1.2849455716278322 -0.4377205430169107 -0.2850016432222189
Ni 3.4932310551106496 8.584531703361295 1.863781841726661 1.3709574570132776 -0.14103863524328614 -0.48205767437138924
Ni 8.716373304167345 3.550321227540583 13.495139400981465 0.2460735986984536 0.4691137126162115 -1.2765501484752853
Ni 9.174785556085615 3.2864429252578495 9.861317873563173 0.18465868592608198 0.5874240530240463 1.8261756425943196
Ni 1.023637475753049 5.430209094153254 3.4693042804847667 -2.201429691645892 -0.8628635064791269 2.1749434724299057
Ni 1.2122812432371495 0.21435896492410242 7.831346493440437 1.5249027730159026 0.01333914031106735 0.8880387201931739
Ni 7.55223547403547 5.963084768695758 1.840625250224365 -1.1123821263033875 0.26732890853280417 1.5851786870878248
Ni 8.480115682541111 8.643414943859408 11.943585523923193 0.6304270389481336 1.7923723208916291 1.5488513134117003
Ni 2.9935410755916965 4.591025366719798 2.9336135819802984 -0.4639758771690138 -2.6037885673340573 -0.3903482243805342
Ni 3.6205481784596825 4.86655396619165 11.895382651565916 1.441687476538988 1.6392898671099316 -2.0284800666266225
Ni 3.8959374203096555 9.34169882506465 13.142282186179537 0.055678781619542816 0.1238379550942835 1.1371763025289319
Ni 3.525543442370423 9.071010580326078 7.883424436736773 0.4314390808835731 2.407853537163208 1.2764362486052403
Ni 3.4784498566833064 7.62246242495457 4.439370828285744 -1.4298094941544794 -0.4558468203039762 -1.9635638255692118
Ni 7.025296434185029 7.097530134859193 13.303875710206032 0.8609369788803753 0.6713841980867857 -0.8538913848875036
P 5.250001108046921 8.669688500837742 9.767493961056639 0.04119858572549679 -0.5270303824273375 0.35782119828710635
Ni 1.6922753455304786 7.926141264046064 9.682129056198185 -0.5024069274517025 -0.41752118525090026 1.0289264316808924
P 8.735065806515436 3.7061137582936428 7.308871542744199 0.09766772445681889 0.4443521894008154 0.08745221737639777
Ni 3.3374663958819655 -0.06018298258484382 10.88295974817091 1.5123491047206084 1.0862491766617615 -2.7251718902402615
P 7.245472186246379 -0.0493065847225618 0.459078381350854 -0.4582060645647722 -0.13733444691882155 -1.0518830404770658
P 1.4412922685256535 7.343561371033235 -0.008763736314590095 0.4642368441398843 1.3440387782455627 0.7340736066962067
P 2.8804198486581134 1.9101005990361282 9.594940424594736 -0.5976171915069644 -1.555704845998424 0.160459205861743
Ni 3.9443409676424386 3.7429413325023093 4.832776465800518 0.035128468272016926 -0.6634795985277283 1.0620563814656419
