# total energy = -381167.86719331844 ev
CRYSTAL
PRIMVEC
9.29533873913502 0.00000000000000 0.00000000000000
0.00000000000000 9.29533873913502 0.00000000000000
0.00000000000000 0.00000000000000 13.60466783197164
PRIMCOORD
 96 1
Ni 8.23306717623163 7.551914069598521 5.073370631244466 1.7710049109594466 -1.052944906082677 1.174774829607996
Ni 6.381259144594444 5.253492911221054 1.3677728018115174 1.8388789490936006 0.7195766986316123 1.4694715886307919
Ni 2.277246377377314 0.2577244130669212 0.9504994813701322 0.08251749907894176 -0.20588237119154867 -1.183090805672859
Ni 7.775569208160718 3.243896509312752 7.773992718758775 1.3798226207133915 0.8831708505779112 0.03656365805664671
Ni 4.358454066741797 0.47081446994133336 2.3509816496704286 -1.6273023557307524 -3.2871541061524354 -0.12281465603609172
Ni 8.3556169184204 5.900020882109839 12.905482453692203 0.5521737144621846 -0.07095884770706488 -0.24981969600444714
Ni 2.7036700289936557 6.94125680980701 10.517455162143808 1.1233139427245427 0.8958767281803539 0.6038256343105213
Ni 2.0032848670974572 4.173876531043798 5.430098764660171 -0.31966319916014624 0.2830311497594093 -1.255970524551721
Ni 7.54283252392813 2.8158740594821756 1.226194572271819 -0.33379886723058 -0.15840335177397882 0.1201445654030963
Ni 4.8505492845416684 8.54868109812768 11.231741502699236 -0.3406935374678842 0.5019495281993097 -0.30804309842271466
Ni 6.714524914216257 7.199778762913358 11.855365759635268 0.08125457320611812 -0.3759963265342363 -0.5778060703183081
Ni 5.3803649857913305 7.493595116132778 2.5541266239319946 1.2990521862325433 -0.04259829428650083 0.2219592221487532
Ni 8.53101995506346 1.055578634933008 9.32065245006623 0.9836562469891834 0.23408788709148717 1.341212107430045
Ni 1.6556949809167165 0.10107007408729819 8.909845896587886 -0.10748933853293101 0.6732297359359567 1.8206963646473031
Ni 5.173869042016791 3.373631548127123 8.169480554463524 1.3797316036614817 0.19035265098706572 -0.49267298799339027
Ni 8.13633988427044 5.79973347552044 7.443167905015206 1.0404778839639177 0.5119076678532861 -1.1945556117793492
Ni 1.1346912605222546 6.4593678736305655 6.671157512655144 0.602157502579479 0.4341343683275491 -1.6412480192775671
Ni 3.2676925757571733 6.407434817683307 8.272630925297017 -1.3822428001191098 -1.717476085803371 -1.103819324335041
Ni 7.424465684044044 0.11928986699265387 11.209524714258295 -1.566056107325761 1.0596259176472784 0.3341207693463729
Ni 3.3301665455122347 7.311016078202574 1.69839311810908 -1.8086759431476593 -0.05439862935553857 -0.3533845026719914
Ni 8.601822548074068 0.02697042452675346 3.116911031613326 1.1006609812117172 -0.3225320360675091 -0.42119632010964236
Ni 3.9659026284549364 5.2552125488352015 12.11077935156231 -1.1970758070980414 0.5354535734940262 -1.6004407554532178
Ni 0.8884958557408866 6.937733876532621 8.950728654180017 -0.25412038026233014 -0.15052986256317302 -0.24595789905619575
Ni 1.9376504822677463 5.551975524344811 3.3088458276983403 -1.5292633639774436 -1.600369278785334 -2.408118103678504
P 3.12868078916486 3.384014441181193 3.345945382539346 1.2767172701807692 2.6999285422924406 0.7856712762678405
Ni 7.548902379939149 2.3012655319446518 4.256015718833944 0.25524600922634105 1.731038140758522 -1.7630267778499764
P 9.244372114104177 6.325143186342501 10.821396927542098 -0.11468637050200249 -2.30241413918077 0.996781985737864
Ni 7.135408544113507 0.6169576401962096 7.602151655811614 -1.9693138406791115 0.010836171383555531 0.7303925583001937
P 1.5315371451752566 8.916321029355537 2.827035901898762 -0.9526988793757204 -1.649776111353236 0.8661971988380501
P 5.2459450963957135 6.525364776660016 10.172576726190346 -1.364713790096411 1.041812286504625 1.958442959402879
P 7.90840889001901 4.306232855302437 3.023745713348034 -1.5857435584523594 0.6981424400172364 -0.13351661583462812
Ni 2.5289734380731645 9.207869319991973 12.0454228973524 -1.0651566176575205 -0.7197708169202894 -1.0608533622964762
Ni 4.466558852971727 3.3819601713826706 5.316459533914222 0.34626408957712623 0.20465415521140237 0.6403625528942907
Ni 6.430691754497347 0.798319918322675 2.573608723799519 3.3584284282173904 -0.06634680285635025 -3.3213202105111836
Ni 0.5161311039764285 1.7790627128895142 1.5392318263481835 -2.705176420954941 -1.8799548931983043 -0.3466261009022353
Ni 8.993630359284541 5.2941228356072125 4.794665709751097 1.6417774094184758 -0.22544358115292784 0.2516814318035343
Ni 5.588608453195382 1.3321428399802235 4.363466113236653 -2.715559563961478 0.21753898159387053 3.511639437157152
Ni 0.1770390162111137 8.317989388355159 10.876823171680691 2.0412779897222397 1.800987059143834 -2.844691163354533
Ni 7.39823423892445 7.415374843035198 1.0876410458653296 -0.3362301023798919 1.1992031378536896 -1.0093191989729264
Ni 6.631275863014601 7.684409823933983 6.961399808238675 1.44033121962141 -1.0180671203688854 0.8267986424357696
Ni 0.4758878656699917 3.3740498383575916 3.0423977394915402 0.8734965607129408 1.0348592522255597 0.6044488697168171
Ni 3.797907976560394 5.654307905394278 4.425013337747766 1.761993451489456 -0.20946263234363924 -0.3323896455878792
Ni 1.9845826461262948 3.050311790652001 11.707510388037008 0.7949678710784179 0.4818018496068412 0.5902602369212608
Ni 0.7104798994581679 7.56706547127993 1.1193771904178857 -0.2401261228657671 0.3374590896909866 0.5004006956549512
Ni 0.12997392901266092 1.3780153352549187 7.2217929129759835 1.1491252473606919 1.7139601022303128 0.5622449826552576
Ni 0.18620236085990693 2.715289202062221 5.307439337477634 0.6644154800784364 0.35064499225364126 0.8230170639061504
Ni 1.6596733857753934 2.745526938055855 8.804967522335636 -1.1379388917265691 -1.260367882288468 -0.2622728341661354
Ni 1.045335171955761 0.36878232832395796 4.987062484157318 0.4348334512771027 0.2447314828482624 0.026782153189850652
Ni 3.264420616621065 1.3871340622791288 5.088295226667577 0.15586850116726705 -0.29698324106412727 0.1427767009803154
Ni 5.681199319544165 4.042180175815453 3.3597954368370755 0.3293169201998264 -0.04400674459825324 -0.20301816226987615
Ni 0.2740386615890322 4.067435610397286 0.2546002498122454 0.9194313755718422 -0.09483565432466247 0.9542081169313954
Ni 8.466863529048071 4.5712429546502715 9.694863256047823 0.08758694318204915 1.0235615678245533 -0.13740283826291175
Ni 8.644516037597205 6.536621431528842 2.809649900852807 -0.07235958470933344 -0.7079450279299548 0.32837615355311184
Ni 4.599212628060922 2.438743587691915 1.5989971344775005 0.9688276666167831 1.940552452275703 -0.03378455264961278
Ni 7.041190993535126 4.4675906355402155 5.45038305223635 -0.8839606934690581 -1.38373841082803 1.014159557784363
Ni 6.5971154941930195 4.678697067188362 11.531533829011284 -0.4245117576361205 0.4382033961906001 -0.3748730115630705
P 2.2202008852798865 1.4151780983974176 6.932761799993121 -0.19948726629848224 1.4418731101872329 0.5429462823266455
Ni 2.3869313711445694 2.7056313454076295 0.8808727486740623 0.6433787140127952 1.7710187949165177 -1.266556013377051
P 6.380552698871874 2.3756654209372887 6.570469476978341 -1.544433643959979 -0.243826968756122 -2.244365057556838
Ni 4.0833864111858125 4.607085779732182 9.72336462281809 0.1250528013379911 0.4503721703426502 0.8709511685832677
P 7.8883774356488034 0.6300631378837056 13.712008296802821 -0.11141181351578877 2.3608612275740697 1.1137057302108175
P 3.388857312516171 6.884750447339964 6.043900637450959 -0.41973567640371584 -0.1989517055099864 0.6698050265251239
P 0.8569818697774013 1.514470903772148 10.733823684891245 0.1255495384687515 -0.4053691232693986 -0.9919123163503886
Ni 0.6368078354665463 1.192368835634612 12.868790964209365 -0.20501976608093722 1.2763917685205501 -0.2931214441158759
Ni 1.707470016110243 6.059584662025831 12.552754104413621 -0.7433239216498811 -0.1891437182806291 -0.8385264723956591
Ni 1.7049881607427975 4.801135265315675 9.91837431686397 -0.47283049934616633 0.5350185428391366 0.5301391032596483
Ni 4.947852887487061 6.726013952546454 -0.09893679391190964 0.9601782184719012 0.5670015235036364 0.8363019539405145
Ni 6.2513010176571555 5.820071676059656 8.555064207044627 -0.11604854095685174 -0.7896477444170852 0.6459744997644294
Ni 2.341635186854075 8.609937378545155 6.924830087689596 0.9839406109988216 -1.3659684884391186 -1.0296429981319428
Ni 6.642095636976049 2.3588873350262807 12.399280630253248 -0.23410331371045487 -0.4251560760883387 -0.07486512474000655
Ni 3.547891258140236 2.069607106972827 9.784870947840002 1.0179141397307887 -0.06144987977536514 1.3091774475920033
Ni 4.312274825298092 1.3192037288510694 7.487464840421804 0.45447667942932696 -0.7820200526684983 -0.25739519435885994
Ni 8.131534194289282 0.5905226271644556 5.56674395808188 -1.0828141828382836 -0.5283519294522385 -0.3498425509570039
Ni 5.807504378468695 0.5095751017642213 0.2628693829016818 0.011412612712315829 -0.51079566573603 0.2656335231082522
Ni 6.8340257853918365 2.7517734054975156 9.888212802645665 0.2930175715481599 0.23207599886778094 0.8403414141172107
Ni 6.128881410206753 6.399933479550241 4.506913635339622 0.28311573905341564 0.24604865899778913 -0.12155790081085517
Ni 5.2672871934880545 4.066190035044336 13.541392359464012 0.7187747715556073 -1.737882674484181 -1.106630825641907
Ni 7.766738636628609 7.903668267407036 9.004847973731858 -0.6565833856285272 -0.5600415472460355 1.6676496491995472
Ni 8.888648806775441 8.433558331364337 12.868532553800321 -0.49993095510738417 -2.7162324216587868 1.8259455288613842
Ni 0.7691688073944132 4.562570403871894 7.706608951231861 -0.42636115214003345 -1.212836412366408 -0.15011925738831566
Ni 8.74956265747549 3.4286971331336673 11.761629707588847 0.04848252098141973 -0.6162324926153064 -0.40607591952843614
Ni 3.9137185983693965 1.5623047154608172 12.96330224748292 -0.2050786443433307 -0.09246638276153753 0.5065518028580115
Ni 1.4094056932169545 7.377282546047214 4.487744788378026 -1.7099000732283263 -0.3952469472337322 0.382347979783877
Ni 9.178905045366655 8.453943008595827 7.377947162746736 -0.053558135732114216 -0.8135060390919215 -1.2862046408459138
Ni 3.1234103322609585 4.122714988188292 7.354098112873121 0.07228065184228197 -0.27752693211172846 1.201285217193699
Ni 5.033146913148784 8.278409837214399 5.71596016722993 -0.9277954312658214 1.5536549054479307 -0.14529329675458202
Ni 5.0959648104266755 5.4662074364218896 6.632724076745867 -0.5627527755296114 0.4679528595388908 -0.7538546459778759
Ni 4.007201817209844 4.822347227669647 1.6165197769987423 -1.8080902458475183 0.9105096476021802 1.3754998249683215
P 4.325846019442175 3.141852283755385 11.755330256717993 0.3652881960881128 1.557234909489705 -1.7030282858091574
Ni 3.396209925233959 8.334442137420249 4.124241282762578 0.34115530759565116 0.5290890647285791 -0.837228836630158
P 1.6930250601514027 5.701500338729562 1.0191130221746232 0.6919239699113503 -1.2067902061723281 0.8601581917328218
Ni 2.4284536480223937 1.5374303897556327 2.910772958369298 -1.0057620777492873 0.08275918277610263 0.9419933200327583
P 6.8010924012462945 8.719176196066577 4.21860291108701 -2.126194842271293 -0.478920157183672 -0.6676147037420245
P 3.9613014359197845 8.692275486578236 13.56834326378001 0.6115332873674242 -1.3082225398779017 -0.3335080754630385
P 5.5081851848840016 1.1347656232298933 9.831168240082082 -0.006965118463923488 -1.9275899785777637 -0.5302853990295254
Ni 4.398609928866758 8.198172475672116 8.537064713660651 1.6706560401260389 1.668359273672062 0.7458441169685736
