# total energy = -340870.5829077965 ev
CRYSTAL
PRIMVEC
9.19019069155482 0.00000000000000 0.00000000000000
0.00000000000000 9.19019069155482 0.00000000000000
0.00000000000000 0.00000000000000 13.45077303580142
PRIMCOORD
 96 1
Ni 5.650423152851057 7.378950926748378 7.520797839718092 0.08708480673465002 -0.17694049134621784 -0.31543759111457287
Ni 1.1422303862218495 2.564109076562718 12.952556034982798 0.7850071603212804 0.34254653151622294 0.8085839191999558
Ni 3.3672306266845413 1.361609421603397 2.457375124109207 0.3420593074671593 -0.07198523208905022 -0.19508270947288336
Ni 0.4971065897039622 3.2507633435631664 5.389172690922575 1.2297203326059403 -0.21723816252400008 -0.5422554269072081
Ni 2.4640187127597595 8.339206352575186 9.9256344832664 -0.22645299625404872 -0.010401654949298214 -1.7446374767095114
Ni 1.318590140273707 3.7612968014625303 9.824013952759447 0.9190739922324236 -0.4854289048364672 0.8418138848976793
Ni 0.805195776098348 4.686261896098139 1.5980996725174692 -0.29806233306091895 0.25181667182981793 -0.17134268554346618
Ni 6.749900773265233 5.212234873893653 8.13393793555587 -0.12865414553600424 -1.1355613926333281 0.581838588516469
Ni 7.8106601214636475 1.4691806004036572 3.2596061447798776 -1.0826223785424518 -1.8000617191160873 -0.9824570844747597
Ni 4.982765009437122 4.277500606847564 10.635001386856935 -0.1466827209029409 0.11271767681140586 -0.8604479550590988
Ni 0.13134344434512427 5.376371674694392 8.412113052151465 0.32930483601496835 0.3463047130070745 -0.5558655614914749
Ni 8.569108155981194 2.615583333073633 11.563265759851303 -0.3395447685754217 1.866340387738663 -1.1149632567670025
Ni 4.67410327417992 0.5180032446681683 6.762120050440187 0.8449385465695899 -0.5468114217090068 0.2554732947457988
Ni 6.90592263593008 8.787954160318707 5.915541765924949 0.4627962550386159 0.597598422453887 0.41311611420466915
Ni 8.024497472025327 -0.03397429592386178 1.364769009067859 0.883856049570394 -0.5926372217938698 -0.8060914917954053
Ni 5.4151634684334695 6.744212045398735 9.915438886020691 -1.9084270324960682 -0.28535542701721184 0.37618735949911986
Ni 2.2730097951873875 0.17761972915766852 11.800779797977537 -1.8457923883839826 0.5478951416914886 1.9135998349462593
Ni 3.086920628855687 6.677849680416533 0.6724636939816115 -0.7738449730568737 -1.1162097275795937 0.8936702074473384
Ni 6.250092267579444 9.317015042093452 9.13752694722454 -0.7040585483913553 -1.101257734255452 0.10769091302077584
Ni 3.902733831939763 1.53943041593114 9.654803247830932 -0.1068578755965192 -1.0084799909010826 -0.6019021920355634
Ni 1.468730281073353 7.980954349842018 5.928831700283177 -2.159211663516946 0.48917525925277683 -0.03491378115804955
Ni 7.738296562140858 1.8612984548137983 5.442559426058722 -0.711352253839291 0.09091086534895956 0.06653475049744025
Ni 0.4870102465147298 7.231475941168902 3.580192152099731 -0.17099841483017 -0.23404649233059047 -0.12112338437659786
Ni -0.06385803809428521 0.5923188004349709 6.980534115828225 0.19498603599401904 0.7560148868539883 -2.033151246850047
P 7.76283437054724 3.6365583469682177 0.710296031841428 -0.8023155696927409 1.1847106006644694 -1.3516538715886592
P 4.173679025736369 8.338719272483225 8.702932032719158 0.1873927970277934 0.6285442201031239 -0.2268000951808223
P 8.516503506049311 3.721347043731242 9.320739826268397 -3.3555577915378145 -0.9838010000971638 1.9795571156736742
P 5.011576256386188 2.0224668241106944 11.530540410804754 0.44637359070621835 -0.1457149576730329 0.3647724327939588
P 1.8262378783829576 1.7649576886999045 9.140526625375793 0.8280494841237351 -0.10420424002375603 -0.13318777174029967
P 1.7463843138724526 1.537849703179868 5.923545502756828 0.580834829842303 -0.3071342134552001 -1.0765658879357265
P 0.07202536031554035 6.75478995456568 1.0626755028998116 0.35443531253400895 0.1907519433080134 -0.687494473385087
P 5.388493535850953 6.10236914685878 12.323840404430737 0.843532667360999 -0.14206553384590373 -0.7723089960283215
Ni 0.25993534568018467 8.407866265160983 8.602239711444058 2.2767108208773954 -0.19262961994670053 1.4531705374779231
Ni 3.293093360611778 6.968562973794459 11.84105121237333 -0.2254636357575859 -1.769496187624404 -0.9727342007600409
Ni 6.843236347113626 7.767521367658571 11.593839685321846 -0.29091029539716995 -1.441485902051143 0.7029012948584603
Ni 2.707476047026969 6.580957502877776 3.143727952864064 1.4653431682847151 -1.5913184814369754 0.31101709344937406
Ni 4.553307411373375 8.809486776459588 11.207896719851123 1.0478188977100213 1.1619190566912505 -0.7417118399677548
Ni 6.820270061268103 8.181787580967356 3.3083113969189415 1.1474609722843916 -0.7009236023067992 -0.22142520402215413
Ni 6.099685611257782 2.3458604346021388 9.366674235997527 1.7693056688801525 1.678378605581277 0.16239987452788163
Ni 3.1930397575704768 5.030544809401458 9.122031367166862 1.0036062077485488 0.1899567011002277 0.3007861597499852
Ni 3.136207620047981 8.971344410037563 4.808772648436007 0.7224303660303235 0.541929411026357 -0.8293712882589523
Ni 0.00119104867770301 4.876737782626476 11.94225542725451 2.4286406491118884 -0.9820032847667928 -0.22134627115510266
Ni 4.143176783751058 3.714757677204135 2.6108623322577684 1.6193777015670368 0.5878223169037297 0.5244821620841871
Ni 6.034104412460802 4.9156030978888685 1.4007366572925988 -0.10807272184022677 -0.9496253826567193 -1.4807661877080045
Ni -0.13923506085394816 2.200297008628852 1.35663109545593 0.7571762541519411 -0.7333511267078854 1.0887089510561636
Ni 1.4978080435444356 6.231344279134119 10.137538217764895 -1.065313969170991 0.6621986749327756 1.4645870068449809
Ni 7.426712346331885 5.47360388927848 10.505564907022793 -0.3337502733808317 -1.6861711050425023 0.5631101588690303
Ni 7.798676113163302 6.241361586685788 2.395394641916579 0.006465810230001767 -1.3167298060179646 1.0046963554889343
Ni 7.813784786204534 0.5980093663395519 11.44582707360313 -0.11452670499568664 -1.080458023901281 -0.7309947106605669
Ni 4.0368187100854955 4.512374303267748 -0.5665871862937621 -0.42858361371264897 -0.3282054323032025 1.0980238006991865
Ni 8.674032559942114 2.99607559660959 7.319587810785763 -0.6408577473631544 -0.04395300854218237 2.0105245105894665
Ni 7.501465355162412 7.400217027367242 9.333477430182723 1.1784461078119963 -0.22183323809385022 -1.257762069234505
Ni 1.7318546228273255 0.233187296479146 0.999669395456939 -0.8006860045091178 0.08752189427206862 -1.7235418323814766
Ni 5.945501786675811 5.100068599886205 3.941856472533758 -1.1544574582068827 0.4432029062877205 0.25410032565767204
Ni 7.516344273443286 3.682702293038795 2.953157407374458 1.0969128270231947 0.6883408805457822 0.14123661018670514
Ni 7.562506599894692 4.27160969479195 5.567328208181402 0.5654953712717551 0.18567581433668665 -0.4811079088636101
P 2.241147405020749 4.88779358169497 11.68652918878411 -0.46345265767569216 -0.21226076391406667 -0.08775226511531985
P 5.840016781099615 0.4423716536340272 1.702423957044331 1.3065158415994402 1.7963855558160806 0.78581011583855
P 9.250202357780944 0.5779701561410071 13.013461264896945 0.11351703278424967 0.8097892523619667 0.42739602116245096
P 5.865363326262461 2.5066428159016305 4.115425165756769 0.2687625556555371 2.5665883041346764 0.35566481406573586
P 8.92260883027013 7.044850744424187 7.2377261896697185 -1.3915563642105517 -0.3471027834283377 -2.4460506170582197
P 3.8256189441727413 8.542217658828733 13.303244511004937 -0.23068554627815754 -0.382797922837102 -0.7488584783148651
P 4.775029945310588 6.191808079971478 2.382400631689694 -0.6684066035157005 -0.33879606333485524 0.8820135970450165
P 2.628918299364891 3.200934131136425 1.3244608339104098 -1.0963440990039184 -0.6519453726358836 -1.2219208911661794
Ni 3.084338185349248 4.580951504139815 4.494320174198708 0.021580297273937028 1.032390221859777 1.4473097078217718
Ni 0.5116574181870424 7.24472819574643 12.45768909468282 0.7532357814469544 0.4720020899076 0.6738159474567299
Ni 6.09067003446128 0.41022069148837736 12.983505839241289 -0.7978043120859486 0.5415648285980866 0.13324227912731892
Ni 0.9715134090844181 1.0855912426980558 3.2689681917550018 -0.24176957200646101 -1.5680317429948931 0.8990211873466065
Ni 2.117603675280305 6.883121773512014 7.947469891067242 0.7335190197443173 -0.5125134197580851 -0.8063617147376564
Ni 2.0323462788061475 4.126625250814769 7.27864367445164 -2.5637765457174946 0.9990335007762019 0.21807274261015347
Ni 2.325669586261757 0.23782466656223966 7.587150095490839 0.36314749559602616 -0.19200689876103705 0.8124701416282394
Ni 5.4534314213189266 0.5085888136076824 4.115560261555861 -1.4959855757609204 0.29844208499784086 -0.00236232958458948
Ni 3.2778192641430866 2.4208248178121963 7.316090024314053 1.4491061376005625 -1.128425038698863 -0.04931118753030217
Ni 4.320859925222586 8.224466825251714 1.9425333049435842 -1.950116184704738 1.158042861565296 2.2975367564838107
Ni 0.8791363720962441 5.643907307847265 5.875633364050525 -0.3515047691507753 -0.11338642074365633 -0.14760111895215225
Ni 6.251130759096269 7.500261440218129 1.0234729076492117 0.5583744439562578 -1.0564117815853549 -1.6690542428565576
Ni 7.524836009386169 5.82007406790042 12.97406383760956 -0.847149952398612 0.34587456744819145 1.4469528387029855
Ni 5.691521684384142 2.9748278763715543 6.379768611383401 -0.33470955197030744 -0.23120568044768572 0.31651334067725495
Ni 5.365279114864241 2.531033581261382 0.7535836667312175 0.5118606166654346 -0.4696821835251717 1.4758618084278516
Ni 2.826204116990281 2.684978460892579 11.498944536160135 0.7126912843656887 1.0782077944145236 -1.7309972602182575
Ni 1.6081178990881795 3.2368218247045593 3.4182049368369145 0.5314465092171622 0.42580090876118926 -1.6314806554781578
Ni 5.157737044736409 7.449880816366525 4.936971209621332 -1.1193063642270464 -1.210241397945722 0.45257252042807866
Ni 3.6465021329965714 2.23738861714127 4.7204273479826195 0.088166469834603 -0.03846267485157247 0.6840527946933898
Ni 8.992031528660322 1.2965061127079638 9.504530768289321 -0.7541711487770301 1.1309092385732975 -0.2930602518606372
Ni 6.318531615595296 3.535429491648434 12.395478857729833 1.4632166088600156 0.5517991047315851 -0.02472449932987355
Ni 7.752320792713195 6.677086894612139 5.241510225458645 0.8149509990685642 0.21682652890787818 -0.5409732177606748
Ni 4.051918192936314 4.991017800429231 6.694624534979892 0.7853676289844925 0.933019398668922 -0.3250038946467693
Ni 3.5576329916895646 1.4366565165271836 13.295886844559188 0.2568259521189512 1.059353637822498 1.0071795269221042
P 9.159485988200649 8.108578524126445 10.650805757312536 -0.7839776906155014 0.6245045028161115 -0.28191991897310154
P 8.615849464428706 8.869756045197061 4.494508573102203 -0.6907407482365264 0.9295183274941992 0.5334751096114168
P 6.07493642847187 5.703891680681891 6.178168918377504 -0.3587928181717563 0.0441304146603111 -1.062206791000577
P 7.106875339530804 1.2722164394427704 7.454324273431876 -1.0631146475268274 0.13329292985959626 0.49660343339604796
P 4.77999264813435 3.734773911926644 8.35961500842839 0.22635143767917792 0.04553218010384417 0.8152042527299509
P 2.9677698101333143 6.563542092042535 5.5006258061538675 0.45944610761946036 0.02292344156539278 -0.004842929914598111
P 9.40763031957919 4.942273030471385 3.9248546202671637 -0.8951943574013486 -0.053346276831624254 -0.6054911949384023
P 2.2025486052803736 8.523046921624346 2.8000745676041294 0.19889925500549616 1.1619311408761084 0.825065718905063
