# total energy = -340863.0522173128 ev
CRYSTAL
PRIMVEC
9.32650769618791 0.00000000000000 0.00000000000000
0.00000000000000 9.32650769618791 0.00000000000000
0.00000000000000 0.00000000000000 13.65028675121592
PRIMCOORD
 96 1
Ni 8.946927991979711 7.012638311522154 6.763253096299047 1.1647305579981166 -0.09458060089106292 0.512007426655944
Ni 5.105824522223232 0.1658290343370809 5.283057077306975 -1.3199004904364624 -1.7787231055393111 -0.5331421517520302
Ni 6.424126360401586 1.1149373416698354 9.024476969371076 -0.15517353198277145 -2.133972686444499 -1.0189531225182646
Ni 2.9207543810173346 2.903556301147502 6.733303815345679 2.1961039085576046 0.6644350204624621 -1.6620934952680084
Ni 6.114019985308341 9.183168427501874 0.4210442494119415 0.19876684319268995 -0.13043592002677537 -0.5621470236248125
Ni 3.6376830142028322 6.970808925287771 8.824514782806437 0.3127559305173517 0.3646451631874752 0.24666958041123968
Ni 8.951721816845815 1.3703250971338454 7.707074206517804 0.39482271521212003 1.0562534016306195 1.9843802480939308
Ni 0.223517213961194 5.200404634999792 8.657134750268513 -2.0086290933389663 -1.0805163879430424 -0.6137475214099236
Ni 0.8785551432333444 7.993432495508796 11.79235963295109 0.5540984422887232 -0.6918326957491245 -0.18319058602098776
Ni 6.0240658202624955 7.277725634808629 1.923216318077161 1.2106496891277343 1.0292413918181502 0.8037137355918481
Ni 4.472629273566673 5.915785067936704 3.3078333553371086 -0.45562467699084114 -1.6207182747553313 -0.53175812692031
Ni 2.431653673569516 6.586426244292492 13.462922727569573 -0.5911549808213884 -0.8199551371513749 0.7668867965714857
Ni 0.5393379402129246 8.617553052346837 8.675740200123357 1.4993606628807405 -0.6932313758688642 -0.43437759468660675
Ni 0.5092953941843422 5.189576559767213 3.794397252739052 -3.1419497695672343 -1.6011334106448682 0.5252262393390631
Ni 3.9840695035551064 5.7277720028087415 6.505494542623045 2.4242875143495155 0.09762298726181252 -1.522505733538636
Ni 4.491123737982009 3.0552239664637835 1.405487895791787 -0.7356463504999653 1.9486491132409087 -0.1459360725449035
Ni 6.850562263811765 8.72292393432589 10.803614601302282 -0.3082495580065659 1.6916861213234606 -0.12119743214764288
Ni 0.6970697007197512 2.1773850990080983 5.435694699405504 0.8472543391869602 0.08940317045518152 0.03744451799970326
Ni 9.160523667239428 0.4372481235799717 10.550374740520496 -0.3597685518214643 0.6034350837403221 -0.04497116539405158
Ni 4.929982549410961 1.7921816853509185 10.688993689163304 -1.2417541238420227 -0.8683219584905368 1.4577417017883734
Ni 6.176852666481369 1.5916990796665755 4.1167763790799725 -1.6728702741685384 3.31295512637594 0.8751271543378284
Ni 2.720430325960859 7.7520624808497525 6.265058111366914 0.46867482530657995 0.15381830350645767 1.6404314369135424
Ni 1.97477604960883 0.2154432563997437 2.6871272329027254 -0.6991541691112024 -0.4677080905179365 0.07729635988931849
Ni 6.08553683133737 6.860644218442616 4.527090481588312 1.3517477168540464 0.3486559868480705 0.5059745901983028
P 7.983882151806676 5.704325162899435 2.503708405379904 -0.7667178750937892 -0.23028214019215182 0.27699522797797455
P 4.998737562860206 3.8830541005886423 3.3677169948318064 0.6800058783175257 -1.2388739740807504 1.066799552577582
P 5.8346724320213355 7.628700765861532 12.691613094327124 -1.3315702134649066 -0.1417624007831881 -0.6741386209034713
P 1.385284815198494 4.250014865533569 5.898425639486747 0.32253537850161873 0.7914745132131789 0.04332411670893184
P 5.223301210965324 7.478049689865105 6.4006739245877675 -1.2599994432054558 1.4773206523615654 0.6065036953633168
P 5.302912279169712 2.6267921904439815 7.207460659791637 -1.2191721247764489 -0.7292245061340216 -1.1056404367041797
P 7.850335890604867 8.728939531677323 8.045178757190897 -0.47868490124441426 0.1769006392472179 0.8777226829791464
P 2.002121369662165 1.0144628761396237 7.378498548579532 -0.4096942330073137 -2.3218892171862464 -0.9870364763153259
Ni 5.860245715645567 7.524010718931556 8.72847134099974 0.8380261357204729 1.4042416729877043 0.36027145959981177
Ni 0.32191839686935353 9.167332017730194 6.117021255428791 0.0713645677859158 0.41241034638689616 0.12242976189284722
Ni 0.5412079049710057 2.595473778186444 2.8494289820951364 -0.12845925591637877 0.011669723028444419 0.7743671641089309
Ni 2.4576559765397405 5.910459632141869 4.575220856304288 -0.1019655805012244 1.4374855226424985 1.384956085285215
Ni 6.911492337450387 3.2024801937223475 8.391485971229239 1.8258100317247847 2.316124032567695 1.0732010852285518
Ni 2.2052153974525566 5.262341971450748 2.099236427183096 1.770075457166642 -2.3224690009491162 -1.0834222487359277
Ni 2.487519453623908 8.681197139674246 13.489717783679136 -1.4673411725513503 3.0538648037028437 0.9516395848732707
Ni 8.658654970994535 7.653546581899078 3.789511095448485 0.20744174525886855 -1.8095976836309804 1.2854384521038507
Ni 0.3682440923798997 3.9781285182638464 11.303078923908105 -0.33366902652093505 -0.517869798973992 -1.3708736390502196
Ni 3.364649506507952 4.512313563071086 13.190394716582365 1.2714017715051265 -1.8678912771655507 0.31995039138326187
Ni 8.211887281187265 0.2608213787460952 12.729328558093728 0.6154423926138434 1.536410002324554 0.49608535610904886
Ni 3.5207845689270805 7.866629299245105 3.9217413864389967 0.29591391925934846 2.1980322359285696 0.25234477641914604
Ni 9.262499700480616 5.779217018297894 0.801296220225903 0.06855640891315935 0.2840246240209302 0.10051470698731077
Ni 7.5869553181948435 2.2657164517451847 10.818862508449348 -0.028292676297106113 0.45033257535396637 0.7299598416381493
Ni 0.8102412735898707 1.6673463821742842 0.6771986437942273 1.6927569857901363 0.28739482604474376 -1.948188371554406
Ni 8.444872765584389 0.7196286571130006 1.6900284484668189 -0.9605170898685589 -1.3559347583522003 0.8922049357557216
Ni 4.24780448325095 5.486952252093473 11.274249756508082 -0.5869347720924537 1.2420390020722931 -0.20440192999128026
Ni 4.851658539244553 4.512388175131259 8.377084910965134 1.2533222882955963 1.4715048170107368 -1.8351673045699683
Ni 6.808089348558392 6.163804882458648 7.076950176788108 -0.846525945661368 -1.1563040244973182 0.8517357719970814
Ni 7.857302791723503 4.699906935360576 12.607718361218062 0.08072338329299647 0.11843015381515087 -0.14835573772998967
Ni 6.071668314652749 1.5524904420457633 1.84303446761245 1.2154692220035648 0.5915025939687942 0.12201632850451247
Ni 7.304837792173924 3.4210468974910753 3.4351355197532065 0.8174681090634632 1.8218392200024949 -0.7342888080308064
Ni 8.634611234603847 3.777412749891464 6.6195017705671 0.4503091783151987 1.0162730045829402 0.4818692125096669
Ni 1.2346057596795024 4.158792295464787 13.547212904597552 -1.8892327189558042 -1.656482319728818 0.45576968720913763
P 4.405347848305841 9.242764810564907 9.656376766132885 0.7095691937969393 -0.7906016236899223 -0.32066490095178324
P 9.002663200928803 3.065231309034462 9.261159481349761 -0.05746775519916555 -0.041724376321979756 0.46971277965279107
P 5.013072404920907 9.132982490528137 2.7917156209007152 -1.135100908057142 -0.11664812221406362 -0.34237838136947485
P 7.737279966428015 2.446911839874856 13.094446405152388 -0.7829078545900904 -0.8595575820343454 -1.6748695639867541
P 1.57984508860662 5.595662023765258 11.949870355229654 -0.512175319692376 -0.4092977688998435 -1.911410540604424
P 4.646512679799408 6.07808495182761 0.1629937760505141 0.2805495209881362 0.4739360737055193 -0.7674637521208783
P 7.210826596356182 5.620284003622285 9.285225601358501 -0.8360345592117409 -1.1948289200453939 -1.6356748960651635
P 3.733093186148814 3.5848483490929604 9.715974081846669 0.14733500977495917 -3.170801917912236 1.6714515394441407
Ni 8.203390832835087 3.4777334102073687 1.0890740036616826 0.2554121024905601 0.623761711112816 1.5983782164972344
Ni 5.926641122691847 4.471323562513648 5.502894984050898 0.15583893348091227 -1.2169743457941817 -0.4941943097339231
Ni 3.7147106398237377 1.719341661607212 3.3293999713300595 0.7256907819491503 0.25946493240369506 -0.09371259646381279
Ni 8.863092015868038 6.5994553753001695 10.320844727160127 2.087703113953998 0.8768608491994835 0.5291975652819854
Ni 7.17989057090703 8.79194008998574 6.031583917975658 0.36177169829442213 -0.747422517199287 -0.35817935295747344
Ni 5.712607101578617 3.8928282804712806 10.615937290445098 2.2007969431579 1.2031459245515215 -0.8674971485963964
Ni 2.7392791976620154 0.714819909834863 5.2769416863250616 -0.7420815646023478 -0.053893664694662016 -0.05522292502904683
Ni 2.2365990952627453 4.895474471581036 9.799035957834052 -1.0759773624221083 0.9161431917388738 1.7315320496758049
Ni 7.2422662532115005 1.9471789138524116 6.364432049009577 -1.8305328911217509 -0.5148430963325262 -0.8552674392994237
Ni 7.011808252352731 9.021754561825519 3.520163423526142 0.48557468638571205 -0.11817690015376421 -0.8626714450729788
Ni 1.1354743112324015 7.026478848684209 2.5707855801260133 0.803801667319964 3.2370322497953796 -0.08877813527667291
Ni 4.293177942343541 0.3155922268174513 7.36681429995647 -0.6096676949135951 0.18586273353651217 1.4703460208159451
Ni 2.560713884653436 3.7553182535727903 4.0540807975675115 0.4652182342165472 -1.6975466938692958 -0.32347074583169455
Ni 6.836898930292619 6.553401081158502 11.103948661814393 -2.5267765714543775 -1.974609798970728 1.0996158277766548
Ni 7.923203893871138 7.31046167620945 13.1053537556989 0.3869273716244433 -0.2801970227447239 0.33362068978150283
Ni 5.976099592078899 5.085408797258447 1.424502779326828 1.301130923138443 -2.5265333450953196 0.9733147558538593
Ni 2.144891546802839 5.6119461058979745 7.557439719841232 -1.871766443850241 -0.4545754097907203 -0.690092058908934
Ni 2.1971293154313285 0.7512548441187508 10.291360838932087 1.3591679205775173 -1.3305600270328375 -1.7745774588020535
Ni 3.843332505054142 8.198615660984027 11.661712982937745 0.6812657188665557 0.040314897568962824 -1.1781308905644228
Ni 5.6261503768533725 3.735900464912816 12.97982549301341 1.1105023927821713 -0.42591506574155036 0.03263912619125992
Ni 3.6311451324301895 7.305854381493779 1.5943534037072233 -0.16261276186963608 1.549402300819164 0.8464354428300908
Ni 2.6900818704855687 2.680634118366186 11.551459674271136 -0.13796179609017528 0.595561080308884 0.49576473954483646
Ni 1.7584663606603295 2.5857555573489353 8.639744544343737 -0.9287886484170261 1.6927209903458784 2.874309757551914
Ni 3.7774780354441146 0.9018359713087657 0.98557681704372 -0.3313041258331843 -1.536784097834521 0.871567462011028
P 4.339922398041807 2.0066353993026205 13.000451064397431 0.14018142944931342 0.7245360995194167 -1.964801554631055
P 1.7412496277754534 7.03719500582653 9.664621398781982 -1.6576511432259389 0.9180704906685736 0.18047807218583112
P 1.3876630746165024 0.8776243577826885 12.191617160792571 -0.825515919068604 -0.21375406063014155 1.301409116500494
P 2.3065479016747554 3.0958595597354006 1.5086707791062717 -0.3489516637116184 -0.39827802075057217 0.8618918865944768
P 0.040598287241530744 7.9797505089746075 1.0301910984240523 -0.0857159514115814 1.948725989225431 -0.6818498735047999
P 8.040419440402625 5.50441147417391 5.502580680747419 -0.0016241658669842998 -0.15496450129575895 -1.9913453665578544
P 8.223573395111831 1.6133645566392556 4.459452783740154 1.0763835967215913 -0.4718136280458778 -1.1055206232968637
P 1.430956722531776 8.225046983300246 4.680983451599247 0.12456994816430159 -0.6756023499331913 -2.7973563828243115
