# total energy = -340888.73892870056 ev
CRYSTAL
PRIMVEC
9.09802419681232 0.00000000000000 0.00000000000000

0.00000000000000 9.09802419681232 0.00000000000000

0.00000000000000 0.00000000000000 13.31587805441396

PRIMCOORD
 96 1
Ni 6.413988750853272 2.134978738941615 11.22495204654536 0.4648531375676446 0.1439468100290166 -0.08498781499630524
Ni 4.878751763825164 0.49453856926937095 5.975859750913605 -0.06914673419899059 -0.04520076490635441 -0.38102077633202125
Ni 2.8450613277362957 1.5212442258866787 4.883078784110511 0.08669322772318618 0.6019811249026149 -1.3557501531452198
Ni 3.6378722501194107 3.8705815118069666 4.458249275872106 -0.6361832247056204 1.7313430735934503 2.3645157936075214
Ni 3.8918799863401814 2.874320573400037 2.5787930941720996 0.56103013641155 -2.3260145522085294 -1.9215046916156329
Ni 5.461807739449087 4.795204608063305 2.8124994993064045 0.2864707715685776 -1.375390553083967 -1.768656208221612
Ni 5.475773206518068 4.677585351862792 11.347458761318808 -0.43809309586498096 -0.43959616277306873 -0.08020376334410058
Ni 5.604910561291434 7.755619783986969 12.260448214095598 1.1902857807594018 1.2997510120717808 0.16285984488343563
Ni 1.9940321488226211 6.420521132192378 0.448367916317146 -0.05137526914818249 -0.24959009649214434 -0.7381488052068449
Ni 3.056353840576698 2.003221153213286 0.04810216347909441 -0.9393180871934403 -0.13557349836365684 1.0722888578269274
Ni 8.044472952699074 9.023884350381735 6.93496253909048 0.05874302236716335 -1.0869179205940118 0.8343440588831953
Ni 8.87611424215086 2.576396674611207 1.2858992666031075 0.00850855169164341 0.68629685353256 0.6961665472377881
Ni 7.572312793429425 0.38752397001713434 4.739640245177059 -2.0239042743304823 1.8772598628646442 -1.2456537160067451
Ni 0.9140966823157447 7.921158333381179 2.609831913359419 -0.10924334510956024 -1.5563237105293455 -0.11207618657266503
Ni 7.678286578718996 3.9410548068664633 3.6286295673862656 0.3729287433525061 0.3258598148891614 -0.4083639442316645
Ni 7.7605600110999715 3.9397537894131314 12.649471538492515 0.05727646512396588 -0.5463733057303235 -1.2541841220752592
Ni 8.416873277173037 7.2768908512816175 9.007565224465363 -1.1937174321487698 -0.19423501676060742 0.4327056063008225
Ni 7.1140180229631165 0.9081483941270151 0.3661245074158637 -0.4592237071960091 -0.7596434847455111 -1.0501449747400367
Ni 1.6974547576078682 6.899968808805515 9.047873110655859 1.6785053609671285 -0.3805975727516736 1.2235951935448088
Ni 8.814666187047344 5.2002031530637565 1.1183837165612829 0.7492945374110193 -0.492908501042964 0.4473344119575909
Ni 6.603218555131928 2.0787165576031263 6.94833208557769 -0.20099264719941518 0.45976543863209207 -0.6222002801629671
Ni 4.073340077995444 4.4073922306806415 0.551338443835075 0.0007708167277535112 0.4777533905690805 -1.4903898268406979
Ni 6.096012806839663 6.017387682142506 4.612846541424519 1.0640477008640579 0.9785284388443148 1.4471346156964884
Ni 5.521772816616289 3.3239995149970794 8.652417483185475 1.285748527145102 1.0483588293738912 0.7445279692603113
P 0.23807709593556817 5.762806770400338 12.299637043315746 -0.21429347807337934 1.2158615723459771 0.15243427867473747
P 4.244646774700229 6.138127560626186 12.462503503017345 -0.9896363758320181 -0.8845196512963217 0.6397182344420725
P 2.5248381717578416 8.325201585845967 1.2038341789751488 -0.0702178557759823 0.9392607515929435 0.26969920853719354
P 6.408775583015794 7.948479699901147 5.873647088807302 0.15983185669038924 -0.218755627609791 -2.1484325706235707
P 4.690859369096436 0.7562141202430649 12.38672242066922 0.8484784414020484 1.471561895500917 -0.15814675567848246
P 3.927052947700886 6.273988355245791 8.279626853475513 -0.14604817264273556 -0.661529416779893 -2.386359886065806
P 4.837355753946425 0.9354133528972578 3.5978172890002598 -0.3502369581819452 1.2350348028403182 0.6302262357912372
P 0.2920966143212849 5.60287260388202 3.327810677313168 -0.24829580316075303 1.677404414593466 -1.0213465624511056
Ni 0.7795332659398111 0.12317087053633863 4.739014301115595 -0.28681735627471894 0.3460560873313782 -0.9452025709986754
Ni 1.774706080658499 6.681152229993747 4.660304564793853 0.9955565979711951 0.16164808396352162 -0.21652159607294966
Ni 6.196027386311526 5.793294249324218 9.173428573321697 -0.9388923125099313 0.31543399157014707 -1.2747974274502367
Ni 8.662747379804447 2.040477562104151 10.184489267612086 -0.24178602706669325 1.6889905767691689 -0.3813658183762658
Ni 2.2702845540881205 5.394227616069028 6.832376857994061 0.16068212050582648 0.32432358075029305 0.291378236172524
Ni 0.4460279045059786 0.15001822999813424 9.234335295988338 0.41235635322050923 0.18736374356207086 -0.5121313538283181
Ni 1.5117731827473895 1.49206686244028 11.556104658934215 0.36413839875438575 -1.0222456772266073 -0.2524864442033329
Ni 4.436478613885549 6.865187062483225 1.553723262296813 -0.3175836909232982 0.11944985332891685 -0.37493574648020594
Ni 5.6204499865382225 7.971424916805362 7.765100834952824 -0.15859952694518492 -0.19439031139154908 1.9721083727051132
Ni 5.75442749015895 2.659725477793486 4.707002903146728 -0.06128790027620413 0.15376328189880614 0.5284817701618834
Ni 0.9718782336871445 7.750606772680775 6.96329833530308 -0.2989570769610464 -0.8852328753132626 -0.613982263128549
Ni 4.809279251422076 4.7935669637164535 6.632452326328051 0.7505263529355913 0.7335411312315044 0.396736130184749
Ni 0.7335127303860476 7.768102273119635 11.433412344468124 0.23603472640521286 -0.26555998955783944 -0.010452562791891674
Ni 4.7015768415441626 0.14492606588184193 10.148189970861715 -0.671174910289457 0.8554235052613137 0.19679172174419013
Ni 8.350867111970786 7.334563226363227 4.827964773419649 0.4480589488284412 -0.8613990061184584 -0.8995906866968313
Ni 7.496216919445739 6.355415671380893 6.880260668893576 -0.0482133264804331 -0.506300606079154 0.08504026550079548
Ni 2.8531494712049112 5.079672529135508 2.3340207622651543 -1.0303366817648578 1.8502321693228907 1.4067456703564805
Ni 2.342568355953303 5.706954000148563 11.268481543087079 -0.2937580492586102 -0.26011207906939077 -0.11609096415901297
Ni 1.2444095470756322 3.5687272665856935 3.556364871371797 -0.70130078314056 -0.7322530085477003 0.8421424718816916
Ni 2.025775155079087 1.0340086406018494 2.532440480736891 -0.5299264730282099 1.3920196770002156 -0.45945202115673134
Ni 1.124261040161649 3.441609673173443 8.007423068956395 0.08474844529198954 -0.36946392473235723 -0.9671780468285022
Ni 3.8662235582395126 2.6555585827331645 6.646926372946972 -0.41867663901158214 0.11155296707934335 1.1355917316506314
Ni 4.141029377665293 7.183035634158745 5.944141309322342 -0.47056664301265405 -0.4970523480080085 -0.67072908100129
Ni 0.6608549997283343 0.5442774672929016 0.506886407644629 0.45590929811079545 -1.074149822295066 -0.6139007591583362
P 0.3418982887114449 5.629411540325159 8.013322227814719 0.6757915831258618 0.8631954358972489 -1.5043902548848478
P 8.613672637543807 1.734956813150761 7.830042531329623 -0.2566662866126354 1.3925608942156664 0.864387399322821
P 2.173572557382408 3.310570831352899 10.615418091240096 -1.4431383500529016 0.9719980939249647 0.24723933687178065
P 4.081682966140235 5.998381909694883 3.903110587349921 -1.4953255735794182 1.6195972737770106 0.6238681547836933
P 7.216843891897073 4.114272088642575 10.091318221905231 -0.12954811810518335 -0.8306686669141372 0.5105987192338755
P 6.458960284222634 7.900323858079572 9.81911534718853 0.4632148306332733 -0.28293601894244175 1.6155051059855081
P 2.5367929754898553 8.718736620418461 5.736440696416034 1.1506157158632893 -1.3652097558962228 0.8191156719692151
P 6.837774715721766 3.782212403246046 1.36148201202478 0.4681379789665034 1.2598667742823335 0.15758522674805764
Ni 5.465665301688336 2.584166387234601 0.21755104365261818 -0.3383713170926108 0.14690692109860506 -0.32339078452337855
Ni 1.4460126641971645 1.0937371691411724 7.002780120900834 -0.19139240510548974 0.715085238519162 -0.6115235171754113
Ni 6.815994045908645 0.8551050937325047 9.042387002093907 -0.0775321300492084 -0.08081902833059629 0.06412691238689601
Ni 2.443711090419663 1.807449869571374 9.010921485573993 1.2050865932176602 -0.9558628789259989 1.3327179539161047
Ni 6.605866080159337 1.982332089766784 2.538751780089173 -0.170906369336996 -0.5502160765151815 0.16419296187256238
Ni 4.121705174372449 6.884420285534577 10.252986471826382 0.5629975445505659 0.18211046558293154 0.3277881422601258
Ni 8.318541832168773 7.615710368620982 13.477799327549175 -0.3221931646708516 -0.5254782074488693 -0.11409861631933253
Ni 7.935414937222934 4.198337831780936 7.923586596026593 -1.7770775995160877 -1.4767529527835535 -0.6363164078493752
Ni 3.207954216974373 8.198566187713624 12.211219715226838 -1.0278684227300232 0.45277229514371053 0.4003621569731105
Ni 0.3159943943539185 4.549676230349563 9.916361397911798 0.0387030729971527 0.5433275769254643 2.189049829924301
Ni 8.653885904283152 2.5538881628661523 5.591563759864597 0.5325292007583796 0.08044004772462275 0.03871438585106235
Ni 4.082974885569419 2.7723499187361025 11.34572740732322 -0.058609325002776484 -0.8743709928980942 -0.17421897864999672
Ni 1.383336375833509 4.005687170422191 12.638299164837331 -0.023159211725282694 -1.6154423710683727 0.911290748742579
Ni 3.276407750672754 8.536002805382314 7.990352446245302 -0.18293373281517528 0.5007246546532731 0.24155308512028073
Ni 5.869053496414384 8.068373462138952 3.401340908486787 -0.6595668937368834 0.9077223146650303 0.7435038988711711
Ni 3.3549146010559707 8.308279260928504 3.3881851655670823 -0.012936505556009977 -0.6034137435840834 1.0076981184297356
Ni 3.5551985046758725 4.288863172065211 9.390929577841495 -0.06777042267675426 1.265362507289582 -0.8254948360226815
Ni 7.430001499688055 6.2265421593078525 11.262915371912616 1.0291958832921952 0.16185248666484384 0.09107824416475926
Ni 7.974682009450766 9.04980462118273 2.3054047469087595 0.7448146472627947 0.14117156127672462 0.8547521902259021
Ni 4.434640813007416 0.4968440085887715 1.4478486454704675 0.43898835398574076 -0.6713695427987664 -0.35441782903251223
Ni 6.302174034059931 5.699984913650296 0.18521484622162626 -0.10637579375377808 0.31355631493145997 0.7205503753987914
Ni 7.771040934919818 9.001075603839757 11.380228934501716 -0.1584642869189013 0.1491124133903561 -0.3426254643832744
Ni 0.04018961187655835 5.040159810255648 5.34583249621233 -0.04396175029293074 -0.5598970512483712 1.8413682911743576
Ni 7.360892908250935 6.510546081148448 2.3746871106071294 0.4676918925680203 -0.3130690908823963 0.8028161634782431
P 8.908221169373293 1.7527525483865438 3.429904155303117 -0.3101346908444207 -0.42623748207797557 0.19155361327370238
P 1.9548833509087282 3.3772866424387877 1.5419786229226449 0.26737750238255237 -1.5462419008133113 -1.9429294371483121
P 4.553078891381355 1.544398697346325 8.408084585844938 0.4005701592188585 -1.753390540311793 -0.8040790893510669
P 8.587597700332276 1.8737016814256542 12.361862069681603 0.010146087295066396 -0.5386178301546207 0.17503298991085983
P 6.3015007802728915 8.078281210437403 1.2643733414661633 0.4898401465302854 -0.5770306256048644 -1.350723646464906
P 1.8151467980015745 3.4774013001762913 5.846309345843865 0.42063016319352714 -0.810935707261584 -0.41149143411705263
P 6.864541102768634 4.416399274588324 5.795509618204541 0.7295561784418274 -1.6461899366638748 0.6693167740347956
P 2.3192592180831206 8.764454191768056 10.146698804703664 0.5843713822406517 -0.05165037718644009 0.3537542273065843
