# total energy = -340867.8256786794 ev
CRYSTAL
PRIMVEC
9.25063124948889 0.00000000000000 0.00000000000000
0.00000000000000 9.25063124948889 0.00000000000000
0.00000000000000 0.00000000000000 13.53923390176630
PRIMCOORD
 96 1
Ni 8.627749429690132 0.15816544636446053 10.720108128977099 -0.9469758608490143 0.6758100950686232 -1.0639710819898516
Ni 6.580556938445984 6.675671930990018 1.1058695115905757 -0.4700035714203325 0.01495919241299359 -1.2515651963951735
Ni 9.24019673530872 2.802099521155492 11.28870189115528 -1.2401366428432579 -1.0027356322181376 -1.1351374177220321
Ni 1.1436740671274075 2.4654782934094457 0.36056833737440097 -0.04449216887510402 -1.1919114892882827 -1.693250123376471
Ni 5.08461882579467 8.879579369587645 11.793255381948144 0.19180249605971483 -0.005775469031196505 -0.8665756652233915
Ni 5.967092063368163 0.9266080002099053 8.968022806731685 1.4912033238809286 0.03729282291318738 0.9314970484871248
Ni 2.6150332520224975 1.4338756262694894 5.4777170086544915 -0.8029660587925461 0.42211446104853756 -0.30033236004201824
Ni 5.1924996897363656 1.8718097696294496 1.91122578516445 -1.7713268130752398 -0.1837379738840255 -1.6503949758841576
Ni 6.154250838815633 2.935447373472381 10.576971258462379 2.6257529874202907 -0.9890385943470191 0.632139650763866
Ni 0.681505119501073 6.321770523699889 6.162165679082185 1.677076856050718 -0.7014391084906371 0.12877653004648146
Ni 7.3034475329172475 5.981902324315741 3.2160958055185453 -0.6735950896951753 -0.2607900789730218 1.2073046839149013
Ni 3.2363704144622103 6.135129783613483 7.127025965390984 -1.346990404674719 0.7479493362370345 0.22810724402802005
Ni 6.849260030103887 1.63094182799732 3.322095091023804 0.7599034232751171 -1.8485812639830292 0.8688945431645552
Ni 9.038495967225652 8.861679397736575 5.633093389637506 0.3711857925194704 -0.005171002677978191 0.8934640049738032
Ni 6.456209950527592 8.909394154743202 0.16736519933908042 -0.5028090479861276 2.3827354019393416 -0.31216457679025594
Ni 3.466553876772383 5.941412310469676 4.72314855185413 -3.1524290718320027 -2.6736438975642987 -0.2222109331482431
Ni 4.477028101686063 0.34780154091359367 7.013242273522587 -0.945049847470895 0.3295169520257744 -0.6232050672783976
Ni 0.7191866416396517 3.5505126077906337 5.202640231929205 2.412383306712761 -0.3479936706737232 -0.6513758732856588
Ni 1.3671230697437406 3.5831673368005963 2.3101315144470633 -0.11178513769480748 2.527172264230899 1.661023145021965
Ni 3.8986878742147097 1.784224791083747 11.352729211656571 -0.29340220858108823 0.5454538792398477 -0.597932408754538
Ni 2.6213514333011956 1.8507460818233061 3.02325714236226 0.56153021597642 -1.9955226378639954 -0.15381624662392865
Ni 3.5716317993854623 0.8087447798731234 -0.11010656586798465 0.13988138171039136 1.0790251481094966 1.6032807960051745
Ni 4.3254195028916484 4.194902343797719 11.164371554373494 -1.3464448165838938 0.9128861182541569 2.7751129980450786
Ni 1.5173348231895707 0.939105603295588 11.987434461601184 0.6039238504512825 0.6095070009660148 -0.6254002751575035
P 5.2475131949551335 6.697669932572366 4.954588249914884 3.971971804036308 1.697459276361812 0.6206900141660278
P 8.320498956790159 3.8186699121931285 12.909646561747198 -0.3885111711717954 0.3048572444955653 1.8995711247673348
P 1.8406351416510998 7.319229110166821 4.494930848726567 -2.3088167002730047 0.2507524922313617 -0.45736479961039944
P 3.6643508783845724 -0.07512252785952059 2.104768421373897 -0.21616549828511158 0.8559122719722742 0.7796183852055412
P 6.4226024064785285 1.2301674711622952 6.882208929193882 0.22361964057031167 -0.6205897411427377 0.3736255123092146
P 6.888575213756108 1.1516666126981179 11.80726823846494 -1.5386124092925113 -0.6200629221049901 -0.6007400534066621
P 2.3552477690800635 4.592355723943062 9.73003802184735 0.9494996557121326 0.21563893635768025 1.7132018839080494
P 3.5911876342656495 3.039516977257674 0.6249550843988619 -0.11513142845922107 0.046103479226281885 -0.3128081239115258
Ni 2.412324165111642 1.4819234060082283 7.744604596273545 -0.43924160764712744 0.2457709798563703 1.2324235904697163
Ni 4.49004374013281 3.173873148402349 9.228666748272454 -4.175792921823453 -0.8516241861198817 -0.9443751900013736
Ni 8.102332064730394 0.2173260096611791 1.6286476713983198 0.19491507354676754 -2.626492693799793 2.665807946459647
Ni 7.23775879900797 7.397110176324011 12.329273045483667 0.7140169451556477 -0.955814799296883 -1.1853353787326617
Ni 1.803105329868261 7.025974842647037 9.364911898358725 0.7340982892865552 -0.9526785676607463 -0.6045964510382749
Ni 9.309742982531636 1.501673504148815 4.289514101991005 -0.5595743778016298 0.665220492478235 0.5305484228829249
Ni 0.28458087547453154 5.400601894781162 12.057933523863204 0.3960655864802856 1.077426179053493 -0.49142831695301165
Ni 0.42697862053658925 0.043818391040904486 8.3051558594712 0.8202906661139228 -1.0453573235434062 -0.8471908329388763
Ni 4.021721272467545 4.107437623460836 2.653500152770976 -1.620753241758325 -0.12177952990335798 0.12292675613392377
Ni 8.217696689513183 3.458811098250757 3.022417185026819 0.4624674109442874 1.3836965018465008 0.5582392039299741
Ni 1.5143653704948967 4.672123918915558 0.3029646553503104 1.516217329426763 1.1840822230518508 0.19026857591369165
Ni 0.8121813894559 5.0148228115226665 8.377360738172152 -2.1566945535220468 0.6569932194724363 0.8386293165221105
Ni 2.315664317115862 4.084477556207938 7.0476046690977725 -0.927796459707086 -0.8718271434303178 -1.0988131293697012
Ni 4.540413428364892 2.3441470113429657 4.401780690302 2.113944307038714 -1.2043255466819192 0.3802795272906225
Ni 4.207048422888394 3.0412098428125813 6.885824075963597 1.4419587279225037 -2.907204965618038 -2.2893567917761795
Ni 5.387734266437575 5.579157582982381 9.774880457789502 0.937706005511314 0.490069231821956 -0.9949292487998415
Ni 0.7427183979160098 8.826064466663386 3.242659918783421 0.43753439514803355 -1.305251887285352 0.16575722103588872
Ni 8.523541066433125 1.9315688487808265 8.782184096391784 0.2908318767507508 -1.3851658873031758 -0.8098830976273536
Ni 8.508767808011338 3.7455251693371006 6.998105465284908 0.022868934178373518 0.20182825572683305 0.3082328458360175
Ni 8.54617736158536 0.9533608263563113 13.01190766708449 0.6216068695533423 -0.5786920724676873 -0.9958674443433946
Ni 1.0207701777148384 0.0623344549463838 0.8628609738414758 1.6907816072313206 -0.6292826409310452 -1.1232447800495042
Ni 6.413324023136604 3.2182946806136354 8.18789208005222 1.4012725630570513 0.20464567057097013 -1.8050715136258526
Ni 8.663123844345685 6.7670866709550195 10.055548316161705 -0.6781667682262579 0.8124007218428847 0.5211284151206057
Ni 1.0206406688745722 7.985626098387704 11.234707805522037 0.4057720151347721 -0.7875450962517856 1.5647250472191632
P 8.743595087308197 7.488811685863887 0.5107097860212293 -0.04224553893277241 1.1673492265678862 -0.2946661628951764
P 5.462923398843519 5.73067367546232 12.398973778251762 0.2893082410173727 0.004491974333082587 0.35410106912304173
P 5.971328852571156 3.718356064775554 3.4840782729866815 1.9330715705176258 0.05685069044045692 0.4024570918289263
P 2.978462809703635 3.674091793298876 4.58831134787418 -1.7403619892626092 -0.16229240241573986 1.3980049480493728
P 8.511617002497195 4.958847240633349 4.951379205865718 -2.4259633593900416 0.47656836912204376 1.0368644555810467
P 0.49109752228921155 1.7224860768025876 6.629282789469831 -0.21488611735205573 -0.07549555923515386 -0.4169635129752174
P 4.785342397202509 4.791716082269893 7.746161477546173 1.2900409838728686 1.6776651244540206 0.219975358949505
P 6.343916535385399 7.7475795993470875 9.6073866746733 0.02353510700746269 -0.18909820975467434 0.3374958564661929
Ni 6.132548857439607 4.751781106310684 5.775634519487001 0.01041888134047883 0.8173817199972438 0.012195256514611256
Ni 7.558209922983644 2.234897053947027 1.0499929224577484 -0.8429839939463805 3.1463247587064784 -0.8866348978671117
Ni 4.0065964900507485 7.481697950280696 10.130582963022475 0.37219417917932673 -0.24938003736386732 0.4331758610690217
Ni 5.372563230863542 7.090562751414052 7.367265789147823 0.3357616473839056 -0.16892482013059296 -0.040567637009717224
Ni 3.7102062584702344 8.357011199113762 4.503352623596446 -0.22979748724624938 1.1412882678147762 -1.3561877549032708
Ni 7.332216996719226 5.720840254233541 8.275992318769553 0.46050154546716815 -0.3000307696411994 -0.3377995037495408
Ni 7.417110041513682 5.222684500149825 11.206437875818226 -1.52712446325757 -1.8756508665063119 -0.09908851606374548
Ni 3.8989838944210318 5.474246171735358 0.5013555475014347 0.11987871333621933 -0.8243231843120835 -0.6743543364587031
Ni 1.849978279413157 7.078805198844176 0.6182308003996148 -0.27437321697409517 -0.38561405212965844 -0.39008880007156044
Ni 7.769346335143246 6.889121001011516 5.7425718376302 -2.7028524008074544 -0.10475856986532926 -0.3273443698544879
Ni 5.626742831148741 2.6979929148444093 12.796417907765656 -0.3048736995557975 0.011787736663547441 1.7231160576979676
Ni 8.666241307143519 5.498825099491583 1.140550128887559 -0.19417613849821397 -1.4373130016203761 0.037144727371097315
Ni 5.825289133908185 8.93070760959843 5.127335466630166 2.0775883941174995 0.16955268352257896 0.23198266782302626
Ni 5.778545693203555 8.663623378443855 2.370760152954513 0.5473269278928444 0.7932434321881435 1.496600840747416
Ni 4.732835813106037 6.617226441504197 2.7839645832656537 -0.3497862437977718 -0.7088536557871534 -0.5914953948799426
Ni 2.2318165936749823 8.39274638839577 6.357523289181647 -1.196100844779282 0.760574995420845 0.23457151159612505
Ni 4.303403000046404 7.842232060318742 0.5494292290082268 -0.1374105515723956 -0.5952975422348522 -0.4897781829440985
Ni 2.0309668836850907 3.4367483422482747 11.848318840576729 1.8138713713056696 0.6395837657467373 -0.6800161627301708
Ni 3.879594570906901 0.4607434253202621 9.462638344160412 -1.6082111434272561 0.8985676447489558 0.4028674398934675
Ni 0.47194131468755957 5.62345885698485 3.3746812305507263 1.5469592385953101 1.100236234969473 -0.37853709067821906
Ni 7.0912010449839356 2.5665229407113794 5.4762683597698 0.3041105961375279 0.35806133932237044 -0.5516553800648692
Ni 2.718510815395145 5.914788993163537 11.857458464446939 -0.18238814472435042 0.7345968261895285 -0.5802321632612976
Ni 7.298285680569497 8.539812927149422 7.745782201656822 0.7159905239422507 -0.20875763585681467 -0.20025114104770028
Ni 5.860617295406499 4.27346795668203 1.2855926294804803 1.665409447015119 0.17519471229970474 -0.3439804357492721
P 0.47290893073697665 1.666297741389977 2.2136779555325643 -0.8964351717869852 -0.17035281082637113 0.4638689192775043
P 8.07384937050329 3.6744525679253313 9.598505143420475 -0.34487260854623836 3.6458499937350117 -0.07310160508168057
P 9.294479440643128 7.206177143245927 8.093294197806106 -0.9815338013295418 -0.8152127373703832 -1.938181123830049
P 1.5144116236521348 1.2070501431747886 9.787756411701391 -0.09542649383112599 0.28298564123345454 1.2654748644977305
P 3.3244641777375294 8.107105390557345 8.090748424031732 0.9639016900700754 -0.6983650975510037 1.3723810768336815
P 2.5758105746847515 5.735595011392434 2.300586712919449 -0.6457145612348234 0.35188734930117466 -0.3282311433348154
P 7.660632914371267 8.633753089499614 3.799677440768099 0.45343409709742555 -0.06944061129032558 0.1122538498011099
P 2.8153001722311912 8.377529099664498 12.339143469238236 0.6057958706630148 -1.2781257204925214 -0.24231464587665363
