# total energy = -340887.799136347 ev
CRYSTAL
PRIMVEC
9.14627564745153 0.00000000000000 0.00000000000000
0.00000000000000 9.14627564745153 0.00000000000000
0.00000000000000 0.00000000000000 13.38649892975885
PRIMCOORD
 96 1
Ni 6.5682697637863585 2.242401531544534 11.409888244640042 -0.9532274981856809 -0.3440894505233106 0.45783531148891476
Ni 4.675566932973451 0.6307573470776118 6.168378131897254 0.2912648505231113 0.16208182906683055 -0.12436708812487615
Ni 2.895006587112956 2.0486834146460704 4.774536037200232 1.0225081868593744 -0.7958543874484293 0.603988899361263
Ni 3.354771568239111 4.743505468021694 4.909806709225407 0.15532676973118412 -0.2905169166134932 -0.5817969366452561
Ni 3.9572458873240355 3.086264355878951 2.6107824147868692 -1.1177192222455847 -1.174294033316836 2.658792691484079
Ni 5.71985209421042 4.766810178213258 3.133069506559602 -1.5306358188449378 -1.2333039361921405 -0.8058760333504894
Ni 5.324165919835475 3.1871752144125085 0.8991291945591084 1.9533717155275587 -0.3104779331164524 -2.094420892293806
Ni 5.714958836772238 8.19624279405587 12.926913293548592 0.4069202698066024 0.1975028888786018 -1.4547741345196172
Ni 2.514045916430481 5.434634636355761 11.659024559937913 -0.11951953022458771 0.12104368017859801 0.6426613762307963
Ni 1.1156626959053162 7.895522399083982 11.644406982297351 0.4439359277990032 0.01530603422945106 -0.07174946192916029
Ni 0.493678456369206 0.3430932605038616 4.801242247281999 0.5554055911359208 -0.4203046615333084 0.36755050975972825
Ni 9.103937475700691 2.732294344448949 1.4051002453150725 -1.0584498950613062 0.07645123828020382 0.7881747594159846
Ni 1.6545612533962262 1.3970204254629428 2.7576057475039444 -0.17758275291590706 0.7751030138336908 -0.0014521590654942734
Ni 2.0925580986291643 7.18038425733828 0.6196473661240441 -0.8192198016472472 -0.8437897776771275 -0.6317295598096411
Ni 8.021521491548251 4.289017887908307 4.051906181122541 -0.0899274183897677 0.5243595204633937 0.3466209586959127
Ni 7.5631010129331475 3.922782720918303 12.767721452357401 0.3996077953055892 1.1289225471605717 0.7341533108942065
Ni 8.036320165445405 0.179892606723595 7.155578643323156 0.2548742277092191 0.0035175262349552328 -0.04721548134353804
Ni 6.994852057088736 1.2810913824181824 0.29556281016928904 -0.6478382924460455 -0.5730685556333228 1.3324693282404083
Ni 1.8694347057236862 7.015275690470902 9.469100699192088 -0.11973910243456153 0.17808103270856426 -0.5538315617805816
Ni 0.11300863725034689 5.344360896328006 1.2320609428876068 0.45277538046750404 0.3461951840124038 -0.20024625595169385
Ni 6.418746450516477 2.410619832110943 7.443000353593893 0.9896019230496569 -1.6003199136046373 -0.5899450196736872
Ni 3.7845367654452025 4.885373348626609 1.2561421718763681 -0.4896712250525889 1.5327076137723024 -1.3931036540930137
Ni 5.965703981945581 5.6638494488011055 5.280009530564351 1.7085469016345411 0.6117783134986948 1.461263856009019
Ni 5.22271543104238 3.199376346043412 9.379464454572634 0.12197339108171897 -0.0779627898287238 1.6291496933521363
P 0.4287371558302938 6.099578017688867 12.582037423933139 1.2577073047371694 -0.5839558919697878 0.7876332850902177
P 4.102607645202566 6.481700265370686 13.0131489529054 -0.40495800387390907 0.1592603004576354 -0.3033840023841485
P 2.698224467893388 9.01607835242748 1.8107915305528706 -0.22862532131501917 -0.9041281695558687 -1.110215714779688
P 6.398633790504215 8.039182949703632 6.422896115749567 -1.1720515171395622 0.6628964723307488 -0.8507644092227478
P 4.87627280441915 1.3946972714642552 12.768056206043827 1.0446944931484266 1.4274067982502578 0.6564962252313598
P 4.307301292803492 6.556041193328698 8.234571176523986 -0.2629294939135278 -0.3283506996318151 -0.3956866058743121
P 5.0848170340415235 1.4993306641610644 3.7770139537762226 -0.2792266884116546 0.5256191039021076 2.4200621634142583
P 0.05885902727463092 6.303000332983425 3.8618438305755554 0.8187922271915252 -0.6897716994550379 0.024334977200938735
Ni 0.8169718594858252 8.133663976500664 2.783053430065163 0.1447389669130088 -0.7661020958866613 -0.2677809084685582
Ni 1.9683333836284593 6.699125528586468 4.95331279830241 0.13590105690640464 1.2709700832843465 0.12839266434450147
Ni 6.0944469570854665 6.118666294835567 9.445807879158787 0.42478763700532646 -0.22958999922113363 0.47156525948049755
Ni 8.565980984595075 2.653865031304269 10.339584673245328 1.53054403046208 0.5080368720439703 0.5871106355486856
Ni 2.5804204383536233 5.348641353301966 7.1980941907542615 -0.6587449120562204 1.3499201767270042 -1.3115230650060445
Ni 0.7876077417189453 0.1383639424281524 9.244354756997764 -0.6115831667687531 -0.3162006945328425 0.14811585380504166
Ni 1.3757187496245802 1.215155881723139 11.355512721657366 -0.8276278232052843 1.1589931412937071 1.8111056356350743
Ni 4.298164163493692 7.384748639018132 1.618440781854422 0.4813639907384742 -0.2839495478086207 1.4033682692438154
Ni 5.580837851588147 8.444280641655936 8.401366316609309 0.05088933065069945 -0.49932957407795936 0.3644613293114433
Ni 6.997019724402473 0.8684050256126816 5.0083441092445575 -0.31961974751672045 0.9719582418259649 0.4419006425365292
Ni 0.7556579718440768 7.791254857410587 6.8198993538088075 0.3337608149037929 -0.34556320685535974 0.7196764574342702
Ni 5.4867501146412865 4.63341174880041 7.524176293296864 -0.04709438238464147 1.2706517807129794 -0.7003026808933488
Ni 8.422887503061721 7.20258226818401 9.414296215884459 0.25408772725218176 0.6099857403746463 -0.17103441027442803
Ni 4.919333469875144 0.6094739637904198 10.660257668406734 0.2738183729118897 -0.4605869060921229 -0.47475111340764686
Ni 7.97365903140993 7.637533403647015 5.15345434454449 1.099088751628591 -0.056451912340141484 -1.3546736322515895
Ni 7.410275894176943 6.312256363875835 7.2177595978903994 0.8844708003362574 -0.7085245545825087 0.4644985824417033
Ni 2.0021746032943852 5.79568386508885 2.714045695400988 0.26138194692074984 -0.317621229029453 0.22579967894076597
Ni 3.3320705122361844 5.0674665492560464 9.341929054197772 0.7240555603385724 -1.1724844909119227 1.8129966820102004
Ni 1.2575854541637421 3.5700657492434993 3.815500566811966 0.1972187819792797 0.9690508383711828 0.3677816519339279
Ni 0.7430324530260107 0.3336735112784731 0.5929539608280967 0.6607226046078815 0.8927752064368947 -0.49403258734507816
Ni 1.3134326128881055 3.7474760567732206 8.627518041361109 -0.7389651304605531 -0.3144538870450649 -0.30971045882280857
Ni 5.279788190695185 3.3956462738301987 5.227990088172471 0.6067494928255357 -1.8800155712329103 0.031999949945364245
Ni 4.198469759612991 7.286279836065872 6.125755573041799 0.03604506654901534 0.19817908901002 0.06942647022293849
Ni 8.368586064911288 7.774325101302039 0.46282715419214243 -0.600433835020153 -0.9646511666415902 0.9534990066795127
P 0.5554679503413944 5.812723376504424 8.104641929440676 -0.5231174205261766 0.8382413370550724 0.6670894273661737
P 8.72733043219686 1.9016844734377554 8.277742511914564 -0.08247867542120633 0.4278207674046955 0.2708646896002045
P 2.0190494817494216 3.418859521265907 10.656268977623947 0.010636653778239746 0.7118070819885225 1.4883717679694044
P 4.538958160830135 6.3800302659635415 3.986847808256136 -2.084503118959462 1.2263431886035911 -1.2833484023440416
P 6.93018788870006 4.336294986409165 10.614195195303616 0.596288959613844 -0.220617106298562 -0.11091919015008639
P 6.47538933521677 8.031051910708223 10.559203213346485 0.4221401720801504 0.1322781154418367 0.39740333145510265
P 2.540259142258196 8.955712933563934 5.891357566222217 -1.2482456451036372 -0.3193446394784629 0.45958083342511175
P 7.421105084470039 4.512095549435858 1.861727139287882 -1.2927357570962124 -1.3218488724120847 -1.2410776666002883
Ni 2.969356661346554 2.1852738942382164 0.5085987757316452 0.3885127138336922 -1.0280139471689522 -0.2095482500789101
Ni 1.4808734800297567 1.4433554575785057 7.300045895449436 -0.30892061593166154 1.1307197482703109 -1.331302561625817
Ni 7.482019279868706 0.6504392175098027 9.59814641605385 -0.9641351462371202 -0.6572629281940552 -0.04257232614457184
Ni 2.7360351711633717 1.7909962463034208 9.477132043783616 1.1922634733110626 0.8217456533928945 0.5896022916222878
Ni 6.829368492922357 2.426735569692392 2.826505556116212 -0.17278173198283792 0.35745301631441023 -0.732488521597274
Ni 4.060050024903768 7.173122114523484 10.55868096101056 0.8112349836695577 0.4550490069930292 0.6963251843028395
Ni 7.705993276403625 6.499919646336774 11.752931200628185 -1.6917025763836928 0.2863697272143391 -0.5039853276824159
Ni 7.913595439640704 4.230051849209327 8.606434046881677 -0.001595626621894026 0.21886978459015208 -0.6046982667234618
Ni 3.405542544013586 9.01584054926226 13.015679727359878 -0.7886223884763645 -0.42984062604820167 -0.6607493440807588
Ni 0.11339003694225745 5.135011794454119 10.568601011510468 0.8210997922787793 -0.6921463703348015 -0.24005258931535434
Ni 8.893829232953218 2.380199319513951 5.832925670017423 0.08286408378508309 0.9659356897809686 0.26903149304620766
Ni 4.093708319057986 3.221171920763386 11.676239679844727 -0.9051609816957572 -0.8727645676429228 -0.25935668896060493
Ni 1.1845615898900246 3.5566847480620805 12.909818904479508 0.06837566036092095 0.7975888536410328 -1.3678227680390378
Ni 2.9540549422922044 9.143577434087751 8.16876280905958 1.6088675460643325 -3.169838525557702 -0.8786737340385061
Ni 5.727525819426559 8.35536055041482 3.8355263372061676 0.3078790620410246 -1.2579181351963948 0.24642249739744015
Ni 3.484017588536193 8.900688939642256 3.946688341415825 -0.9433153812782916 -0.28725650069466657 -0.5585667624727219
Ni 3.592620464837059 3.229906613947429 7.622807899954544 -0.06750765593367083 -1.3193986110993792 -1.0254580135163178
Ni 5.391006901813472 5.100274239780824 11.905322785921642 -0.5613119293180269 0.1153466297938207 -0.9439468442147034
Ni 7.764886144897922 9.253012621466889 2.8507084305702586 1.2262421442493527 0.2134928365489549 -0.25196605292348867
Ni 4.973205033073065 0.6251177535516631 1.843119956236974 -0.9403357298246773 0.9423712721974674 -1.3265509058734444
Ni 6.297375373498412 5.935502979962638 0.46347013736579495 0.0793586417349859 0.08624534155249017 1.4523033043816214
Ni 8.246529017224319 9.11944041281792 11.933916787284232 -0.5675501969182548 0.5762909192253624 -0.8542135441136128
Ni 0.3244257120340899 5.1108564806331165 5.978784985287799 -0.3675109147710445 -0.3154730723381986 -0.04337888120626723
Ni 7.2092956344636825 6.517498788011885 2.7501625084325583 1.3967782747311235 1.194221368368382 0.5406626284987914
P 8.815921257516903 2.1126890511925978 3.609093821793897 -0.7571747114900443 -1.4482643584255575 0.4888122194864033
P 1.9279983082969094 3.6286659369190635 1.6996834893691668 0.6295963155167221 1.4477776485971259 0.3294290202976584
P 4.756072450676015 1.2834145364168705 8.341020104924494 -0.4608144487218967 1.544310231008237 0.42563095884222824
P 8.711351888749192 2.067753399241599 12.697843906885057 0.6510735115538916 -1.3489277309067478 -1.1355014859296702
P 6.4387585014973014 8.236083970505808 1.5582153010073345 1.0022952022466094 -1.1258459651177772 -0.1893766602270416
P 1.8957119554804989 3.3770518955651103 6.118005019110743 -0.019117437555741273 0.7202683253819983 0.35818063850905413
P 7.497741727599983 3.9535965233654666 6.4225339232363865 -1.5684634312156729 2.0179267165908086 -1.2070018079625018
P 2.8723604087635417 8.992801081062673 10.616604324292808 -1.6799472356199776 -0.576751918022181 -0.2956719784518714
