# total energy = -340893.9309204711 ev
CRYSTAL
PRIMVEC
8.97735284411177 0.00000000000000 0.00000000000000

0.00000000000000 8.97735284411177 0.00000000000000

0.00000000000000 0.00000000000000 13.13926333209233

PRIMCOORD
 96 1
Ni 6.292998556460023 1.7168917709159812 11.361074144793879 1.1003251951388535 1.3673908227079417 -0.32550088888784584
Ni 4.521946416733361 0.28252536893817815 5.964660858982514 0.16744617870253742 -0.7852565573279251 0.32427704378307376
Ni 2.9118941202440176 1.5490511849248536 4.774296210056865 -1.1294311113658744 0.19831484325693588 0.4983988347335739
Ni 3.5590984081055046 4.479618198775073 4.795450443948043 -0.6672156685313929 -0.44559377511740034 0.6597095899623348
Ni 5.137020759298408 4.427253300503451 2.592612776165517 0.9101833746110132 1.5329369561742892 0.27306221147215554
Ni 7.3222699976803245 6.261757369080415 2.5340122087117467 0.04573426881232124 -1.19895605483989 0.3115490546934441
Ni 4.986614192241532 4.855930869056207 11.347934891389055 -0.3784794979674062 -1.4358706127468948 0.18862358411110094
Ni 5.481059846639978 7.85658407539855 12.244767936972101 -0.39290210115063945 -0.007443600762238793 1.0274524182385272
Ni 1.6928055336345202 6.649965031682808 0.2340440734425381 0.5723221643856016 -0.9189459512949915 0.7273224040153022
Ni 2.6868947296419834 1.480410346216672 0.38491476963376053 0.38938226092283906 1.898219495835447 -0.2644330750422478
Ni 0.3857577430518481 0.1630969528269368 5.06381942542102 -0.2679341462169708 -0.6872265644356809 -1.144842817935254
Ni 8.66003020956885 2.3047018933454346 1.4326005567026396 0.2653442740026075 -0.7207655767333909 0.18413572354307642
Ni 6.6182031578468745 0.9636559703704327 4.85504929302153 1.0475008522489702 -1.397019187097336 -0.9500627273044541
Ni 1.0493448018469687 7.351105254537593 2.453232193688995 -0.7003276205940133 -0.10077078886217485 0.05193011321038798
Ni 7.579982861503993 3.9478447118696147 3.6722794844760944 0.42795832142382423 -0.3475141599341434 0.22626761971612
Ni 7.855776113655973 3.7235635094832036 12.593931297232142 -2.009558547131771 -0.3239967935384936 -0.9576911903839893
Ni 7.786856977014238 8.893351606119419 6.837948103916356 -0.1630130826318483 -0.5937883046791774 0.45024695761869554
Ni 6.897057687267949 0.6460049135413966 0.4186408882394231 0.5173756329463928 0.8206639902929416 -0.9228146902217784
Ni 1.91985176065108 6.4880854078813535 9.120370003342623 -0.9525785517477723 -0.6968067519249483 -0.1182370639677383
Ni 0.1325344533110941 4.641883848742426 1.3673899644593281 -0.033606375200535665 1.2859308183592368 0.39968184307663424
Ni 6.203979127133534 2.003852849820902 6.9191491567805175 0.6552628670448908 -0.3302949678423796 0.9696815299766461
Ni 3.2821650321612226 4.235945914566837 0.18085684966402749 0.6358978322547177 -0.3924745266949176 0.9419902347089647
Ni 5.907717510836295 5.498565684395792 4.788473245433265 0.4413146881260723 0.9171106978584658 0.09375167723186435
Ni 5.286206406388724 2.785448107530869 9.225129425149762 0.5567271381608219 -0.13571130949310178 0.09558641644775796
P 0.12907009290598198 5.461201942477998 12.318650651919063 0.36478811652324267 -0.30038198233303104 1.2298128923197464
P 3.8481512101884277 6.16754902989605 12.690990843632532 -0.30544088491317717 0.4314177407273344 -2.524988626316019
P 2.53827465577147 8.670794055450502 1.4571572072653338 -0.24235526930660195 -1.7822735418947304 -0.0403902308915885
P 6.368130021166898 7.647286074660576 5.660617673368997 -0.6461519058825581 0.5017628661098004 -0.11510314632444693
P 4.699635158631222 1.0997795692891035 12.495531432074346 -1.115954159925362 -0.400049253718382 -0.9112802072196177
P 4.0335514980515415 6.13801353952855 8.128880648675715 -0.0854405862630077 -0.9572499890815127 0.4339317653984398
P 4.687488800434495 1.1255894582880601 3.582971882128087 -0.6162625745222935 -0.7689020272293016 1.4466383927863602
P 0.2730497731683003 5.509643737621779 3.446192038727391 0.4033474648536795 -0.11195303073123947 0.10785777761594327
Ni 1.3668647893266537 0.7436013056329639 2.9283873126158033 0.2902297243903776 1.0788950502895356 -0.8771177024052957
Ni 1.8983779330039485 6.538475288560012 4.578560296035664 0.08305537386028278 -0.08865523654556345 1.0193315889036056
Ni 6.2969396142932546 5.568346646896275 9.117847367235248 -2.0674754740532135 -0.3243230665296608 0.8278106286400518
Ni 8.364540645603405 2.313562540455685 10.044152163981659 0.5045126609407957 0.43792571704918126 0.9910574245492607
Ni 2.2050622557804194 5.17353165271015 6.941511742344483 0.4607589128936129 -0.2842408537967943 0.2730580977070975
Ni 0.30054650673870176 8.861419162582274 9.026831374669325 0.5575642893501366 1.3071226219455037 0.048092741742168786
Ni 1.5321558071523191 1.2078220089769094 11.256117221227443 -1.0059068308572676 0.5936880316558871 0.5431684256397807
Ni 3.9592369724399368 6.716711648972284 1.5080462287538505 0.5533728769766082 1.7788220930110206 1.733854784271711
Ni 5.841294078243849 7.724769605773618 7.855702499363872 -1.585527071566179 0.22875593335561245 0.08137438661343405
Ni 5.289177910130866 2.9154042651478758 4.860529069106735 -0.811647645726944 0.36302871062997477 -0.7285339078249001
Ni 0.7867500536276021 7.429746864148327 6.948791477645093 -1.0225722073280905 -0.925525147174406 0.8382796464921757
Ni 5.349092762019226 4.4042892323089005 7.273935033033617 -1.1024622960865142 0.9472627959618137 -0.4823096424811951
Ni 7.992007440806987 7.02153765974083 9.157488663531835 0.9990625542419246 0.6705334200507161 -0.2925023224746382
Ni 4.408894614241585 0.2132641951587521 10.288752706458586 0.03470963556704344 0.13883699960627702 0.06582126937018341
Ni 8.286527450681342 6.950113841697108 4.804424205702254 -0.21122383800912012 1.213852255225432 -0.9563285057085078
Ni 7.419656319718823 6.125714566336002 6.860101517162522 -1.0630547408231692 -0.4249341898855198 0.37871192569318646
Ni 2.3508903729626978 5.1649493035334535 2.4602614608494067 -0.11402842520302942 -0.2648025425665246 0.5378189884024093
Ni 2.2840719368516598 5.031168793668253 11.16855750944921 0.06130358400548797 1.6536913872472423 1.106288868921456
Ni 0.9499116433939451 2.991226986012289 3.852498044363487 1.0164318987583074 1.4317820444998182 -1.2718853960097645
Ni 3.5665047240791186 2.928080287153624 2.8139969868371577 -0.33494892167462315 -1.4576565982737348 0.1472491349293722
Ni 0.8628860841010806 3.300586559891956 8.26143036348639 1.5411837695641135 -0.02159109590721443 -0.6439950074405554
Ni 3.7690068688267577 2.713359965387696 6.966450828131997 -1.2266278097235455 -0.3952770291407192 0.07040091832106585
Ni 3.9136409981005627 6.766877095833561 6.036348611195477 0.5903453404358995 0.6278042566133059 -0.3186437567566964
Ni 0.669425031252867 7.182654208563186 11.326110946986805 -0.20861622518294395 1.1007568833596333 -1.1893828093291583
P 0.19509852197983432 5.473473983612458 7.900099997118425 1.1704726026882164 0.2827676116853775 0.7087459265646955
P 8.25700991501923 1.6891876604983185 7.931161637444125 0.7260067705276722 -0.036838766094904295 0.21199208363371233
P 1.5421655554075666 3.2970853923407932 10.364816020375233 0.8780661823614944 -1.7641056127364523 -1.346810684563745
P 4.09979538359008 6.216744922666236 3.746726874907589 -0.49728220463062744 0.24548918694989333 -0.855095432497934
P 6.734199532022708 3.8977421064772053 10.520962706745477 0.5395133453856966 -0.09505368387273952 -0.18697602120534898
P 6.217732431462718 7.765903835823433 10.189353661945805 -0.5325466842598763 -0.7373635903013881 -0.4204550710682436
P 2.21779214190234 8.411384471967425 5.862226571523456 2.71385595100681 0.6250907143368847 -1.098862751660714
P 6.9850357436817845 3.837252704016347 1.5802726221285306 -0.6065165508791232 0.6012614731277709 -0.8741154252438624
Ni 5.252011669972369 2.8282431478293124 0.6013039812657428 -0.1977666840629497 0.5190589341860867 -0.702546482622203
Ni 1.3647102246797844 1.0617515032718583 7.083744429772297 0.5127682160813686 0.7339679343562778 -0.09290809828464644
Ni 6.704278015489309 0.7151511772063228 9.156148344774428 -0.3507588921236862 -0.4742140099572543 -0.35086996378025376
Ni 2.6206598214561394 1.5164005531720866 9.122025427179635 0.2497525902119376 0.9131257450687886 -0.15293692934276887
Ni 6.2949017552314235 1.8750457933488915 2.5619856397102683 2.0820603138459237 0.7627612044388864 -0.15771121080296066
Ni 4.007696722289108 6.697957959191824 10.32083866272682 0.4090874526612503 0.9025369138093489 -0.22671602010744826
Ni 8.068772783704405 7.250478108176097 0.39180758103320357 0.614000260850678 -0.5072974227747844 -0.8327003526321852
Ni 7.596752556338793 3.8731621147975037 8.009957657521218 -0.2978890407078483 -0.501878051531426 0.17746371083953952
Ni 2.9234749052209406 8.408044896764777 12.220946531595152 0.845644571497679 -0.6101986277164007 0.21277138500189807
Ni -0.11600714699906661 4.9587305347699635 10.103160303247794 0.12198598948720926 -1.0642639306399218 -0.03164230949562938
Ni 8.61252205910538 2.2974392150149456 5.798462230799355 -0.28480032584469017 1.129640656273519 0.2124937058604792
Ni 3.712126362149405 2.6289908047573682 11.216095285176575 -0.14899337131398857 0.2583202772762906 0.5559974590836488
Ni 1.2504734116322287 3.2833859521277815 12.597820286419742 -0.6699754906647171 -0.07509729535547068 0.09263016203291144
Ni 3.0859829437110666 8.331530919742827 8.074129570057686 0.47973982487149 -0.40282964467699656 -0.5609951694085564
Ni 5.738171227833061 7.913365831196254 3.524514952317442 -0.7096221585220617 0.13098356500012925 0.5655701903737486
Ni 3.26377941384127 8.351649167132969 3.6047697922075193 0.43130975439456043 -0.5455754924193765 0.05794006684989376
Ni 3.4268709802565898 4.093798511989627 9.210295247556065 -0.797435101671988 1.2209562132600649 -0.7828042391326906
Ni 7.101974739890622 6.105874616879414 11.452470777114081 0.476554999385605 -0.18386498638019302 0.12892128315446183
Ni 0.6560873783534757 9.096123071447916 0.3575347416483978 -0.36584586836379573 -0.7018036909189075 0.169984628853675
Ni 4.666921685409587 0.44362575852568253 1.353383498784138 -0.4567626472500263 -1.3990236191218743 1.5032319729106884
Ni 5.93520616478927 5.558292011877551 0.49589190591765653 0.14456696011151876 0.18804997099581808 -0.3114307839480249
Ni 7.842148492264524 8.730708907338864 11.228446327014753 0.4999358402033906 0.4419615776814518 0.44821552901096356
Ni 0.11441097368984418 4.889326621082684 5.638346656802524 0.16220884156299806 -1.6709573734165415 -0.23360760502095892
Ni 7.976817760046559 8.733294384915105 2.4832946546597103 0.32764107515930024 -0.2648498508646922 0.29160809279514294
P 8.429410996179566 1.5184204575285267 3.541740696669163 -1.7488548572249685 0.2132917762817423 1.20959733660382
P 1.8759884153818969 3.1554676535726056 1.659777853068551 -0.8311152675332525 -0.0858643040639876 -0.786532081606239
P 4.676383815150422 0.9410420189309993 8.128920149027575 -0.5352923653258136 0.13634122976761678 -0.10017403581844038
P 8.579521310597496 1.6012275587898745 12.304446684484574 -0.6966000352307811 -0.09671641628714311 -0.05360338714775285
P 6.272503260256677 7.84758876799787 1.4132723163496819 -0.4119706877463163 -1.4780541880934803 -0.5600582594165838
P 1.9269887560438352 3.3186669482202684 5.754536941796574 -0.28968079386544304 -0.4921662235603008 1.3611217018697785
P 6.936881223824253 3.857550498460396 5.892157963144819 0.5913604119639752 0.7577143860435983 -0.49378293322811734
P 2.0559304728062746 8.43936688031864 10.179643757270581 1.7204775916338562 -0.37555743922460477 -0.9631326731145347
