# total energy = -340869.25270773214 ev
CRYSTAL
PRIMVEC
9.26996835071039 0.00000000000000 0.00000000000000

0.00000000000000 9.26996835071039 0.00000000000000

0.00000000000000 0.00000000000000 13.56753570402859

PRIMCOORD
 96 1
Ni 4.447211581900319 5.192887816825741 9.220253272967641 0.25510022767709617 -1.2444404124249342 -1.2404878555350893
Ni 6.4064564222338305 1.587435689331227 2.9335722547147203 -0.8580383171763416 -0.287427221944576 1.0482174187000204
Ni 2.6217787312628356 4.332217627471554 10.371688990108561 -1.7337488548214655 0.5401712906846697 -0.011854328235424746
Ni 2.6977553899083944 1.0516778823009587 6.612463850582552 -0.2330735868943599 0.31693191627191225 -0.8457571858161436
Ni 7.129736414200776 3.142973418389227 1.545817240495807 0.29560718665220703 1.1340488126435437 -1.2084040876266673
Ni 2.2777794845964072 3.4058697140441865 1.1049505350467248 -0.2025396799715609 -0.3550618903744143 -1.0578510851350427
Ni 3.894285793926716 5.92301831522742 1.9147591903610646 0.5285679021177864 -0.9959831439856525 0.43135706269272805
Ni 5.52634710974888 4.3153555554759135 11.567883821281228 0.06061041459320529 1.1791521327400853 -0.8368742815042167
Ni 7.321077825999578 3.556386186277952 3.9928709778005147 0.4714238488066268 1.09096123742545 -0.7968123804863244
Ni 7.554384383441187 1.6417855123716016 7.750617557412666 -0.20068540037164148 -0.8802631900128131 0.007578326567890174
Ni 9.307418783124326 3.5662772422534053 10.190995990679959 0.054880968308595804 1.8638477032237963 1.1952423534337284
Ni 8.542887433059192 6.140501037101926 12.370661205782651 -0.4874161104698251 0.18662840805794312 1.235558279443956
Ni 6.563193043070716 8.76018475557146 7.260218631350991 0.6483656257044254 -0.5128278656747104 -0.4565147929052783
Ni 6.163314428625441 5.3048041418413385 3.144764376228456 -1.5824044667767974 0.4671141656876794 0.22436320360455556
Ni 8.333719872581106 3.7901284322208224 7.653202243514595 1.0961116712781382 0.15056097291142456 -0.19305847995400297
Ni 2.088783374729929 3.092285232753073 8.31695328125702 -1.6101674958226786 0.559538896578004 0.01832039557574264
Ni 3.753373008656933 8.547772706254191 5.27081116877481 -0.3718445091493919 -0.9231101099750102 1.2883965062909102
Ni 0.31900833963341674 1.411343375076586 6.243304983463475 1.0571951967185986 1.2275675479289956 0.5277083823309685
Ni 0.24327826213963571 3.453406110522277 2.7709111972574862 -0.11706412670555968 -1.123978315781419 -1.2006010466424806
Ni 1.8926308494810238 6.756277208874565 12.306731797695388 0.9808596580806527 0.38314425043292727 -0.12593520394294438
Ni 5.011965849184773 8.899957334763473 11.390217466441179 -0.444697488555376 1.2809691034785875 0.2078119841140937
Ni 3.889011182071015 8.661033176646022 0.1737581362840514 -0.24252804743904038 -0.7963603805505705 -0.20069877010808015
Ni 0.1743792241475522 7.984362584345971 2.8538764848626457 0.7421460992916961 0.3376334104853218 0.9819094395014057
Ni 5.386027602438261 2.956396770199968 4.9352179291923 -1.3566610949952636 0.6370676841931028 -0.4464286123138699
P 6.452861882602262 5.488330970521765 9.777783454102451 0.29674130025665024 -1.1837456656480387 1.050217736959501
P 0.6290730140324221 5.797095068394663 10.761593118865374 0.901715189239002 -1.2300280936543462 -0.39605581628827274
P 6.702567013633915 0.9784636741527617 10.880051260377575 -0.006452697603879209 0.7896323177981175 0.4935075680795436
P 4.035448868335521 8.750785007905941 7.741798109750955 -0.7788208290049102 -0.18407915927352814 -1.3295490692698197
P 8.571197915673094 4.391026305173778 0.6075472210796582 1.285397057342954 0.1987316190793803 -1.0510708289884156
P 0.15148240291103066 2.04139529774163 8.887753421744089 0.2400104232235092 -0.7797461690326571 -0.9409921324617537
P 4.438303142544734 2.7743345964812303 9.084577092684299 -0.1425743551615222 0.48340570375885134 -2.222228373558799
P 2.829101568086643 8.966580595584073 11.07306219343334 0.4705573870412734 -0.15540287438475817 -0.5709507379593715
Ni 1.3163818217377492 5.455793382448813 2.0892376031674145 -0.19591626111777224 0.4067510912185898 -0.26470509775671186
Ni 7.426514443304921 0.5015868505759905 1.1414723554141935 0.7921216598788745 -0.2545762368528261 -0.4605527104200778
Ni 0.7893516896848841 8.006035769791714 10.35436341970732 0.6401627781786589 0.5010930937362854 0.3510553403181825
Ni 1.8032590869136944 7.756145239397823 6.921220532480961 0.5241972838539166 -0.08103011590013787 -0.17359342925085586
Ni 7.211034034542596 8.791498707853634 3.4920526075810048 -0.1233227060207618 -0.8429258870149353 -0.36573479670722825
Ni 4.706270110756931 0.17262720017439326 3.4290585392762347 1.6104230634769103 -0.2783424860344884 0.6005083970118303
Ni 1.7865638743440688 4.760666283637865 6.280194821564987 -1.7789141385041942 -0.5910351674140724 -2.9820353804653674
Ni 9.230663447157362 6.452138825089531 6.13525330815375 -0.40590211295473316 0.45432884099755305 0.1232903101209296
Ni 4.203902728865914 6.693621494405881 10.94897347328994 -1.6859954986965866 -0.1158035148255812 0.5589362299969987
Ni 5.7453222964894115 7.6877699546040645 1.6430554980029393 0.08708429251401777 0.14778006773217775 -0.2717002981276224
Ni 6.533037836802535 5.396669525830783 0.21928758466590387 -0.06147404814508122 0.25371003219778887 -0.11310925582286974
Ni 3.903157153409854 1.4159134693557782 1.7082205928395287 1.3269450559880696 1.3849702263526018 0.5862739985800032
Ni 4.776527199077415 3.6700359953304837 0.5096823137281582 0.1789752623880595 -0.6278657059788605 0.09402138595348325
Ni 0.5332558426368523 2.1214878222288958 0.060324317488527894 -0.5281454698683872 -0.6451090664403406 0.2820921828849077
Ni 6.223096452979418 6.973352052152146 11.6988925726202 2.2297858741910823 -0.4831822748941355 0.9586543256282072
Ni 7.08687208165111 6.0282324532980756 7.639906328251623 0.6948516850811065 0.07391201679811786 0.7936093001679945
Ni 3.074718643180924 3.991258930345846 3.133788733983905 -0.756046254312556 -1.4163492548845156 0.9345168091500551
Ni 6.686715368162477 3.1425933496966367 9.665295172054346 -0.05987405064781301 -0.44948179731789684 0.9220269042131605
Ni 2.738830618612454 1.047571286427364 9.03407894139444 0.6284912553780015 -1.924841983518982 0.8393430547596835
Ni 4.314613958026957 6.603230035346236 7.03022237952216 0.20250779829236087 0.14978192865355494 -0.45862695415227467
Ni 7.920705713321196 6.066035383258616 1.9809958935113956 1.9295381034430705 0.9397420621047363 -0.07240200791149466
Ni 3.419190658221062 1.68000559089718 13.011931643856782 -1.0558456246692396 0.1433539136400241 1.4294878491490026
Ni 7.747691028479723 9.009926966475561 9.489365082241664 -0.274898750460262 0.5809312462108512 0.3259063518563806
Ni 2.7889904160662264 8.38492717643153 2.8722467806701015 0.5922821524472961 -2.6664437802714334 2.042938408143798
P 5.089008554163207 3.2089477814419896 2.6844585476486107 -0.5614913923186846 1.0707451674888915 0.08760031291848785
P 3.5701428189560884 3.8769787634617012 12.15248230930294 -1.3078985808795798 -0.3245315829960411 2.3847349488678735
P 6.736986405233592 0.8293859009699713 5.285355748742463 -2.594130218308687 0.012811549942371483 0.780187884555766
P 1.4360200301906023 8.68092652821427 4.918163968856741 -0.04274356161511348 -0.033036618739994715 0.09659891687267236
P 2.6652456117397785 2.788489837788181 5.069672327678486 0.9668324905636253 1.5642887310126932 1.5879390234417814
P 9.415784710353044 1.2897213934477754 2.322545087605835 -1.601778757538351 -0.6464067022058415 -2.7498408537418517
P 2.6351182153759347 5.492279976937456 7.96745416250977 0.672668464115848 0.3375632193690186 1.2826894286038037
P 2.362460643299089 6.9909093717561825 1.0175477137063738 0.29365186269804905 0.8220593279785713 -1.1045364050067235
Ni 8.381339698772205 8.767007452101858 5.656359339515819 1.6053623611245513 -1.2675446025425654 0.14835676617125418
Ni 1.9309250877514978 0.36566316214406014 1.5830463594302175 -2.5781032467528116 2.1594744302600293 -4.038701701263689
Ni 4.0776086833086795 2.0083664013587454 10.992281837312168 2.0120239779531284 0.0631817748648073 -1.8764905887987877
Ni 1.6407287360068394 1.4395148081688083 3.7618429785208236 1.2456673428534997 -0.6192831065161722 1.5755622470439834
Ni 8.390044198829328 1.5641958792745632 4.23156524070879 1.3669930730488908 -0.37979795966851365 -0.709666638606752
Ni 3.757665003892767 3.7869395631903116 6.9362397348159455 0.9873105559123191 -0.34787411437672344 -1.2244197463286333
Ni 5.121268043192799 1.6053174578191824 6.723880524316915 -0.0897978347904389 -2.151294208442082 0.3377028302706765
Ni 8.090939407729083 6.763563403810559 9.988474070341331 0.04141404417041255 -0.5161227343758983 -0.35607516213027707
Ni 2.280949813690695 6.632384085058326 4.4003046162570305 -1.0222312790489039 -0.3717360085959856 0.1659120014461981
Ni 6.182948221086555 7.547552416942678 5.383530273028902 -1.0661760600609704 -1.6868727590952175 -1.4289618014422036
Ni 2.943502244556243 7.396739305729331 9.168967174388266 -0.5481851621280818 0.5944403364408795 -0.5623449985682315
Ni 5.983291647891332 3.5706433972341345 7.427424754173515 0.8982071760857433 0.7239025797004759 0.5850383264006892
Ni 8.191277542572852 8.842511342373706 12.111372781716865 -0.5279984027675617 -0.13287281160304212 -0.24550101402443522
Ni 5.445299778546083 0.5675816075585994 8.868229941903508 -0.24148160845239702 2.0692845022374944 2.6514917869472914
Ni 7.501072796829352 3.530699104639733 12.25389946843494 1.5560843408250298 -0.6040058686421275 0.436121573960907
Ni 5.721924896974843 7.428229387405632 9.046669412084094 -0.7344728990171544 0.2671594728344754 0.9203574869305375
Ni -0.04751971053548854 5.097713054220329 4.294206123228495 0.7218850350498148 -0.13139365595435437 -0.24887301582046173
Ni 1.0238587079969907 4.351035662738816 12.64863325057808 0.22853893224879998 -0.36591863058326013 -0.313854305787853
Ni 0.5673099974929193 7.927380090361802 0.4373441175665405 -1.4565741638428333 0.6590416173610327 -0.9006152713066038
Ni 4.18949719841994 5.243149583928745 4.5980515760211915 1.0871665462697082 0.9526510568569205 1.669638397494802
Ni 4.320454037937487 5.859417064011317 13.126332320326382 -1.0582200384386873 0.5141586686709919 -0.048114853229355846
Ni 0.4503795467255674 0.019261139743013946 8.248274868506 1.4357945080933208 1.2199465410486279 -0.3081071188914306
Ni 0.5415116762373567 5.546027252050554 8.270484785105428 -0.18586427619840895 0.6775787569332717 1.811363003061519
Ni 1.7531919891410412 1.9271522107299333 11.130507258826297 -1.1328671336306169 0.6274934102411065 0.26073505736537034
P 8.652347216525124 7.556340346712809 7.946614347197291 -0.3860524252186577 -0.3824857909133219 -0.6646332525161973
P 4.620717575051725 7.241309750396232 3.44402397579617 0.06316711957678799 -0.25319066935920914 2.011622114529019
P 5.483269567932639 1.0668250101958885 0.15213778965654567 -0.7473199301831517 -0.3997700319150663 0.2461381333878019
P 5.94330100545637 5.25000936033159 6.117601434874971 -1.7487864658808783 -0.46603790190436517 -1.9840727441558412
P 7.469564175216826 7.664752623782088 0.3566203082508509 0.5460670873438144 -0.9764242480171184 -0.9472741088157234
P 0.9587835318510874 0.2994709548406666 12.292688723002591 -0.8658259315415605 -0.32573280239299385 0.929715788216986
P 7.9577948557371165 6.826107878661899 4.236652599208629 0.1799034306292837 0.014050564555795158 -0.4066251071636868
P 8.652560425791698 3.2903381014649282 5.571359293910086 1.0616558035931136 1.19847988653442 0.8909371247868914
