# total energy = -340865.19582251273 ev
CRYSTAL
PRIMVEC
9.32698979392896 0.00000000000000 0.00000000000000
0.00000000000000 9.32698979392896 0.00000000000000
0.00000000000000 0.00000000000000 13.65099234999427
PRIMCOORD
 96 1
Ni 2.3923635059331896 8.147731671704479 12.723680550221955 0.10831054888264573 -1.1114781264318794 -0.47689438500289477
Ni 1.6617617564263354 9.306619456747324 3.6376621188430778 0.15326860165057474 0.07528344322434777 -1.9863905936557402
Ni 1.1237716691911714 1.9204364860492622 10.190683762370274 -2.4527246866442853 2.1834779922634784 -1.1133802285505985
Ni 6.280197870677977 4.347841491917309 3.0741216762920907 -0.4701393256672484 -0.20092142764184753 0.1534076983316003
Ni 7.63022365363539 4.387537159663585 7.967401789340752 0.4079466541885878 0.06652857984985318 -0.5832737783010986
Ni 3.378412846660666 4.671245529378382 12.700419038154472 0.5023732460002897 -1.4027306356598166 -1.4027206083574875
Ni 0.7975424865796426 1.085764186562866 7.847532251674318 -0.10758935444590503 -0.23242849711119323 0.01061814183547849
Ni 5.732330501454254 1.5004141633006773 9.627498678123123 -0.8017293581719677 0.25645648459467446 1.5458667768620797
Ni 2.243551386832671 3.191014971576515 0.3278959156534133 0.057943923504635696 -1.5856160317355594 0.8485149510669387
Ni 7.358239309850355 6.678674847445854 3.048743870283905 -0.3332314247628842 -0.557557090261285 -0.4598217457913242
Ni 9.394423736860912 8.259711508866548 11.423654893123146 -0.15888646205798443 -0.32877313188121443 0.24115713523344276
Ni 5.401931221791654 8.206230550488462 13.965783736494185 0.1880710540417406 -1.6964547463566977 -1.4393907100850114
Ni 3.7589353684446194 0.5956234213840783 13.524515464131117 -1.1476142100328044 0.8255508860715977 -1.500423556927616
Ni 2.707373252752427 2.035270382029556 6.678570385162311 0.24298724646364603 0.025921347851452132 -0.6180263512909356
Ni 5.414112270211916 1.613252083506135 3.8407880964931462 0.23730870802162998 -2.1479000951588687 -1.7466848461568434
Ni 4.051411108385333 8.594960823122209 9.059562425372695 0.7624426447572031 2.2442197902282253 0.19436717146309754
Ni 3.7475471141405303 3.071881333389681 9.517089506010036 0.8332999338893972 -0.08899205105969189 -0.6721840682802617
Ni 2.594749853307816 1.229465115361468 1.765837902599639 0.44315019867291416 -1.1622895526567918 0.13636848346112643
Ni 8.004422476469161 1.971427138203605 8.994242719092743 1.2355469665900465 -0.8672307823088871 0.018573649237129303
Ni 3.899399831851314 5.356079740908034 10.093571146633852 -0.4819777130630732 -0.30986112546805994 0.2662732135747801
Ni 8.453339813004861 1.542590810281094 11.283077573142267 0.4560291115181114 -2.6042279688643215 -0.5702555116645598
Ni 4.584411256183405 8.646427151746256 11.463461552045686 0.6792618010626496 -0.3707882999707356 0.2578554218247301
Ni 0.6288275043673341 1.5808128136702462 5.032820271785794 0.9557641485646057 1.5079512327632287 -0.6918928595630988
Ni 8.384348070918586 6.346661998582101 9.942359193108727 -0.8662115970157535 -0.8539548911355874 0.1524255369239891
P 8.338627167889394 1.179108698500064 3.5675091665513476 -0.5301522158857709 -0.27802006969806314 -0.11330568810439196
P 8.88637328624829 6.33759616468892 7.8801720517866505 -0.6583548757066533 0.3100295327251241 -1.5916041309981945
P 0.47898382021682967 3.244850355559479 8.486521511213073 0.013017495305590484 -0.32715307977928815 -0.6996704466259885
P 0.001385057955902669 5.243586919317852 2.6741747659629325 -1.8123197105478337 -0.6147813619910767 -1.146198046411568
P 6.752227487447526 4.355685490172624 5.798095105138225 0.32192731260397456 -0.18400459728185084 -0.12214154122846706
P 3.623600749319045 6.794124324739882 8.449322678583263 -0.5856507631737076 -3.7232569110602647 -2.2388580116956796
P 4.137405952516125 1.3280234144862058 8.255287717698302 -1.0507499553138873 0.4331066983939831 -1.2008262752794094
P 3.175961210358825 1.5893003742081009 4.301291419512498 -0.20728799328982364 -0.044227345249491574 -0.3113647065967799
Ni 3.054728999511533 6.095131742994336 6.321528559701488 -0.17332886273555953 -0.16918912953557314 -0.06051476955560547
Ni 5.947886558146958 5.280960166653219 12.430115417895724 -0.602857099749665 -0.39795688996572753 0.18498213070377173
Ni 8.354026027722359 2.4427385767737984 6.47190761305515 -0.5952016400869362 -0.39301985767542635 0.7687955835584244
Ni 5.792620162241828 7.425664117683489 6.99610588076578 -0.3699742887098725 0.5038416030157 0.32752871795115207
Ni 5.406324233894214 6.099860526722569 4.7476102567450695 1.1826930560138083 0.10268703204828121 0.5526359988105837
Ni 5.11352204931743 0.6568597716162599 6.293189434494655 -0.21765185302265097 0.2212645100745738 0.23689013242697268
Ni 6.665402541242154 8.118202422624426 9.295452252096803 -0.8299821823700737 -0.23840271241675717 -0.5787473511856549
Ni 5.590252468846407 5.373502557484641 8.612807085026748 0.5684608816579823 0.606712211829697 -0.9167620562697953
Ni 3.4567129243697763 6.347128348062203 0.4216685364133449 -0.08566632912056858 2.595037046393673 1.7221161556785436
Ni 0.40595628972975134 0.44248171371029305 1.183015774444358 0.6816855800127938 0.4002577701847623 1.4186951294088728
Ni 2.565351182082192 9.16331958850161 5.752623232731409 1.0728971808348877 0.21724279050969034 0.5291322592616887
Ni 4.050571679321148 8.510728780026202 2.5316313165739435 -0.16925237867334075 2.5477976537907345 -1.9293311296385869
Ni 1.6754817581309336 2.9562732972724177 2.9059961598226316 0.7177859252797768 1.1834412470337423 1.827510559355659
Ni 3.0422121794655976 0.9897801365682912 10.401796441216566 3.4881454678002703 -1.1473126196319854 1.038532587312089
Ni 5.030325302067249 2.7201978634552297 11.62854273910904 -2.016530093353598 -0.051084991601273305 1.0534982074829855
Ni 6.099422158211273 1.041330408098756 12.79390065683882 0.7138449383541577 -0.7038124938188202 0.3363213765421176
Ni 1.214038274559697 5.40374065777445 8.699203922409389 1.113589002127295 -1.59341881560943 -0.7155896889594063
Ni 8.656089912973968 3.9342268110253245 10.242871999989518 -0.2048161347105634 0.17974787888802593 0.06614754236135059
Ni 9.462230951267728 3.0863941292104524 1.2128444198906363 -1.4458277239596067 -0.011510314632444693 1.0447549140727166
Ni 4.257481616652764 3.000128802381201 2.0744185554861914 1.58691238194948 -0.6587006890818463 -0.31305469270469316
Ni 3.9380322227829563 3.9975104354751534 7.323825516315715 0.14842490040502826 0.5328577877423919 -0.2941426862915386
Ni 3.3162391339734794 7.306707692299095 4.129342770005162 -1.5652919754662267 -1.671356408627173 1.1462952341110644
Ni 0.2746807764789845 7.430812615943814 3.01686888331894 0.730623186253761 0.7351748101801855 -2.1201836030802066
Ni 7.897068826149703 8.96393653177884 0.14779267913701633 -1.3213284811322406 0.017771207940491973 -0.8710054188599708
P 5.933728187931065 3.8836652003926755 10.206942570644546 1.0497968473719985 0.928824129640652 -1.3744058205731942
P 2.089656058399041 8.117344339581038 1.383978823205713 0.5789800360217512 1.0818045106268466 0.5147955309240424
P 1.3868860458646683 9.181087503693492 9.907753263588287 -0.8022641476295151 -1.140406379430455 -0.7017890356308882
P 3.8875452280671237 6.525637602055611 11.805965398813813 1.1156880507481688 2.54600148112226 0.925891015154257
P 5.309556716773068 0.7427249705915836 1.2226834612218263 -0.3763444539022744 1.8144015327775267 1.5242008618528717
P 1.1836416154466545 7.607531087933632 4.9758687405767885 0.9132216472167047 -0.5158054602457955 1.1810244100621339
P 3.059271243447726 4.675731811376961 1.7281885763720515 -0.35409541269608696 0.7510500866495452 -0.005477735285119598
P 4.8547447228088805 8.27441084447936 5.167869485029546 0.2240785824846012 -1.098671204475198 -0.8999293009831727
Ni 5.258566064618725 6.723034009993147 2.1223331664697818 0.3998929306461758 -2.0901268929041423 0.5697569747615864
Ni 5.025111514879709 3.1234595858889525 5.2537887805445616 -0.4012152490020252 1.6405617918438196 1.53172750924722
Ni 6.282641541953711 2.1958718159870516 7.588709222916719 -1.2975105527770363 1.1365175858990104 -2.0283522827995064
Ni 1.0204939133278028 5.402789304835041 0.5777771594795384 0.91558757634572 -1.8209249357183412 0.07872974990173538
Ni 7.014101374503952 8.780717148036402 4.624027644518063 -0.12719118783723257 0.10093559657481328 0.9797219449317837
Ni 0.32921941547794253 7.470498956700486 0.3446490543765942 -0.7297037597632853 0.604474837858746 -0.5196070933800728
Ni 7.880923807148575 5.013518066804377 1.0962924924256467 -0.6692969765404538 -0.4765002348882697 -0.4375246249560207
Ni 6.916736930048276 2.161576475220357 1.8061761999294936 0.5427434222872202 -0.1834798351266324 -0.0006589737402375748
Ni 7.252667114544884 3.059187300541307 12.15538893916769 -1.5455425607534414 2.9047631889457652 1.2347075014078863
Ni 0.4791321193515021 4.325288831059582 6.365048293184599 0.2728727211691688 0.4494015788992647 1.1255978536627131
Ni 8.983616479839139 8.25284684451945 8.944976627315816 0.46044163876351024 1.6216333303704331 -1.2034696264395275
Ni 8.786537189548072 6.30382313533994 4.8272776711298375 -2.122044053327713 0.04532417785809613 2.335761090072332
Ni 1.9835522246862545 6.972456365930852 10.173798180394742 0.7184592971977175 1.5978904782275385 0.6740108370763553
Ni 8.46413113997442 3.6671018288229513 4.432845809752365 -0.22587115560864968 0.3304104103743213 -1.1065356948249396
Ni 6.915384516555981 7.489068992998145 11.856937396988952 -0.09113737953746885 1.190820055996317 -1.607830877269702
Ni 1.314219469875189 0.9587026072143 12.398281469685008 0.03814771471431495 0.424574749663572 0.8099232068366696
Ni 6.666316586223153 8.939220009333438 2.3587415738157627 0.8969468213160812 -0.12266116117736293 0.1649691779169546
Ni 9.12104034463557 9.031268069715953 5.943327525629482 -0.8080339602337567 -0.947813269148645 1.2201630279348084
Ni 3.702022077892982 4.7641330188250794 3.836064908958674 -0.051806186038014 -0.31334162781749264 -0.5018196874896648
Ni 1.3360912604919686 5.301544832704917 4.171115558335811 2.3168647673884615 -0.03650195158077585 1.055555090012014
Ni 8.548223278226395 5.567886347780719 12.072719166830023 -0.35531925780085905 1.2564340944517007 1.6479999932894198
Ni 1.6965980625899482 7.851655713777379 7.5032954502381335 -0.2565122775332743 -0.5299449849709712 0.930875869963358
Ni 2.009593179655145 4.011929961399905 10.725270431099654 -1.4346367403397937 0.9985678739936932 0.06457659832980492
Ni 0.16041489416545457 3.5928496646011254 12.530983079645926 1.8294201176735463 -0.8708686361717906 -0.28080354598047125
P 8.684733098041827 1.7313224448783364 13.415225530770273 -0.4590920667141513 -0.4468752129329852 0.41139193242471084
P 1.3995427707546342 5.766756420075377 11.902941840502043 -1.1600856030269375 0.08605070904318082 0.615747582559088
P 2.876592825102206 2.5258980160655704 12.013487186663319 0.14410364732185504 -0.6627658602901553 0.07636330655208785
P 2.3834469038736414 3.873004451277546 5.420167351861559 1.222725646455662 0.09149707686973274 0.803751530808319
P 7.1549855524427395 -0.027024952371905612 7.3372442562561675 0.599466071790245 0.45455792628922354 -0.250003272770163
P 6.081588954092176 3.7169359342666413 0.443456384123706 -0.39257454260789165 0.07528241478308324 0.3931209020296649
P 6.753766440731863 9.536846868084034 10.860333634827807 0.9124973674561704 -1.3337965316922642 1.3770771967577702
P 7.18056948492113 6.794348172490332 0.13279581255589912 0.1669584404328415 0.4147569922422018 1.0761424272450628
