# total energy = -340895.27611251135 ev
CRYSTAL
PRIMVEC
9.04251518567295 0.00000000000000 0.00000000000000

0.00000000000000 9.04251518567295 0.00000000000000

0.00000000000000 0.00000000000000 13.23463500568100

PRIMCOORD
 96 1
Ni 6.1667601570369674 2.0758811369507044 11.536777079222384 0.743219534861533 0.03145924695054582 0.40972920001030727
Ni 4.758252800655547 0.3086400278544365 6.083815879260318 -0.6980349679050947 -0.45695342310459364 -0.3975462847908702
Ni 2.969127900892706 1.6581892818743356 4.674526345327284 -0.7345423188025092 -1.0135355510471191 1.0648383150861533
Ni 3.3043881887956212 4.096485379415744 4.738276980664007 0.7509778386507131 0.7974919230518523 0.1958715239227659
Ni 5.180583465951308 4.500703887071265 2.8340381515913573 0.5355561605101615 0.7581740992888362 0.21073969928385
Ni 7.36134873493853 6.121384816528368 2.483095429841479 0.10635522492848781 -0.177164691541882 -0.2622021288292001
Ni 4.940730754315079 4.511844265609845 11.598410861786475 0.6190277959722565 -0.20868847318177605 -0.6297531528095607
Ni 5.6325735806030295 7.784610779284189 12.476091840325626 -0.7351946076745274 0.16745312068107293 -0.3534426096034365
Ni 1.6868630970901124 6.562731890969125 0.2653263807766783 0.8983892101895624 -0.2667154433185213 -0.12915139688739694
Ni 2.5169478934249865 1.4565592813440948 0.47747282630721805 0.22118429165594164 -0.2675903897243069 -0.2319258464431619
Ni 0.4376504942893184 0.19211546619720987 4.864998786540355 1.5526778862466422 0.4473603800995199 0.24900799873642923
Ni 8.730358385592258 2.0451998833943716 1.2775961532835445 -0.013482607867467104 1.3461877062677654 0.8268616344632211
Ni 6.9169814604718916 0.639051719188856 4.826168418423171 -0.3858382523253226 0.3240358743065451 -0.363504878935445
Ni 0.9488220614242361 7.398034218486434 2.4633492897321467 -0.6618088956935247 0.19379895766445335 0.6234009853392877
Ni 7.7959772206989575 3.866281031335249 3.7910210828460063 -0.37800127277940704 0.1540252773109412 -0.41145980954816874
Ni 7.500766231941635 4.0041793858103665 12.627641679768029 1.0662159121599701 -1.0372220960307814 -0.10743303137369885
Ni 8.197067018148026 8.723811604697833 6.919530545463797 -1.5631754433438563 0.8278342827891355 0.29567043578997465
Ni 6.822279200378915 0.6781841073086277 0.512612944033497 -0.5210158008021414 -0.4827554717693621 -1.8006844403017503
Ni 2.0135872507881416 6.391493783513695 9.217525692281953 -0.1970118081747962 0.2886821773975996 -0.43654914841662884
Ni 0.17277985627103654 4.719062540439471 1.3436996510356398 -0.11491237046987951 -0.41990742609488974 0.15498455590041693
Ni 6.476773742927127 1.8676862704959436 7.110068997036714 -1.040894402676046 0.018440723203690824 -0.3907449455983206
Ni 3.271274498691498 4.423173363053583 0.39601242524987096 -0.2024905719011803 -0.5312451918396335 0.47641436004268267
Ni 6.463128587720376 5.781648483676917 4.755667545603452 -1.0485614323030006 -0.8984804843517881 0.07554235331268926
Ni 5.100719973051358 2.898650538612112 9.292076707591468 0.5778446368657275 -0.13620007620406221 0.08465022915122841
P 0.10099585056607129 5.532337301300952 12.472266856460514 -0.19882340746223826 0.13660605339322926 -0.5803283225195296
P 3.9853890395415603 6.196935029750638 12.601119078882062 0.29278925758743773 0.8085684925809881 0.3314992725631259
P 2.509424520905426 8.266459278622916 1.3649405188823316 -0.06016072865029639 2.0379712939465096 -0.24881028090332635
P 6.558282973565731 7.7098472648710565 5.782370980629216 -1.1727122906520124 1.0026559280201377 0.143975606384423
P 4.592141799232078 1.1290032162616912 12.851836372347922 1.0676996957943483 0.43120896715063795 -1.1052797109306514
P 4.03360372977509 6.171344712166075 8.228885820097341 0.04127880414412891 -0.1276187622929544 -0.07850837791954866
P 4.851634853551582 1.0725779223649874 3.7775884267428728 0.1379229724324399 -0.23632860349654786 0.8567568793607566
P 0.2922459480732308 5.604586996530866 3.3849036470305 0.0073348430985164005 -0.7836267350339858 1.6280184079611704
Ni 1.3707458135428578 0.9423204931050486 2.5863256858757993 0.6212669697154204 -0.1392892566523472 0.616943402639402
Ni 1.845315088268308 6.385688488853169 4.783129663802859 0.7116978101041679 0.92063825139575 -0.8721847838800528
Ni 6.101102455276717 5.6115859031776685 8.968397168709949 -1.0110269256926523 0.42563841504139593 1.2414165379969457
Ni 8.446993091547226 2.4457561724556363 10.333536622923326 0.8619425373267543 0.062462637310595655 0.013903240344653475
Ni 2.4330243112686873 5.306066447266141 6.802972526500894 -0.2507815456970842 -0.9499236306234285 1.4294377126373574
Ni 0.5132739518834728 0.12881243535534054 9.11806797352547 0.27536823389751286 -0.2454799309785127 0.20198097925461342
Ni 1.3323241671058235 0.8191135128276835 11.343273586965376 0.27273902380478193 0.9741372517551544 0.0769564600513965
Ni 4.052837159281226 6.708244043114278 1.5905250460250335 0.7836830421932182 0.5513692162830182 -0.004355962975850562
Ni 5.719589702905591 7.982262073193508 8.052044066066946 -0.6132186454896471 -0.1836793527319482 -0.23803992976069974
Ni 5.336666318187046 2.931719016140997 5.145030105287356 0.07280541399750041 -0.7821997727794722 -1.002970888157395
Ni 0.9018290149736304 7.36466733796098 6.854746350657139 0.7227368415271489 -0.42988304925036297 0.12780928103720568
Ni 4.971619985717505 4.4251988864242335 7.0580971418009275 0.0038836513251223437 0.503657512029352 0.5049569475670659
Ni 8.162108654974205 7.272822512623028 9.20016225488765 -0.41043908159313824 -0.0878355688577455 -0.42376459505745084
Ni 4.558937683977479 0.594711746653201 10.547911144161583 -0.2936089252752556 -0.9383184422843324 -0.5774988234905345
Ni 8.329359013293665 7.359874804985779 4.474577348344383 0.04593764307237895 -1.0890812467939177 0.29174050460794915
Ni 7.402808666431541 6.187883472188042 6.983254957506881 -0.36816731740812075 -0.19363363573118267 0.9790416310353074
Ni 2.520284581477532 5.087309923235843 2.6195316096334076 -1.6315331059826483 0.10202985808025654 -0.3006079823009081
Ni 2.437120570585227 5.247335312032313 11.493737420350566 -1.3213909589390596 -0.006052119731350868 -0.19423244565744613
Ni 1.1837194748144084 3.2298145671984875 3.7820219718706856 -0.8146036430314745 0.19318677800175119 0.008879818988133094
Ni 3.79725951397731 2.722610855666434 2.594954957985675 -0.8534704953000011 -0.6691794771259829 -0.43588606091133314
Ni 0.9743490814034661 3.431589247969489 8.126621304670099 0.05429244279497747 0.1788860451083629 0.19217787712126258
Ni 3.489208153852469 2.651220199366037 7.1334023028654086 -0.12273855138251764 -0.21926393470477726 -0.33955710987059584
Ni 4.317005193880314 6.669641546376293 6.148083746457761 0.4286800300811972 1.280046077443686 -1.4203884579508956
Ni 0.6376492251049812 7.258806614299328 11.131294427963216 0.4761202258410317 0.15561010529955782 0.5602495494917835
P 0.21849067408789988 5.718287580738743 8.113599178750125 0.17602415017953557 -1.2266944012954228 -0.32625705032758007
P 8.395278947990294 1.5695183793180731 8.003301292954639 0.6979609201340496 1.1603997918332467 0.39791420965325014
P 1.7695930672601354 3.278210107732968 10.385800551395148 -0.5388291748344785 -0.6128692325700283 -0.2793431593848609
P 3.948278557786421 6.063883463341007 3.8608609478157487 1.1543574422939085 0.8063064360196888 0.7362508168531836
P 6.779670869474865 3.9399051888523906 10.422712097819243 -0.06684765375216875 0.49254777526943566 -0.16035687595592382
P 6.2895755964127735 7.799847417139309 10.243474981552751 -0.25213446018055286 0.35901136194046557 -0.08604453839559374
P 2.463081631286739 8.54642458701007 5.770393265197233 0.10965986382168856 0.2814920874070636 -0.5747086623399069
P 7.02802354525579 3.997515052220323 1.69024771047241 -0.40298545352857046 -0.9065714888900387 -0.5926976427181598
Ni 5.1969956307626095 3.101419896038344 0.5101407204194972 0.6174751067731559 -0.9572181074023127 0.0587399370433698
Ni 1.3525613157822374 1.1187851742579613 7.011973985297896 0.09236533840729899 0.7797222577732571 -0.6903761658082562
Ni 6.774543763442905 0.8306137834651559 9.341945273827195 -0.3604709772051276 -0.25394323125451745 -0.28413980944255585
Ni 2.6528026394993582 1.6425638158721714 9.183963493431472 -0.01587244825588234 -0.2417045230964805 0.5994467885165353
Ni 6.302976603713242 1.823857200060475 2.4089287214214843 1.4996727948045205 1.6320221298039248 1.4116582771667494
Ni 4.176285574710361 6.924712810837547 10.451497135970104 0.5311099518133499 0.13694698167241579 -0.4662932124482808
Ni 7.87572316090329 7.347387091705115 -0.08371650856171049 0.40846318881369004 -0.8533810209099882 0.8120903896913175
Ni 7.521148060858811 3.7881898713846187 8.282181499536089 0.6425855286875385 -0.11355868465546248 -0.09583272813060915
Ni 3.230610308522672 8.50370774592545 12.256450054072173 -0.724030877748224 -0.9011660016037514 0.9028176782745614
Ni 9.292088462861031 4.914507460677188 10.241079619316656 -0.4511327026577585 -0.5213387313591988 -0.03850561227436595
Ni 8.37784497897862 2.5431440595177355 5.772153842876991 1.3106154655901106 -0.4110525468074211 0.3533973581877978
Ni 3.4211722706347127 2.604642204356114 11.666092278414368 0.19154384308168948 0.22711839775218948 -0.4175780066307647
Ni 1.156501504521287 3.2196326952549477 12.619356927481464 -0.8019288757772834 0.477020626168114 -0.22541915567289564
Ni 2.8989670266387764 8.432009644113437 8.029505597310932 1.3459159406636176 0.05933231921173008 -0.6740396334317618
Ni 5.647023519649012 7.821278177801998 3.6298762306866506 0.16574565107166295 -0.022264467825155204 -0.2854850106165406
Ni 3.3209179063025407 8.382429534107727 3.557879725878068 -1.0654741488979391 -0.39246449939258865 0.8418329110610728
Ni 3.4140105987170544 4.453718978884202 9.50368512347668 0.40871489981318 -0.41176654215531017 -0.9313324978848025
Ni 7.2220397481159955 6.046151091332764 11.184510533269544 -0.22424544707976865 -0.5587953335437602 0.5426323506306525
Ni 0.5627048603908977 -0.21079820653695022 0.2901480845821995 0.24450933953512727 0.6197158231782166 0.1943466026378072
Ni 4.465338610720302 0.4285166498397895 1.6352583679652568 0.033302470806871674 -1.3872533659598238 0.048669440181245215
Ni 5.956811042662983 5.455593476092406 0.47587230114380197 -0.5924734425224957 1.6317578203989445 -0.17554026856458155
Ni 7.965207889813832 8.934095292128578 11.210714837625835 -0.1796002975665681 0.15495730220690732 0.5891196955589145
Ni 9.121004078161409 4.988041193043855 5.925702078144901 0.41374346337602286 -0.8281435864994383 -0.6305535372236689
Ni 8.01980659567093 8.793484183139196 2.4706149505728523 -0.4065999103527062 0.2604540357898417 -0.020964775177125184
P 8.51640343705221 1.664889785524569 3.650469654455938 -0.3959277753508407 0.05586621504000056 -0.7835655427787472
P 1.8198242383492682 3.1702876906404747 1.66691530889522 0.2832352953504154 -0.6317876667410862 -0.7636256093217108
P 4.711774273311146 1.055433313834835 8.233530960077267 -0.28630313564246174 -0.5237296001888787 -0.07605425995210127
P 8.575007977075373 1.5894119124226802 12.455723575181022 -0.9600375791289789 -0.2855624008216953 -0.48195868689967963
P 6.208771681947879 7.673631992105624 1.4188058767690745 0.596828634167398 0.3362067053411242 0.0977235173954188
P 1.712995965577528 3.28595050061367 5.953745630061864 -0.4214660288312613 -0.4745788494958407 0.6593007845596904
P 6.872157713381193 4.101359295026373 6.160431300755189 0.6112602362116957 0.15219310919820886 -0.7564301200145359
P 2.3745825365163804 8.354551460216136 10.12342383902698 0.07928253708141185 0.7510079205577002 1.0345175526154249
