# total energy = -340892.8423434816 ev
CRYSTAL
PRIMVEC
9.07544135182942 0.00000000000000 0.00000000000000
0.00000000000000 9.07544135182942 0.00000000000000
0.00000000000000 0.00000000000000 13.28282577807374
PRIMCOORD
 96 1
Ni 6.291930996603603 1.8898790158601728 11.301134552207667 1.1249126546702304 0.8653132535712 0.9125883845080799
Ni 4.724429814125833 0.29686585974856305 6.318707179240038 -0.3051467507115261 0.08866320696536344 -0.7479503646782989
Ni 2.823161119168343 1.4955420067306526 5.004676725377975 0.4403883196570609 -0.08216782904900687 -0.7043663094397611
Ni 3.3195877698641785 4.550816618004967 4.859614868253255 0.5843472138709356 -1.1068180019520486 0.4219817921254152
Ni 5.220039675085606 4.534235786362897 2.7234574111754815 -1.0293995146625692 0.3290086449307882 0.08190789051940087
Ni 7.528868297455318 5.9369723281938125 2.7828452853404433 -0.27468740578040435 0.3913738374315711 -1.3179932461114205
Ni 5.114927911495859 4.487660620524304 11.512424443764798 -0.3755124449192823 -0.14340482148261754 -0.2221062892495788
Ni 5.594710202459041 7.678740138581297 12.430360883020654 1.184909861159469 0.13995234415764285 -0.1982423381477876
Ni 1.7513151748579054 6.534127304229193 0.2070444000179082 0.8976271352125573 0.6618502904544215 0.9401459824113744
Ni 2.7517736962364703 1.6958097745716947 0.2550807119399019 -0.15359693152427098 -0.7852588713207702 1.8824812591645836
Ni 0.5639742543240626 8.934527131453036 4.644898089981265 1.778194229619034 1.4477259694235842 0.15975112405112488
Ni 8.815675149414414 2.3083385485280754 1.4895758114807909 -0.21723044921451623 0.5056400896770195 0.2521362599527658
Ni 6.747019011213157 0.8729231569014453 4.767697889077524 -0.4946596794061159 -0.3525969737736895 -0.08381179241033308
Ni 0.6655148316789137 7.287334497060091 2.5787413283723604 2.009441819048249 -0.8961999158477275 -0.33073874024801747
Ni 7.460748033467696 3.6456593079418873 3.7923002918896627 1.172453123453355 -0.4323183981647329 -0.3907367180682045
Ni 7.744174071881425 3.8330490242776754 12.884606696657915 -0.07219811943080469 0.026693707241102416 -0.49141237611341165
Ni 8.185685225989317 9.218742733278292 6.576858113043383 -1.3660834167504279 -0.6090619430087962 0.7514028420032737
Ni 6.835931111704329 0.49378206703929484 0.1914945385315783 -0.11589324632591008 0.2869790786635638 0.9574448787011381
Ni 1.927551173575683 6.468638918279995 9.190147832162891 -0.05035582674473263 0.19773145994964011 -0.5448638110643326
Ni 0.3288495307244728 4.947948863120124 1.4357139736523683 -0.6068999023604709 -0.39030760095058586 -0.18667237392200112
Ni 6.338143144781723 2.017216535712335 7.082256745217791 0.43632880487570663 1.0848949766267122 -0.51392701227616
Ni 3.378251423796498 4.320971986276947 0.7297462689787267 0.8620924326410572 -0.17935450010434917 -1.724315477322708
Ni 6.121103961026862 5.729389754494254 4.623140626500859 -0.5314866184264782 -0.4954495222972628 1.4882540114446174
Ni 5.613469140063946 3.127787388953652 9.447835010904983 -0.44585654186048373 -0.48806145736330786 -1.4444971780736413
P 0.15512742930546586 5.62901537137367 12.373230978703832 -0.09991692550231179 -1.1416618491041113 0.6772547979349498
P 4.027898753536168 5.967493037998019 12.60553505508155 -0.9344522744607069 0.9231527902874876 0.6942773006348752
P 2.2346368880106917 8.557442536637462 1.3071857558738573 0.6203177184282735 -0.120633846334689 0.5188198215920872
P 6.416255469873845 7.751906348049484 5.751436724558887 -0.14399411832718426 0.5589642550214567 0.861723993558045
P 4.79955631896057 1.1920047899267603 12.702193952447201 -0.2903109712502742 -1.7019047137276753 0.7384959041336184
P 4.114578295415436 6.041403433670174 8.357580441031997 -0.9025060605714135 0.08415812000615827 0.569464126111516
P 4.585230692217739 0.978359821297315 3.7698785060905924 1.045444998161206 -0.5583127374803868 0.20013698406733918
P 0.3427240657077232 5.414535462125139 3.786495639498711 0.37740966194199516 0.8012732444711554 -0.24066142654394684
Ni 1.5836554683687853 1.081084743769457 2.8247257252849787 0.13212513480374022 0.3120704744145529 -1.2860670868267852
Ni 1.9861331485343963 6.616559539480934 4.922137399916394 -0.6249012240338979 0.25752092130344684 -0.44491860342724665
Ni 6.178279242551245 5.564625113847401 9.393030234703483 -0.6441366752247423 0.9606726416098165 -1.0278887344449976
Ni 8.754588352598441 2.257643132243122 10.05532509973401 -1.0104342864139757 0.8433159233645025 1.3921721434176797
Ni 2.374670950537871 5.282524089894396 7.003184238413721 0.34252030626397784 -0.22500649361550926 0.585316005542108
Ni 0.3535692183143323 0.22354264514222189 8.967302180928776 1.112853409512851 -1.2653421955746078 1.320635568830274
Ni 1.2616769544129018 1.0662554723391644 11.5802198069463 0.762950437631557 0.05533219691340148 -1.0330633366674016
Ni 4.178932251175658 6.754025252060273 1.56348166943219 0.09387843261771574 0.10325678850882217 -0.32741918895648126
Ni 5.669873009059825 7.7075637408227955 7.968792156842796 -0.30221569310766017 -0.19510584940133496 -0.061994439424925496
Ni 5.135601767259755 2.904685810268904 4.922137399916394 0.34006618829653046 -0.13959958880391443 -0.10391113426336943
Ni 0.7330034449373142 7.586261389575985 6.950079292407382 0.653169731961288 0.10540237409691523 0.020904868473467224
Ni 5.215992028171341 4.75811785301766 7.012906758905319 0.17258967057668986 -0.27742074555116736 -0.3274749818950812
Ni 8.001390235209055 7.535520596083472 8.78225937376794 -0.10752481975655674 -1.3239957435517584 0.21999412800258242
Ni 4.500956142339101 0.42449016355249825 10.522761160064528 -0.2031703715770243 -0.5216572910408822 -0.013042949226887214
Ni 8.30614356117553 7.232364547823076 4.787674750933313 -0.8913510723958583 -1.4899956767260725 0.3052696494426355
Ni 7.249335623450156 5.926844135466636 6.775901603824483 0.7240193077839983 1.0055928991612746 0.7257918263033888
Ni 2.4998757416347592 5.2036766540398185 2.6609484926746094 -0.8037569301249576 1.2491676426972744 1.32404279473961
Ni 2.1519959176041783 5.443313687159079 11.275538176967766 0.57730187698838 -1.3749943460868128 0.8871159512685883
Ni 1.103591838718738 3.2732394900633808 3.9789240409618536 0.03570079583571916 0.4936325236931821 -0.5565998685543382
Ni 3.782734776536218 2.6304078168990768 2.7016073781916554 -0.782705251660981 0.4176499975192808 -0.49926246828544985
Ni 1.210355332663634 3.4242639122613587 8.205944334076122 -0.4332460521853248 -0.06360883509989691 -0.5823553802518874
Ni 3.931091018929725 2.8894662948536043 7.225763979211539 -1.1424563199809485 -1.4258510237273636 -0.5149212578686293
Ni 4.090809714096014 6.994860243459091 6.272721917099712 -0.17061532045913844 -0.4354613146690888 -0.8159987236067884
Ni 0.527942936433887 7.41621484196926 11.276588205550683 -0.0199648731577011 0.7523479795253625 -0.505827008876845
P 0.21963748265969138 5.761979664963152 7.904848411038907 -0.07554492441585053 -0.5585757613337864 1.1074399518067637
P 8.401717035736368 1.7950497275033026 8.03168678160792 -0.4116397867694588 0.3122442809882558 -1.5398115718069352
P 1.659798422652845 3.17704888547974 10.52924284039226 0.7515388533605056 0.5629522931349272 0.06364534476478717
P 4.131349711329255 6.304809048108856 3.911393680672499 -0.06418887597308301 -0.7062866663909255 -0.5153390621323383
P 7.094771779062572 4.072313964294952 10.744491439536842 0.5850576096743988 -0.5031666884358624 -0.8179370782800816
P 6.175447704799561 7.839929055272499 10.13943175394468 0.5612923889340011 -0.39898018902391935 1.173445055052979
P 2.5023624126089943 8.63744255356404 5.895077367542858 -0.2879015904778332 -0.793724228479304 0.366984095733297
P 6.960673055284114 3.9743899503825553 1.6788559422834883 0.590218327939732 -0.02826439416233197 -0.6467962243347763
Ni 5.47144755584568 3.0303443734413817 0.29317306259740883 -0.3449852228647026 -0.02546163460621421 0.30927877060202863
Ni 1.3557529811242914 1.1873400129896916 7.054934221002346 0.4670429461301118 0.28000341867667905 -0.7605827087303287
Ni 6.66053912904715 0.6653650868939689 8.976945745079222 0.6630872481853161 -0.14226196612742595 1.3691792820669322
Ni 2.5963658357882893 1.619766650144265 9.294630667655868 0.14190021191263305 0.16656686142137764 0.41513031642122056
Ni 6.269623561367581 1.877736075117375 2.505047835752338 0.45184027024774437 -0.06688981984401383 -0.3236059858579782
Ni 3.9312453014354256 7.093165425914983 10.613921247418174 0.7603705927195227 -0.9883125148142721 -1.0525561552846905
Ni 8.150980737648167 7.195418425428511 0.4468357156428691 -0.4343955924087357 -1.0448125067835297 -0.4273661963657801
Ni 7.874025489032357 3.9644977191346857 8.118954412097152 -0.778328205639208 -0.45697116371640656 -0.22735519635334392
Ni 3.420670037422683 8.282120867493777 12.70620529759542 -1.5577691847266204 1.0067385827299438 -0.014232855769930325
Ni 0.12634285146246804 4.7555132013037715 10.021480055704027 -0.6859345850971348 0.8679854010867245 0.8119777753728531
Ni 8.675949651898636 2.3605495635455 5.630151616650949 0.04773972927812423 -0.5809965522311478 0.6354329768031572
Ni 3.5939837439736584 2.5345530036513733 11.529174078618988 -0.23136277485084028 1.1806456865664763 -1.070022430390254
Ni 1.0915033506250111 3.3532213561069346 12.772313536199874 0.30856194704066214 0.6512889699988074 -0.27599995394424076
Ni 2.8516489300739045 8.629728428279002 8.291338793437319 1.1026597568093008 -1.0714326804742191 -1.2596145490622113
Ni 5.746569565276104 7.936364696776959 3.61129514865743 -0.9213687018038713 0.6585304820525691 0.396354321365298
Ni 3.1541969237530103 8.133138419635955 3.389126525360096 -0.6086945323670484 1.3972657558905035 0.306670129334588
Ni 3.33822872672943 4.0094120791766175 9.18848793391038 0.29901749788533666 1.4302735782750915 1.130386533300608
Ni 7.317120096101841 6.219953669973463 11.440311893056132 0.27523427942280987 -0.13496697512790948 0.09682697372307841
Ni 0.40439985867781136 -0.08249213316571964 0.2513352772279792 0.5577393814754201 0.5216817165209144 0.5643509732546668
Ni 4.5295347076597805 0.19249646727448178 1.581081673156037 0.25108673564232886 0.17515228909754352 -0.3683321251207592
Ni 6.010338197375259 5.573936516838515 0.3929965664182261 0.3178248603998268 0.28797126737350404 0.3915293891728289
Ni 7.805660188123916 9.063507306218836 11.206573896919547 0.40480348057391574 -0.43051656906930375 -0.07869735400190317
Ni 0.16302306342073783 4.777974919045493 5.929665690232657 0.23627641010237374 -0.32451075706043464 -0.5024172118643476
Ni 8.056605221366889 8.699718233218057 2.678946908280825 -0.9889527195014323 1.0012091682712823 -0.2734568758074129
P 8.490955852121964 1.5397484823346639 3.521874823441597 0.1017678626681215 0.11063045526507398 0.8227643244653958
P 1.8176475768677016 3.332338765188267 1.8647491183139793 0.05677330023530222 -1.7811846797059259 -1.308077529659605
P 4.6332216269321735 1.0678709009282663 8.360038070593394 -0.4816583820504414 0.8894677393302165 -0.24681741884301361
P 8.549038677797528 1.7162567442977956 12.644373407031328 -0.6949910388724482 -0.4055434440637338 -0.6841772360863958
P 6.428970163431886 7.739482068619821 1.6068368686223937 -0.9743460253318509 -0.5451918838277126 -1.7806761155006237
P 1.9339312089584832 3.1600505835281254 6.054511093845677 -0.028565984563150803 0.8108076663241519 0.8357581656219025
P 7.0463996758046425 3.781164725154675 5.860993639401117 -1.4290060244165776 1.4878536906824051 1.2061091209449035
P 2.1897679051763186 8.46757751478755 10.34178233561268 0.1334248274517702 0.46099622571539955 0.5241394340327876
