# total energy = -340861.1498727321 ev
CRYSTAL
PRIMVEC
9.27186512230608 0.00000000000000 0.00000000000000
0.00000000000000 9.27186512230608 0.00000000000000
0.00000000000000 0.00000000000000 13.57031182098611
PRIMCOORD
 96 1
Ni 2.118899356954118 8.213222186040392 8.969026623495152 -3.0995468791209912 2.576827208253865 -1.1790927402570597
Ni 0.25188319910190504 2.81289846809058 8.94359575159101 -1.9028629081447292 0.8867832505195179 1.4634042993907894
Ni 6.623579439131585 3.3325308820455826 3.1135998919079926 -1.1661675475549593 -1.256336649641888 -1.3354703198502613
Ni 7.79907578260509 2.607165050896099 1.1718209761033713 0.94924280250632 2.1241557003540774 0.2235967577521762
Ni 3.6886075936566005 1.2367462850655886 6.2174420728666195 0.7130579236764881 -0.27020982962502493 -1.3185673734473355
Ni 1.0362143842551756 5.466070514169833 8.699410982174829 -1.678760157290412 0.08146848898913711 0.4229901787852715
Ni -0.005481526713478644 6.839437733137837 6.7994861931248 3.2517160770598 0.4611381506099026 1.5247999288894514
Ni 1.451213799290004 1.0884149854001093 7.455923123913419 -1.0595567549722398 -0.1810138900846431 0.14535063235507872
Ni 7.354601108060537 6.300556927002217 5.998702083152401 -0.7832559819581285 -2.1721851929584783 -1.6441438527681231
Ni 5.11182963187084 3.5621208084311684 6.970675422098023 -0.22683480507349968 -0.5992691252880905 0.3760333504197589
Ni 2.596270609271712 4.74136298545042 5.795120665873682 1.932614428375549 -0.7779122011477119 -2.3926287497936536
Ni 1.2911628619962485 0.3677694608301789 12.241588008534462 0.6282215466563825 0.25965288004478504 0.5047720852497694
Ni 3.131414853726798 7.567891095402998 0.2546156177799533 -1.4820568814949702 0.42649767771789776 -0.6464673802404479
Ni 2.407115287076722 3.491589729761628 13.147651366432326 -0.5395454841752128 0.5484913805145908 0.947163294269472
Ni 5.425116685527351 2.790989050594048 9.190900503651108 -0.035930909568654246 -1.0238842412712947 1.5839445575704076
Ni 8.539054073329071 1.7144791401264599 12.585229294522819 2.1782607097285966 -1.7487525273191493 0.8987082840918781
Ni 1.8316477008135872 6.96790869751869 5.137706480491692 -0.9942851874579393 0.018518884739793913 -0.05302231783330223
Ni 7.971810631509196 6.273612886695436 1.087253220689015 -0.5056814844379162 -0.42868491517720364 0.5207545767209547
Ni 3.049331031002802 8.786946661643626 4.506158017492298 -1.2584189860922135 3.0397260503086163 -1.554683346712445
Ni 5.8614599342807665 7.412225750354635 1.3880260378685614 0.7598201195326915 0.014590239109349068 0.29228480714719335
Ni 7.904079656133753 6.247188070840541 10.65298000178334 0.1723631563881806 -0.6711746531791408 -1.0082457634030895
Ni 7.549291733787237 2.328285889042224 7.4758437263219255 -0.4764035614094053 -2.880733915910703 -0.7281562127705072
Ni 4.234321764453645 8.893369130549761 1.9954055298191982 2.350725167581332 -1.2541447841968916 1.2745390315825276
Ni 2.14146707688072 4.72223512751756 2.909515939534769 -0.3483901347811936 -0.10324341877238348 0.6130834054633634
P 7.633331920071017 7.791278143961593 -0.4902545090300069 1.7109603961720405 1.3245176774934995 1.0700396567814348
P 9.314701229524553 4.296378358319194 10.73461877497715 -1.4071555042003896 2.1813169800564176 -0.0491018997329735
P 2.2099676170687785 6.490769241831402 10.055519551236761 1.2552732413743801 -0.7158159460375995 0.48846666322152654
P 6.230313276154257 4.798950540283666 1.3688648012209381 0.30479553801969445 -0.046393756773191075 0.09496035282798485
P 6.012748958948952 8.02843391236037 10.736246914508419 -0.561056361663795 -1.7291056996224994 -0.18537550948744846
P -0.5215544716135001 3.8299849944128965 3.1788589880178506 1.3701676141221306 0.15228644024296353 -1.0216342688948534
P 5.61831454095488 5.597981340544429 6.9095413788210935 -1.878852404162745 0.7967589015405697 1.6477269421336913
P 3.4739453702627276 3.4824198550667185 8.426512173382854 -2.3589557830212406 -0.6651109634835642 -0.423622927273264
Ni 6.41324717679183 6.260623003533083 12.364955738302497 0.04049256079740768 -0.4749303192979885 -0.02599642406376168
Ni 4.654856483020183 5.947298862415721 0.1754737578878023 -1.6353018289964611 -0.46425767007549074 1.5861302523678167
Ni 5.0348638787440025 8.452009802716525 12.816643923982173 0.9351976372671635 0.26773822815608084 0.05813984156552568
Ni 7.570691198697096 9.36968339023316 11.497174984679464 0.8131201165074126 -2.270284862746393 -1.457681280864083
Ni 5.402122459800988 9.015312701821195 4.732076285253836 1.4738774310079714 1.2425030861929054 -0.8158112901863305
Ni 6.04274344291056 1.504860811408048 12.235685539140347 -0.5387134751922206 2.142841963909671 1.2176698291993093
Ni 7.993822039523063 3.0533457486397038 5.138452865641277 -0.8534964634419301 3.0266956994872194 1.5889594942864957
Ni 7.2408816812323655 4.20971423418035 8.623471624526989 -0.9260936180833663 1.649595619911314 2.0562017009116076
Ni 3.1056668840323964 6.792039958172847 2.5857822753436213 0.7813248263736866 0.734773975197341 0.34959212550909474
Ni 0.21757822500312352 9.386465466267321 2.033402560645495 0.6118461906221527 0.10888776154235441 -1.2112680394380237
Ni 5.285871813769872 4.719611189662494 4.900904897344024 0.08264528290605766 3.085348476133422 0.40670943934737697
Ni 1.6098090537454375 2.4327798099842135 2.5945219354926827 -1.415260135585395 -0.6702925076845037 -0.9201296871904476
Ni 1.2806300231151393 2.756256643508982 11.190499698105805 0.5169349458645485 -1.2269900781589707 0.7079478561434324
Ni 1.9789127359796586 2.3671442761467385 5.023567038169404 -0.27960695456920875 0.24899771432378412 -0.13982121789641724
Ni 7.458362551650761 0.49631089138664464 0.9260572080415472 -1.239578970567575 -2.930974043013178 -0.32917370975374277
Ni 0.8038132283372377 6.716520616019118 2.2313123779738855 -0.7349693790375987 -0.40539174897721797 1.6866976669699338
Ni 2.1485229663072376 5.850954910995294 12.060764384419194 -2.8766152657566395 -0.8299675270820545 1.8965354232648048
Ni 4.571975279887933 5.079443006684472 9.051913389746527 1.2129955636520917 1.8388298410232204 -0.1973599355428343
Ni 5.366926459455309 4.007429950844822 13.01580173436813 0.5227721213716158 -2.4393760332515217 -0.35859664300055016
Ni 0.43083483363082004 7.6022062685535134 11.372152226971046 -0.06312161105083322 0.6860346010101088 -0.7770801921647198
Ni 0.40070683481015446 4.401753106456347 0.8635796714953624 0.4949784961981153 -0.6805434959885506 1.3571172086960757
Ni 3.578977059387028 1.3351856780239828 8.418451213767328 0.699355486488731 -0.9202947520134023 2.330376171611335
Ni 0.24741508725612466 0.887712482269791 10.044323773992977 -0.392405364019879 -2.4194391851182786 -0.17610179749500637
Ni 3.1554475283569343 8.099929265011983 11.27346898395757 -1.8014953662388198 1.003096357991666 0.9249605329201877
P 2.471869993719034 5.522174570569122 0.7211870014983254 -0.631041789713997 -0.382877884145418 1.3709374024086194
P 5.046277544820275 6.855700584720113 3.5281180971383055 1.5057825072466842 0.3391213078847579 -0.1615555242497153
P 7.2182119707884285 1.9862931406886046 9.983841542840468 1.1476831155975267 -0.7053734105480368 0.2013667427093822
P 9.339086235032754 1.6796447425240593 5.908785388697102 0.37886182100748944 -1.0890779043598082 -0.1759087076475938
P 2.298782813936864 0.11626362664241223 2.5307954787024083 -1.6417010476545855 -0.12486948168259139 1.4560000365069183
P 4.064590999878306 2.1825414397709606 13.151030034115669 0.3672221798860321 0.8551712800411917 -2.710107025487339
P 5.820246493412341 0.5964247832023704 6.789729409361955 -0.07676748396904198 1.912352335692403 -1.3538277393115263
P 5.631378599038931 4.657276439840579 10.973714217578326 1.4269704820437876 -1.278169172135947 -1.3349329592895525
Ni 8.302055926638902 1.42628175373428 3.7113987655348173 -0.6924363907713945 0.5990649796970844 -1.9635918505936698
Ni 3.8287425644744557 1.681044794171108 3.1053488590556166 0.31849848942808373 -0.9344962403247649 1.1091571916081866
Ni 0.504666696315919 5.003803130282986 4.863803528697228 -1.7529287701840262 -0.18331965539968428 -0.2960144493929547
Ni 1.435813231172467 3.670889059236002 7.359003389663311 1.586106855329049 -0.8550123858658243 -1.6144722938456193
Ni 4.150865705678237 6.044347475592279 11.412170524413613 2.2381941528594353 1.7834693619750446 -0.9592137976761029
Ni 4.679742169249845 0.44026895648427833 10.753372976741955 -0.8207444658218898 1.682129073762645 -1.1385055628633167
Ni 4.168435890255439 7.280917595218835 5.44231970424215 1.1487372678936538 -3.739095163644102 2.3944781442975667
Ni 8.297559072010964 9.05752750413254 6.4337528338952295 -0.4913707242421989 0.20917184057609783 0.36081781902158505
Ni 7.08066385036479 5.4976412152175245 3.532664092651869 0.8969779316643326 1.7625392966905968 -0.7036636269457817
Ni 5.458254331795913 2.5407043210547338 4.9731123292439365 0.14496419554993745 -3.49478405616271 0.046912091170506307
Ni 0.6563414305769334 7.72536445416775 0.28367642491468964 -0.8052975351392003 0.48475861824232 -1.6783814337947545
Ni 0.5740304471552374 9.337880892555162 4.2965647228099595 1.5089567912096076 -1.8238367100484978 1.7020756920879008
Ni 5.934911650492163 -0.0880307970711293 8.774902508732922 1.2713251526309202 2.4315477954563542 1.8784191732800684
Ni 8.95600058005847 5.654901321082394 12.596913699063288 0.5121326393798986 -0.002672661736156688 -0.4395025746179979
Ni 3.026364620872074 6.194486788974146 7.350101471873036 0.0654829121941582 1.4314521719642253 1.3284686917214477
Ni 4.220172898139761 7.661852177463879 9.096126279011113 2.1300949486566476 -0.9217397119900449 0.2451037785860166
Ni 7.520901282507346 7.91307336538963 3.0831612856027166 0.39320214888956156 1.1818170811667583 0.1743573040000739
Ni 6.1011747374781224 7.799687725709098 7.108766873823101 -0.7064319337195382 -1.3067690952608269 -1.0481168885664143
Ni 7.685115287281399 6.551805930523604 8.459787043256554 -0.5117114926820799 0.4935260800223049 -0.7097687114022551
Ni 7.757009330137139 3.565801738920429 12.518178874053953 -1.4288738697140877 3.6292486377329047 -0.8698031710217536
Ni 5.235015633080714 1.6651250016016852 1.1079888200496775 2.530414425317281 -0.6574660453437968 1.408318157049923
Ni 4.041457696173757 3.704879717104089 1.6601784615109532 0.06151312891313278 0.9027765406239806 -2.810371821247373
Ni 2.974284553974899 0.6434451932532232 0.4983850076346236 -1.7350552323377149 0.725124625033035 -1.2343665731287
Ni 3.4558930486944885 3.8715971254854478 11.076630994247715 0.726917969488032 -1.1164596388068708 -0.7253624520754539
P 8.757183974312323 7.276967780638419 4.749961713248255 1.5554433648069212 0.5164047843926913 -1.2657453445502975
P 2.638921189248034 8.61140243758021 6.849329886132781 0.5630533374891658 -1.2409773935769983 -0.9855305811937606
P 8.639078955238759 4.2651321725539315 7.100231194708709 0.7088294874174372 0.8876821081847035 -1.2180675788583604
P 4.002673483990941 3.671862605083288 3.645854095976422 -1.5753889546909126 0.7071140473882274 2.7265204338483557
P 8.887620574118172 8.340459992348016 8.711991048894802 0.5220005333129139 0.16628121186015882 -0.23902414805084
P 0.9479833148954618 1.946702276232323 0.3949953658394122 -0.5668467430933269 0.14593452988300673 0.10434359381509771
P 6.333601854618655 1.0165394862747938 3.109949558573932 -1.2039265114712878 -0.6044632678945203 -0.7211209031902808
P 2.561120968252095 1.154643918611168 10.485888937233927 -0.3112256099157543 -1.0565873879312706 -0.4607452860468581
