# total energy = -340858.9986706581 ev
CRYSTAL
PRIMVEC
9.39633582253381 0.00000000000000 0.00000000000000

0.00000000000000 9.39633582253381 0.00000000000000

0.00000000000000 0.00000000000000 13.75248727245861

PRIMCOORD
 96 1
Ni 5.786526577924788 7.094364948825493 8.941564260451168 -0.1981829456647619 1.8775231438283602 -0.8620908899791604
Ni 6.025108935888518 1.67175844982376 10.526428217275788 -0.10814779805253631 0.0069697464496138025 -0.5106915360579979
Ni 2.1041590228132034 7.731680809218861 10.162400080492995 -0.4065186634928095 -0.8136227671754439 -0.6382473063235008
Ni 7.479699276647739 2.7990462316073343 4.456067468630089 -0.22960079785441104 0.1879494408622118 0.8269403102199565
Ni 4.128063943016497 3.7524078408924377 7.748591394450924 0.2158376826320476 -0.8029485752910493 -1.8176719759986826
Ni 0.18956261461919963 8.292980314371135 7.536253001899848 2.1429067557093355 1.802073607339793 0.40584297758202365
Ni 9.070263990298658 7.025348863628235 0.5149464418593412 0.9352680854937828 0.03479319641978523 -1.1443036576023324
Ni 1.5271112591462104 2.3113952051175666 1.2721426314785316 0.38064693793237026 -2.38276805494949 2.071839407448864
Ni 6.216897542418302 5.370353476567157 7.15818298115262 -1.2863491368435782 0.38931978311601984 -0.3816260140161879
Ni 7.928205168905814 6.49114839043088 8.09399881291712 1.2121134181574542 1.3322510415820152 0.9054013798413374
Ni 7.071390908211838 3.324461130991286 6.729394359579082 0.3871230325750172 -0.11593849774154871 0.9541870338854728
Ni 6.439477940805322 5.545519965368697 10.370887854703183 0.5557236365969719 -1.1799764284135938 0.6770023156045114
Ni 7.137860586453554 6.74832609660501 1.6602413612429188 0.030276796606670438 0.34810114278586507 -1.0455367865440637
Ni 1.5227795484211 3.8395964391967765 13.460287434691038 -0.7144098097186922 0.5957533988253482 -1.8739518815373342
Ni 5.998761610783942 2.5566301687068465 2.5057997514865478 -0.07039423345284651 0.2026309541337865 1.5675386054085585
Ni 8.76522135042884 1.3720153432488713 3.1400232778243105 -0.12779873951424442 -1.060181533040432 -2.0480469330149567
Ni 3.44749674972143 8.789971298476434 4.256669709507695 1.1018048650081733 2.8666206164377726 0.11566801768898144
Ni 7.191344528855569 1.2803446928493534 12.520910391723032 -0.18113833147764935 0.10071885257831686 0.4632377134514087
Ni 9.00598365825857 4.940837578615912 6.5655476363101695 -0.5050279100143173 0.7765037508359595 -0.13992380491255255
Ni 3.591570763925592 1.8823209349408978 3.129680731197132 -0.04638655768433947 -1.1809637320275275 0.46943175807726256
Ni 8.772588077562217 2.822067253899136 1.0891912786081122 -2.256483438086927 0.08396991525475217 -0.8284865716611538
Ni 1.7618787048444424 7.45960991107228 5.13286861060493 -2.050857920101191 -0.5702094889179729 2.4984558701328132
Ni 1.8488229984224187 0.6497829185063317 8.938937984642777 0.791914686074391 -0.10764746137735008 -0.8219618831687586
Ni 8.320661919135073 4.4578659272695385 8.974625267362883 -0.13789006231197543 -0.9399806604781037 0.030010173208845088
P 9.10262497020599 2.3657624030687363 6.6167069252774935 -0.1427183369385542 1.114846271573164 0.5112373812591389
P 7.870408308449948 5.595311147868393 12.48934810034419 -0.9764599863510601 0.07374026710694397 0.8096396141579798
P 7.404660140312094 5.3901515557381074 5.097675575138925 -0.9533190294582228 -0.39009265672630233 -0.08060074167220312
P 1.3344112080603852 7.531670409013435 12.269047252980839 -0.00961515449226086 -0.3191569489476891 0.19168242554208278
P 6.387957832549832 3.3393919083062547 9.167779161459604 -0.07916503766694108 0.0728933457256164 -0.5339461357105643
P 3.766596307692691 4.995824934718615 1.5558189437608687 1.0200473840237076 0.9155428391507135 -2.872994895395233
P 7.577355392843125 8.633550499255364 4.31491195627239 -3.230057104029128 1.2628999046817024 0.15214245846593152
P 4.365584515054116 5.633479063194637 11.185667607959454 0.5389441031457879 2.273739911174529 1.4438191781700103
Ni 7.521898219958955 7.997465558829435 11.399408873419986 0.8916071542707226 0.03851872490048851 1.2363944021920061
Ni 8.199571341880196 7.470575434751681 5.910172958470837 0.021491594214872664 -1.7092575545483208 -1.1094443838313022
Ni 5.448061172221525 5.987119550939231 13.018736710065776 1.44848135953237 0.5080443282431379 -0.8652839429951614
Ni 5.132983245899608 0.29142828917651536 0.5021909162425571 -0.8070083471827199 0.24641915496333044 0.5605118020142347
Ni 3.274566588799667 6.715467110909324 3.7037789851100857 2.2170460580269107 -1.764511075704987 -2.406585469084062
Ni 2.317812902352383 6.358265411961223 0.23155577818013495 -0.6304602061789142 -0.8269616503761952 -0.027177331745740295
Ni 8.690426518819557 0.801081775175868 5.265235730248539 -0.4683071575545161 -0.686858639573301 2.4319815405596636
Ni 6.363677701283704 1.1738090394842722 6.619938325100413 -0.2672677162775655 1.4847048606407784 -0.6923286615489368
Ni 3.9635247098117046 5.430443042916575 9.142226766349268 -0.3903063153990052 1.404871593262219 0.17397266696714556
Ni 7.821697704547621 4.43750406796083 2.823702216298635 -1.6799901730427713 0.6693882507026795 -0.23696880818370802
Ni 1.1940393500941697 5.4373305569328565 9.241726443595125 -0.5606454993786215 0.747218628718597 -0.5014563906129752
Ni 5.662231850220317 0.4737632424296521 4.512810060228348 0.08323252286809535 0.8431086924497029 -0.08454301414940278
Ni 4.135571615184314 3.6453553890677446 10.775568297952608 0.05113332834070548 -2.9310635174031905 -1.3818224247522397
Ni 9.023629976570408 6.424716297531681 10.741325232018722 0.29878841259366606 2.0449649516555235 -1.109170047123993
Ni 6.909200758914372 4.557579840967743 0.6445980205060802 0.3039483595280507 -0.22592154923061092 0.35071286937709917
Ni 5.783200275112013 7.1430285710496735 5.073581491318255 1.0050426830847594 1.3069552431297038 -0.3423524132275459
Ni 2.0772291248996098 2.449324015820162 5.004185794161573 -0.6365668332972844 -0.6500638393424547 0.2711670513319717
Ni 3.7241342669838535 2.5820472565841213 0.9123729140029414 3.140202962079456 0.8324203594979213 0.4206507320188175
Ni 9.076935388595466 9.26411979066689 12.932137262005396 0.9685872684712028 -0.32899013298802693 0.8735893775370633
Ni 5.006762269391129 4.9076497211732 4.769705876333597 0.7614296301116563 -1.807468295992803 0.6943469775305462
Ni 2.321580832939735 8.861327071245391 0.3115176547519734 -1.1837194403957936 0.7999118453472546 -0.00495065913705599
Ni 4.072945038214983 1.2668327622144102 6.681302034561163 -1.5797315479303244 -0.6339566493679469 -0.7476739710884608
Ni 3.801146633801652 7.866922267931474 12.534745556303623 0.4219964474134345 -0.6876857634602866 -1.5801154136323043
Ni 0.14301504717873928 4.821081281020396 4.221188206537869 1.179327224865369 0.7863155947200586 1.6368090096696069
P 2.6969456486592858 1.8792671258613731 13.010898286883808 -2.35503613625186 0.5713973385784868 -0.5355474187594131
P 2.2871150738514374 3.7051348763413947 9.349188575653255 1.525245501067302 -1.8538170584606717 0.13949751600841137
P 1.9559976026102928 0.3454694342813479 6.120626446094675 -0.14619138308881918 -0.4139391243265968 -0.27450691433848207
P 6.617444537624395 8.43335217233735 13.383906501627528 0.5067142965778048 -0.6531023690584623 0.26484008067267933
P 5.306712095349862 8.678267660515234 7.358762799297181 -1.6092287860584928 -0.014916512100516246 -0.6369273019604966
P 1.3559476093227563 6.224931409381358 3.0807493134075172 -0.7851994788377445 1.780483282763527 0.6371952109099027
P 9.319436018516617 2.200480859349228 12.679559062121811 -0.760650842964103 0.40499708464196055 -1.1901471982990084
P 3.840507883752819 0.07471872129068526 10.017256763294217 -0.724498561413262 -0.6443117673500258 -0.44456739073541507
Ni 2.831623327234141 4.645585920471832 5.746174014564729 -0.24570747360828651 0.7734652211199518 0.3153506878277214
Ni 0.10752790640753604 4.547413005816833 11.591792267995103 -0.3313781736042293 -3.7320773375653724 0.4079044880967427
Ni 2.36042528443129 0.11476120557497646 11.587749024773812 0.11116627316388596 0.2596014579815594 1.6444804101719355
Ni 4.464734648614562 1.3319117827829896 12.29470958521804 1.6538842199843387 0.04251781875755258 -1.272414014819725
Ni 0.5881974555247288 4.977483287570209 1.6765111163850634 -0.3752144540628893 -0.3756209454726886 -0.912590441390609
Ni 3.704401962162309 4.298353733626426 12.915276477352167 0.7320406354265779 0.41189972529906477 1.5254115943315212
Ni 2.837289317618613 4.419030872113614 3.2390954217990333 -1.1847316837103918 -1.7965369937922802 1.218026955428412
Ni 8.234318991037373 1.707220220488764 8.52760117723355 0.03445509635407615 -0.6647859760439777 -1.1483521166400934
Ni 8.166768734198286 2.6873050083036167 10.536770763902966 0.8399521490985921 -0.016551219490461816 2.418410743853764
Ni 2.1697736345126533 5.430527609937239 11.329656115509389 0.9909874905432738 0.7910351116829151 0.8402791934207078
Ni 5.537561269090673 8.636970765424431 10.934148375101293 -1.4568261319526394 0.48823783504017215 0.25347889002358925
Ni 4.498514475201921 7.235338172271984 0.8618986179029938 0.002857266943137015 0.4353026776040374 1.8709241504546037
Ni 8.759104335934161 7.89057284471044 2.9241913276862577 2.5925919272872897 -0.5923829396912185 -2.017517654077848
Ni 5.379336373428775 5.927706520755124 2.709088533193039 -0.30981253161831157 -0.8079082332891698 -0.06367645511303872
Ni 7.323024776364676 8.94159057019093 7.580206241073056 1.4933062291565442 -1.4069374746523124 1.4759556536932386
Ni 1.6767948857210686 2.1357307105276746 10.895682595935599 -0.7518507281739696 2.279172909264642 0.14925588094675588
Ni 7.373971708146778 0.6254163409524132 1.3328110121027141 0.889398576655178 -0.587169256700763 -0.6589498289781748
Ni 4.278978489558795 1.8375379993316212 8.940395356298882 -0.29903061051145924 0.1275208032625094 0.5917813015514776
Ni 6.402531549110888 3.8747575271216426 12.233332720887407 -0.17576241187771663 -1.4529715340932396 -0.7096249867355392
Ni 0.18909185820417135 0.12061606230559759 10.550811708233837 -1.2834702726338865 0.09004671757645137 -0.16289866854117108
Ni 1.118380055606991 0.0392982945024501 4.021158074027621 0.5244672496858517 0.4122085147887352 -0.3365468622893623
Ni 3.5465905052681004 7.589796141216327 8.215419201552585 -0.40089051867275477 0.6989286833639575 -1.1086504271750972
Ni 5.868725722009964 8.505591200655461 2.5885758305793636 -0.2212002324955416 -0.2992095592914847 0.5033888317489975
Ni 1.2575679752839137 3.6791821973332492 7.362765638275266 1.4311387544888643 -0.8537144929900071 0.6112121565825797
P 0.5194397695572758 0.21403443113216641 1.2903019897157297 -1.3990197624671323 -0.25153307915112805 1.1130675824061862
P 8.321686119718668 8.206938069013573 9.383913673604921 -0.07890329936512218 0.2731025777917877 0.13058735800297508
P 3.847451775782877 6.678210640139122 5.7821093605454505 -0.7601265950295166 -0.523050314733667 1.4783154121746669
P 3.579881722402735 8.984776128743224 2.0135012973945248 1.076612682013262 0.2497770156919698 1.671272076443483
P 6.149770120682533 2.3412661560831327 0.5052625783597775 0.12200373009902213 0.6337633024102182 -2.2154437465367973
P 4.443837198174983 2.6368184969673507 5.0114059384591325 0.052100577349981234 0.676321487487403 -0.10240729602433332
P 1.1544337954166415 6.445369443244898 7.411283617297192 0.06118942702512687 -0.6732528758644083 -1.594960706175253
P 0.4779587062881377 3.104737218635574 3.069375988761804 0.8242185404134194 0.2985521282131439 0.07083363498311027
