# total energy = -340890.21064728114 ev
CRYSTAL
PRIMVEC
9.12258775900775 0.00000000000000 0.00000000000000
0.00000000000000 9.12258775900775 0.00000000000000
0.00000000000000 0.00000000000000 13.35182931061334
PRIMCOORD
 96 1
Ni 6.388338204518114 2.1481869037536936 11.525726090134572 1.1819680049223256 0.714011545839009 -1.1040728351067437
Ni 4.843619586267267 0.541826049528013 5.839596321408754 -0.6774975100733751 -0.7238169619652051 0.277186003832542
Ni 2.836778053189469 1.7500954305669956 4.553574214875533 0.2097289986311485 0.2285723565898967 0.26361777822980403
Ni 3.3647751723310364 4.800077476144894 4.750834661095753 0.45240539872259505 -0.4482826348034731 -0.35067635971220895
Ni 4.075351757634174 2.862832163080417 2.3642079511611453 -1.1453338986390598 -1.2708831799974951 1.1394563568123601
Ni 5.266041000308014 4.694009151319245 2.369042010275716 0.0935380185591615 1.2662726778086775 0.19799834045778159
Ni 4.979427546332586 4.748626082662769 11.417990156314502 0.8645673765441111 0.87997316957622 -0.1746236702875831
Ni 5.870220847635614 8.040977032856468 12.494040403209418 -0.4087105289378058 0.5873914000138981 -0.006308972937163328
Ni 1.9019500220392396 6.561667366957898 0.28636075830176483 0.27300384743039435 -0.5884918321669285 -0.9332651961311412
Ni 3.1814932669322102 1.9247838585438068 0.39478453521909707 -0.07519268328275437 -1.8434174603939024 -1.0876648260623656
Ni 8.067861298209626 8.904274855444045 7.073131620778958 -0.038694074136088205 1.0316494870390105 0.11859830396189898
Ni 8.90962069171719 2.3359023866759787 1.1227031593537093 0.7500967215973404 1.6970800386455225 1.7597828169913823
Ni 6.97727420813851 0.8660172659203851 4.6415761674224605 0.027533686643894516 -0.04764871222621471 0.3983826646492365
Ni 0.5789814361438549 7.4199112760722326 2.0410010619596815 -0.5271072584118599 -0.5922726393655993 1.811599030331725
Ni 7.641571907070225 4.050091312855449 3.6809786511111833 1.1411766819375766 -0.008583885014269089 0.5003269049942223
Ni 8.072386101608055 3.94819201051585 12.682488429907698 -1.2164387850056855 -0.5099086351453863 -0.954077247780486
Ni 8.20083213356343 7.3384648149005285 9.255754467815688 0.05970847160422619 0.924259650198421 -1.3365738373270852
Ni 7.319818246057006 0.7975075460779362 0.2792442277954872 -1.332215046137757 -0.5007472803610924 -0.30826035663984336
Ni 1.953811931958722 6.467695593153044 9.160476339481288 0.4329053810164544 0.6301182494584632 -1.1034969079986154
Ni 0.2368579495089627 5.003556790261703 1.1503546343153528 -0.1162791689104191 -0.6850881779364395 1.0698601937807768
Ni 6.567834236105754 1.9470612172110673 6.973540333076057 -0.08374031574244933 0.8337897290416222 -0.18808468088849542
Ni 3.4994519315467483 4.405051192357131 0.12038531364317669 0.10441378493140083 0.6958166200975372 0.3648449379031071
Ni 5.83120354091167 5.464876917388936 4.78307935886205 1.3648505727845912 0.8333701250057003 0.21932024186400936
Ni 5.421252703979091 3.147192337944127 8.96839661070052 0.8417370089131567 -1.9141145697991484 1.7285613970832554
P 0.4388931580250232 5.5023798745884065 12.364875511359292 0.17807023407528688 0.9517889659669416 -0.456428403839059
P 4.096497915451827 6.406701973149233 12.638400789053016 0.46793049094138767 -0.595729230455632 -0.6104379974207164
P 2.505546023767043 8.334833821304377 1.6253185033028446 -0.6756910529922557 1.315247050824851 -0.39808467379284346
P 6.689100791701125 7.961610521634039 5.713408129858843 -0.5144623159543398 0.4519408003813507 -0.4854661858323059
P 5.02152828763046 1.0485410842982241 12.746697762004143 -0.28805894199130394 -0.23524694039659486 0.13134506210460606
P 4.200376819278238 6.104662223716666 7.688236678892763 -0.3695063479345185 0.8106842533724102 0.11051578406408064
P 4.947808658068571 1.2613071924868064 3.760328741676116 0.1550192657930943 0.07420820788229801 -1.3213325948972985
P 0.4336969321868284 5.749966899252391 3.6665987164399287 -1.3119131013556118 -0.0649424663096559 -1.949037864038895
Ni 0.7016017837237549 9.616575609784084 4.705091270610394 -0.5185403426784553 -0.9572206785054741 -1.0946505133515794
Ni 1.883923789145502 6.962139835481268 4.626075066747846 0.3782807516930388 -1.2786998478284364 -0.720483783826914
Ni 5.848609437855623 5.595165712018671 9.056492525898665 0.8129185420195677 1.1650748287114128 0.06487664606872698
Ni 8.846702205751548 2.410844442962443 10.270173425840767 0.056004026169445484 0.16955654017732089 0.7018258024060945
Ni 2.3442769219980697 5.265365928833248 6.8315837490378755 -0.26040852726388697 -0.08619237682736769 0.4612057706230444
Ni 0.6053402404571975 0.2867238372841387 9.27042814980434 -0.47869055767136903 -0.3619038529969122 -0.5592627600984821
Ni 1.9770380397256528 1.2039990978317159 11.248475147707143 -0.7548134103467194 -0.056932451520985826 0.5195998942912213
Ni 4.1499836459457455 6.990675289171354 1.3390015334210648 1.3993270092949062 0.695776253777905 0.6202153885224545
Ni 5.820010126053058 7.979235360677917 7.793529583781183 -0.8777687057257334 -0.035779985813086765 0.43166482374113396
Ni 5.323686630700486 3.1244770950770184 4.647090771564295 -0.037087134660284515 -0.08149959933738866 0.5333784361325524
Ni 0.8698989269002865 7.682085318143651 7.056120731873618 0.7527035630925683 -0.9231453340883198 -0.18157310502222276
Ni 5.048029404308753 4.124230581442192 6.995397140459714 0.8341730805229699 1.814250351911643 -1.1884777810163853
Ni 0.7093322643685693 7.438548722328258 11.193786147922394 0.17189393006124587 0.18849271496019152 0.047889367482111075
Ni 4.628481605329509 0.38446050294893375 10.51030638426109 -0.31324289745609923 0.1823639763546343 0.6255036335045873
Ni 8.494451734736424 7.524374025498441 4.372390504600978 -0.3655239662480027 0.4906456731507162 0.5188812709576419
Ni 7.341840172274355 6.273028698558174 6.859088350340819 -1.419708915385368 -0.6830847743531655 1.1510337772373145
Ni 2.5163927803007744 5.584638246047328 2.391766375730321 -0.3496733723689914 -0.897418875856493 0.8004715745054666
Ni 2.495675384095472 5.4309044015507375 11.28756908416606 -0.5764359294436587 -0.5080831519008734 0.5218179849884627
Ni 1.3936212015408391 3.832891627143407 3.710673585672117 -0.62108236450844 -1.401174089805974 0.04077358237293623
Ni 1.6551657850749752 1.2454247676548242 2.4160397565418883 0.2716918134871901 0.4042918310448199 0.2653414457891301
Ni 1.068209382941391 3.451759044113317 8.142025197782612 1.2837528368713118 -0.0898986220343613 0.22813526905247808
Ni 3.4724308273811353 2.505536901179546 6.833225814787304 -0.4740170634550998 0.39397810782363757 -0.13640036514032639
Ni 4.319855347724229 7.1606017264748205 5.690483067479307 -0.07831271696897481 0.00814756880779887 0.16593179894054003
Ni 0.7686774328117021 0.029714091994676964 0.47492737863750445 0.49430049629448414 0.6210432837403885 -1.2931946990105019
P 0.040274399281008184 5.779578818267105 8.032860666760536 1.23415471422821 -0.026154804018496892 -0.2603033691445904
P 8.58441869263017 1.8075403640345387 7.8950566845509105 0.026065072518168014 -0.9495994145147904 1.318750178882103
P 2.2427151553958535 3.2650561684031794 10.165094901758524 -1.211054894985953 -0.4612631062235411 0.8878800831281225
P 4.405534689494464 6.355761444566932 3.5242288791881404 -1.455103492834578 0.3329709720126459 -0.28682018448819635
P 6.929900611267469 4.29524260665778 10.5567704591587 0.6906060224308752 -1.1387755286952517 -0.21226642034102153
P 6.2671993651476985 7.974984234904394 10.101579798570588 0.33629695106208535 -0.38858059095715014 0.6712962663586697
P 2.5371466668560645 8.571610579784618 5.622495159641677 0.194860051939116 2.841264139950855 1.4456503178414781
P 7.091498126186328 4.217919555034643 1.4226109600882675 1.2777017455812252 -0.1868937459041878 -0.7875466389136824
Ni 5.511821752647626 3.0737190182446525 0.295142161026214 0.4972662637910275 0.1489026113723952 -0.1373501306481054
Ni 1.4101695752600898 1.0878503138220676 6.8283789840502385 0.13227065924266895 0.09364934732604517 1.124260108687896
Ni 6.741765489320328 0.7961893321846442 9.23093373175431 0.41894531929193657 0.5087665511211431 -0.4080297008206973
Ni 2.9396625949787256 1.4005361228634368 9.02510170232207 -1.139050122512877 0.6325829089488718 0.2620712596782906
Ni 6.672835218194276 2.2042452039217184 2.3638074695700344 -0.5358765199640577 0.24932681552842864 0.1335058172013507
Ni 4.27739882551398 7.0393807838169336 10.514926062569486 -0.11379856858041047 0.0022641134438283585 -0.571761406786125
Ni 8.413415790002077 7.375329190975221 -0.1067187653141746 -0.6091997541382411 -0.2781108296396565 0.3537483137693133
Ni 7.929289194132768 3.8565191287601985 8.450973482726528 -2.1045921763998527 0.6930416284555614 -0.5937330259612098
Ni 2.7967572618408725 8.21784575924502 12.33413877730622 1.2068799376726569 1.2009350329431316 -0.26290378288191496
Ni 0.19491685349228352 5.135834308965749 10.105945868946572 -0.26422635834808045 -1.5612018645572532 0.8078400990553958
Ni 8.62494122629109 2.388129200095335 5.640119998685553 -0.2706114359388178 1.1238487321820902 0.1994615552668694
Ni 3.947836229603474 2.7574571549045257 11.532428455168494 -0.6879369602391443 -0.9411726239036758 -0.3382391623901207
Ni 1.4061100238240003 3.3039366363146723 12.50410809077092 0.09326239630027164 0.7796700643790831 -0.29213825426700013
Ni 3.288218418057633 8.418378477600353 7.764662980164961 0.03825775792961798 -0.6333293001965932 0.15975909447092487
Ni 6.093432318508068 7.914683931550343 3.598851644912215 -0.6880493174472925 0.22913954194727634 -0.09186268773926759
Ni 3.638899804023302 8.656395907980162 3.5203034297882536 -0.6104806777331938 -0.7971394248084401 0.3677615973292699
Ni 3.621603378129311 4.542054211384535 9.179235116151023 -0.6442050665688324 0.6078856633125079 -0.12975894856440875
Ni 7.486934926411448 6.38498109231928 11.237233383134798 -1.0175032774456152 -0.880567094406477 0.7253508821112282
Ni 8.251307410183395 9.330035136508632 2.6034459837480313 0.40739643811207255 -1.7996400581976364 -0.5305234831822605
Ni 5.088187034469802 0.4324681196510053 1.6590711647823686 -0.19998297498797815 -0.48503861137658394 -0.8143498751494556
Ni 6.254062839152263 5.845699332444132 0.1290864375976538 -0.2618159491343749 -0.15101760083286894 0.3182357226850003
Ni 8.00012608604566 0.061610306918595835 11.286995273412511 0.22375385215533075 -0.05777088826188115 -0.0052471073315522535
Ni -0.018009812236243174 5.466172324813486 5.8130121891842395 1.3529427656034119 -1.854759367769283 -0.9754390012857137
Ni 7.428185462931857 6.184566967601406 2.4736799133818637 0.36033830828200525 -0.22889580136758644 -0.18490396916766866
P 8.59658822435094 2.042775405227815 3.3998159431651125 1.2499813968478215 0.8245597258029218 1.1035164483826414
P 2.065572751382395 3.395618640657821 1.476485312809551 -0.9980382267424682 0.43380012491658193 0.785106662013622
P 4.736511286466978 1.1217133586103032 8.035264468565952 1.8153016759942928 -0.2308801787874669 0.04611350652861091
P 9.051860075967774 1.6928511940243829 12.525617327570949 -0.18330500011166495 -1.059798952890033 -2.544936015972224
P 6.852796501744256 8.045419732967423 1.464842154387346 -0.18814638736436629 -0.47298425131521127 -1.2352713443311565
P 1.4928840760938538 3.1849142372435217 5.9484798767359255 1.9817302120655933 0.7501903097524113 -0.6580077767798796
P 7.0449820525399875 4.062616625488598 5.933940296783477 -0.00023782704241894525 -0.18159084563403566 0.4711793368959885
P 2.4335596858295516 8.416088708138648 10.048158838447897 0.4976501294930074 0.6427781043143188 0.2918983703420521
