# total energy = -381173.98358763626 ev
CRYSTAL
PRIMVEC
9.21259964167009 0.00000000000000 0.00000000000000
0.00000000000000 9.21259964167009 0.00000000000000
0.00000000000000 0.00000000000000 13.48357079942896
PRIMCOORD
 96 1
Ni 3.1786784747392804 1.1965139954734816 1.8890886654430716 0.082479960972787 -0.41046119308032536 -0.11537953991428515
Ni 1.1415884773640799 4.810119291739912 0.9018388671945251 1.3575167581273395 1.0622116760965836 0.1335091596354604
Ni 8.049785175047498 5.329884941893273 9.88407729877391 0.8178283206163591 -0.8009240886618528 -1.4829053455381944
Ni 6.399946796882077 0.17751020933169698 11.314091076928616 -0.34092879340714194 -0.515304352239661 -0.5709088289778426
Ni 3.269256752842541 5.961473124554505 1.5624495020026958 -0.16860188957353545 0.40075682130836787 0.6174586517129237
Ni 7.475121644583178 2.225192853590861 10.506654637882173 0.5862739985800032 0.458803588939455 -0.342362697640191
Ni 3.988060614796243 8.77365596671609 5.52783238191499 0.6005665039432753 -1.0132571005747517 2.121112028431747
Ni 6.786406132536437 3.642532858638708 1.9776484629999098 -0.13332763975227363 -0.5015111551103105 -0.3717956581893274
Ni 7.146185780092035 5.254535090733126 3.748499862916061 -0.6029566014420068 0.03208016836399636 -0.16765058140385963
Ni 8.405529704030146 7.654942373864865 2.245175903126437 -0.9966760562876189 1.354416779045777 1.860431478453396
Ni 3.628013801855679 9.041503084044628 8.483579768098357 1.0863918728872128 0.07191452675211485 -0.3442825403707232
Ni 3.7570915331926176 8.091886754678487 10.921597488613799 0.5510622265655606 -0.7906844132117157 -0.10690004168836428
Ni 0.6466056410762162 7.136834991618194 9.76985856914087 -0.1367844879526225 -0.48685021066402606 -0.7314441394931596
Ni 1.3597059826908493 4.944042850404181 8.81709521579181 -0.2344946356116026 -0.5074475751994034 -0.1490576488930207
Ni 5.151501378130719 4.198034182181263 5.84133898479432 0.3909958852668621 1.0707320548627688 0.9014305681190475
Ni 2.1551218219336805 7.239380436448075 7.5558286223418865 -1.0212511745238217 0.32335144664501086 -2.279843967189738
Ni 1.3778548036696352 3.9672862029651963 11.153906082182049 -0.6107413875937482 0.5259415202385329 -0.2821338347561206
Ni 9.060610015369502 0.8533032080855729 0.8168194716184723 -0.1928733605263904 -0.8292069947669461 -0.4318136906141725
Ni 5.317420294794645 6.907800555905708 3.675513043522949 1.5033160479840626 0.788923464656551 -0.006280176581756926
Ni 4.757883852679141 1.8812312393452002 5.753413014081818 0.27240889415887276 -1.3210127496640347 -0.48003087374934744
Ni 5.16791823040696 7.04856907598482 7.522794083120703 -0.47761095145394517 0.07217523661266924 0.15468836481623682
Ni 2.7295918878088856 5.071545227229763 12.82960422709237 0.7941569451413483 -0.716754655801785 -0.576914154631658
Ni 0.21641317442267022 4.125144095082708 3.680259374775878 0.1345651117038005 0.7921293731883584 -0.8152783005009959
Ni 2.045565588898288 0.4853252682512843 10.697702762152106 0.22687105762807377 0.9227866651973206 -0.3113145700851348
P 1.8095203649802918 2.973477033885738 0.07214202402064816 0.07157462691419286 -0.8358910916553409 -0.18891951808496496
Ni 4.009249593603963 6.327342300367452 5.592620909029411 -0.19231517403007523 0.5386934205875626 -0.8049720334789814
P 0.9307765634262329 4.269920095936322 6.0785956655441495 2.212017751574384 -0.5843675255859098 -0.006521346058285543
Ni 2.3090459340725404 5.5316777209386165 3.918716457238162 -0.6379557432250109 1.0192999643347218 1.1261221015972993
P 6.505173108161109 2.7979033129650768 6.986808730320006 -0.41266205738638606 0.45145229078070637 1.2994167686608136
P 8.098989668878815 8.571107754513253 12.910343448949263 0.008167109191824643 0.16451820642246506 -1.2606581598353774
P 1.087095951430314 6.5258922443952665 2.509791240556825 0.07624220759319127 0.25807859357912977 0.7694496722026555
Ni 5.751177116187629 1.361806455372658 8.814857475377726 -0.024929930472460293 1.3592861913229366 0.5603832468561704
Ni 9.068136709145984 5.962891864874674 6.933993818751842 1.510385296126018 1.4602523840253692 0.5083662303589309
Ni 2.5377487162036885 3.6215465570195837 2.594467927432161 -1.51058507084165 -0.7073729574765689 -0.4030756992495316
Ni 1.2424111660908987 -0.02261508920747396 8.52233164655783 0.07096064747927779 0.423620870390735 0.014633690752774797
Ni 7.031811357527758 1.4571015844105064 13.129221914993215 0.21811336604010176 0.7410158423419948 0.20636419592397365
Ni 3.909836432597831 2.767197718892847 7.670507060689057 0.9679545199832104 -0.7013259799515406 -0.4873392344853026
Ni 7.073387818988296 6.794715897268857 5.738850658081225 -1.3055066836086355 1.2484916996761724 -0.8171942865767862
Ni 4.478668387590287 4.7845819659768685 3.4708597523385634 0.8102487084968883 -1.3022498672342346 0.1378656368319432
Ni 8.118068962405244 4.050706291271241 5.675315965756252 -1.5776893206893152 0.38812267748412516 -0.3009651085300107
Ni 6.409150183764213 4.895031821161977 11.343498615733889 -0.44611853727261874 -0.00075461877783741 1.3803023885632875
Ni -0.11937225778305517 3.1301741384685657 1.3761467877257434 -0.2433844819020647 -1.819962571805072 0.8825388734208672
Ni 6.940127567486703 5.493473070888351 7.521257421527169 -1.8133833759256575 -0.6431714830979955 1.3780202773973298
Ni 9.016601427645817 6.591255637717341 4.619929781741664 1.034941784637037 -0.25113790059523844 -1.5018741733312133
Ni 0.3597031829799 1.91854226724575 11.873686479680803 0.11692528713485024 -0.6357281394460729 0.4284280619713912
Ni 5.494597008025107 6.646586510203933 10.014867652354482 0.00806400795505708 -0.8682579380218207 -0.13670786907841617
Ni 6.665030134366131 8.516891606563936 0.9264696731685769 -1.227950128079395 0.9816757262240448 1.0183903080362589
Ni 0.5644292537001906 2.1738878870777345 4.883655182062128 -0.0036054579630712103 0.8482264732922424 2.3062237427348475
Ni 8.43619844770445 1.2879951083259407 8.077669871158456 -1.4954006497917278 0.45313147825534217 0.8672192123446614
Ni 8.4851357761508 3.8476421734974338 7.989419616944201 0.10831363420643926 -1.3090000414738745 0.5394827492580774
Ni 4.601472338680244 0.22745447490138843 12.927319506014038 -0.2938665498120165 0.29260902325583155 0.7069831782373179
Ni 9.098003956665387 5.718186797443958 12.07912192056118 1.2854052848730702 -0.4434322486897073 -0.40597333251230083
Ni 8.08705013995064 3.674408452845103 12.865928585588437 1.0722135245043016 0.21101892108716563 -0.7993451742105072
Ni 1.4791749727684615 2.328438455981345 7.613996975468817 -0.25158527254530216 0.7360860091405452 -0.35574143293994215
Ni 0.522733028446391 6.983997966218164 0.4784701729770129 0.9032928181387668 1.187660941542045 -0.928326364068627
Ni 5.947672650531043 3.9563600599799984 9.194177046433833 -0.3848049259648018 -0.29604658818247076 -0.52428804379551
P 4.290676082568406 0.9076492536875811 10.434463787084272 -0.3323600779015244 0.6398614448881561 0.08173176995285279
Ni 7.849715152105216 1.7149622439009724 2.84183819989291 -0.8998467685716953 -0.660011694583786 0.4065448887450547
P 0.8317319063993662 1.6724921602907172 2.888423551691604 0.6782063632149417 -0.27214175654041517 -1.5403476468160633
Ni 6.482694365425963 2.93121884006356 4.44925439996538 -1.0855693769859174 0.33161548642601596 -2.535453273292769
P 2.397007833923022 0.5759182865137155 6.627296248149375 0.04351643522539602 -0.25676938784940295 0.1073831519723699
P 2.1936489129658034 6.283914106411109 11.027106626696915 0.04340150691408654 -0.40203363113826246 0.43456502810706443
P 4.2370219031874665 2.484601229794239 3.345732383659342 1.1235312009416716 0.0767299458628872 0.1896085737321896
Ni 1.4528453634499994 8.81172242777413 1.9425512227547925 -0.03683413810921398 -0.6733757745955177 0.9275300934195767
Ni 3.1928290275430444 2.5427143073242804 11.999393320867418 -0.7731014100226298 -0.5851406563065085 -0.0070926451807232695
Ni 7.642965994538763 7.22955059280119 11.032944650988414 -0.4040789437030654 1.0423609599192434 0.28768356092975617
Ni 5.013459787498166 6.673689977878851 12.643018686011331 1.3752815383099284 -0.7871026093977282 -0.8604271291234924
Ni 2.181165840668212 0.487288473200817 13.199782135682868 -0.45762293836779255 0.5414133906218869 -0.006550656634324203
Ni 3.3125836082045863 6.337236632210709 9.03689125674413 1.3766061706586228 -0.013458439497751015 2.085154379390215
Ni 2.927220571888538 3.227965881965932 5.004117290363858 -0.6484119055613284 1.496978792912125 1.1777079440943912
Ni 7.666642375206519 1.5291348997572716 5.73659817750797 -0.2050799298949113 -1.1090954851323156 -0.09834700991203062
Ni 3.4229874003922878 8.12772376666198 3.3169853882369034 -1.334722128830327 -1.1174209742788757 -1.5508490605680192
Ni 8.366753872812021 5.47210905269048 1.601147026125229 -1.6394055667521896 -1.1832090764182783 0.9515087157223613
Ni 3.0099036522360527 7.333487140152795 13.054482859178696 -2.450001117065535 1.818070754098998 0.7447668247439948
Ni 2.8902780479672527 2.985158610028429 9.594719682915741 -0.29065549907388655 -0.42199516186185393 0.8732772456132832
Ni 3.9083900544792174 4.8313266957465935 10.794110773207334 0.882454541237177 -0.6829287083912754 -0.07057832443919458
Ni 6.640856273326367 8.42126482394475 9.157987191890196 0.6903046891403725 -0.21691163242251674 -1.0688980869778237
Ni 5.596543633888684 1.4745963108260978 1.5521885087000706 0.019737844748559552 0.23797230974755793 0.11231889871109044
Ni 0.1962560067568917 0.032712098239326436 6.401877757733424 0.19756305269257587 -0.6758491758366747 0.0658526368287511
Ni 3.278616753915864 4.889614812666786 7.20849243290611 -1.2265373068922683 0.225721774514979 -0.14921037242080107
Ni 1.6921794853829333 7.8791033444515755 5.213449660824958 0.9420141459683647 -0.41198122926927755 -0.4030944683026091
Ni 2.5095857995883843 0.9494781403739159 4.3420740963362965 0.007630777072380406 -0.239234207179117 -0.37974010984738465
Ni 5.981363126835317 0.027696759081534017 6.987779738305368 0.40272011568232585 -0.44546367729743924 -1.293250491949102
Ni 5.103623498624755 0.43096908878984636 3.70972126791809 0.5773846665101734 1.1264218922259053 -0.7288002741124094
Ni 4.069315742224107 3.263194862383637 0.8734612970112995 0.9469681475395304 0.7622901783397388 -1.1209045619521019
Ni 5.385326365573646 2.5870545486293035 11.440189453593202 0.29574962576734226 0.20381134759513286 0.2539838546844658
Ni 9.088597892594656 9.279206575869317 4.118961519570594 -0.7433082379205973 -1.8312857101273752 -0.6624845816043106
Ni 8.759367224920101 0.030304845994779856 10.167542536003635 -0.6843284169522795 0.8095460260029089 0.4519189460044798
P 6.1160329060575975 3.9357883253375467 -0.18954647055442989 -2.0048904522321407 0.12475995268792063 0.9654356102160986
Ni 0.7258561068568802 8.13326053895043 11.936006951394099 0.7355028829435656 0.27911998763046125 0.02312578738418598
P 4.622827144278633 7.817093337340809 1.188011687411897 -0.9347435804488805 -0.42458940495159136 0.18994281714315675
Ni 7.245663429294539 6.5045466513963595 13.274535010396606 0.3620910293070538 -0.45785819430705016 0.121913484378061
P 6.742756836192535 8.509410975784862 4.34169637975755 1.9344717932992619 -0.3002133179656507 0.6446346979070833
P 0.15820797089781258 2.741955196313216 9.662596273376403 1.249490573254332 0.04327192331475773 -0.019597719626269477
P 8.54596657052792 7.923296184164893 8.058793254820623 -0.07125786700472245 0.4990729779824631 0.183882984102322
Ni 5.649221277724571 5.614581903673691 1.4398565194408672 0.1968644839636545 0.5617004230056971 -0.21546667244587409
