# total energy = -340896.99781908223 ev
CRYSTAL
PRIMVEC
9.00316017481612 0.00000000000000 0.00000000000000

0.00000000000000 9.00316017481612 0.00000000000000

0.00000000000000 0.00000000000000 13.17703496922358

PRIMCOORD
 96 1
Ni 6.1843697339407475 2.040449204323601 11.422749522326205 0.8912317732091747 0.2623731071894256 0.050061178322449267
Ni 4.905551864699058 0.31119693113748664 6.012364359493493 -1.2954948078985882 -0.6961750318782204 -1.0166015915669524
Ni 2.5715726303778736 1.521191943331955 4.739950438058364 0.3522961547038191 -0.8183150304447906 0.4281568105878756
Ni 3.247475874620385 4.325505266451832 4.817550475924669 0.3756006337577144 0.4931494134091765 0.08636181252569643
Ni 4.801025175490336 4.291995504416099 2.798973548841695 1.5392305024924846 1.2670357812269468 -0.3602346928246054
Ni 7.280117344924887 6.0635743343616415 2.6514036513265156 -0.3870181315660367 0.05147091418578232 -0.5765315744812588
Ni 5.145531098192466 4.547586217589775 11.62783700870261 -0.2209806602855678 -0.8900590930573123 -0.8875160149204844
Ni 5.530650276279656 7.758014088239972 12.313082832220909 0.45496390347839066 0.25817706683020697 0.40635257022859045
Ni 1.8173238866095833 6.322658273669081 0.49941609667827996 0.3138681897449239 1.0697712336113965 -1.151166960381069
Ni 2.7083666455232063 1.681529222239631 0.2335086623018228 0.5185981924995842 -0.8457052495322853 0.8547316214006118
Ni 0.4891650985445116 0.02267445880897201 4.79003681854122 0.12702535168332962 0.5722769129699629 -0.39784016188220517
Ni 8.585242448091458 2.3616459454269902 1.434517620361991 -0.8330721341493073 0.34203231088396574 -0.44613602077411557
Ni 6.910843728681569 0.6732076980970253 4.816325145829811 0.2107751805074757 -0.25112761618259327 -0.5239237184775557
Ni 0.7682126451432021 7.370446050595094 2.4642369552059202 -0.10821258985220074 0.2940200446707453 -0.11119224130581495
Ni 7.758176145122466 3.9936217742639677 3.9987688809151845 -0.8341625390000086 -1.016574852094075 -0.7172315954382035
Ni 7.383023465308667 3.91871548191112 12.744590792922047 1.0497263991453791 -0.6253365117991038 -0.7489559231246778
Ni 7.8321190993404874 8.652631101728606 6.857724183548031 0.534819539454453 0.530960313609363 0.45049532618407573
Ni 6.737073734847156 0.6971588050136457 0.48250996257008555 0.5603133128501834 0.044217317947162556 -0.48178359477439603
Ni 1.9543069681178262 6.562952617767339 9.057893950309817 0.016067080765191685 -0.586813416023241 0.5368471114074431
Ni 0.013637986977895889 4.817879091269728 1.2625995765680804 -0.0011307711703335366 0.07216700908255314 -0.021072504399583063
Ni 6.563870940101473 1.9217155284162264 6.8933685948526175 -0.707225376155111 0.23314917732730167 1.284524939150646
Ni 3.304492887777907 4.283442502284464 0.3835310206387469 0.34920157493889536 0.0010793491071078186 -0.04002436291173753
Ni 5.945416860703135 5.510897342935648 4.670810669774266 -0.0738521100944599 0.5273450854542789 1.0253633969199825
Ni 5.354737530332265 2.909974410506057 9.11227573849478 0.10100141681574218 -1.1499138047002584 -0.24954355952492505
P 0.11024819747677853 5.612191897654625 12.262456262129739 0.6860325441275797 -0.5260538774466811 0.9721461894670547
P 4.068230962332243 6.124831835944427 12.55639683622964 -1.7053775027676243 0.4650315721270379 0.2962548475385349
P 2.401268853196808 8.534860763956056 1.2064693746842068 -0.20652051899617982 -0.2279483498526526 0.43490004284898004
P 6.344707012848423 7.483858858860577 5.706657555408501 0.2115773646937969 0.23862691261242128 -0.24171403617817727
P 4.796739671264381 0.8694108660486967 12.63830488622225 -0.67976650861321 0.9213931272839034 -0.5343248592062217
P 4.035927623755078 6.157918449453648 8.238953899681892 0.3554987208015168 0.5107259888403591 -0.11980389423422591
P 4.550809348919382 1.1022298862839055 3.9239895331202908 1.0672695502354652 -0.029731979846793953 -0.4143327602205897
P 0.2644408195898852 5.473633263122133 3.4310359047894714 0.3031045234705167 0.5657745930750707 0.683095572986443
Ni 1.2549775011947726 1.0570790381890098 2.511279367245928 1.0716190854534124 -0.26340669066026245 -0.053322108461908165
Ni 1.8154062135000693 6.648419616962722 4.683921971884057 0.6898974263996248 -0.794401971272619 -0.4499201704068961
Ni 6.117026096104293 5.612624049341276 9.108507015660779 -1.0134180516326483 0.370123155582911 0.3477327037028527
Ni 8.370715148309769 2.307662997236164 10.24057247432787 0.9112935769560563 0.5092049242101424 -0.014342127654284977
Ni 2.5361181857522106 5.006279220329306 7.151202895532824 -1.021491315559086 0.047852343596588555 -0.5887407149529409
Ni 0.4277374372351072 9.005590991800846 9.211485161325667 0.12108996003550114 0.3391285069736095 -0.3082559857644691
Ni 1.5341654970916248 1.1207493866889304 11.434728226890563 -1.2706798057374376 0.29521226520663346 -0.8748101373180418
Ni 4.041455564080155 6.9339638439174 1.6022617991156631 0.3977411744104956 0.007750333369380201 -0.6072146053874123
Ni 5.772259081758144 7.776992749812064 7.795190837400142 -0.9996940171783364 -0.1027849910787262 1.00231242863779
Ni 5.186252391499189 3.0031030989793575 5.041178169974419 0.3381807983483595 -0.7308059916885286 -0.2920012144685036
Ni 0.7807738541685258 7.351098259457321 6.903422423779351 0.19246481223406206 -0.41720031157637183 0.41917157637012975
Ni 5.064799761229969 4.551205487965478 7.1950302790873515 0.21063068450981143 -0.4886114163295069 -0.8184286732045196
Ni 8.13274361952726 7.05335475051489 9.105264977694882 0.47318813979590124 0.018382616272245758 -0.1536357551820064
Ni 4.665851729169945 0.4933245585285279 10.262986741808836 -0.08301140799622478 -1.0884839795295511 -0.19263630481491983
Ni 8.349800807307885 7.057829321103755 4.749793593037855 -1.2806657133055557 -0.43719140998631806 -0.1241500870180636
Ni 7.482769476483811 5.98072725476658 6.9861875746171505 -0.3425614439145584 -0.0744293227541686 -0.688338309442621
Ni 2.2775744360530847 5.1093293912753035 2.6039795052966324 0.4846148935756041 0.6718441684423397 -0.5077388811875772
Ni 2.2760168893491133 5.461037842088284 11.328876272509445 0.3649089583718232 -0.4043715352428197 0.05886463554669217
Ni 1.2108350070353961 3.3607896481243444 3.772571684961889 -1.150908821623676 -0.7327698002831187 -0.1204261011992571
Ni 3.5092607619693936 2.5732652244839236 2.557069439710662 -1.0838721917891527 -1.0247800136126868 0.027281718534088496
Ni 1.214454277411099 3.1591998894617705 8.241484687996843 -0.6782446726520448 0.6584075833214595 -0.3846442320172214
Ni 3.540483721329932 2.667852424899671 7.073907164479202 0.5753208420026092 -0.5939765094305834 0.03849481364108854
Ni 3.9741659452045326 6.601459133679975 5.987354480944577 0.507030799376959 1.128438922655934 -0.2122239971388603
Ni 0.7451924649849093 7.446081598919165 11.346995132288304 -0.21152182886551316 0.3478265489682397 -0.2957776507918003
P 0.4838271248983574 5.40283241179247 7.966940522099462 -0.87342688381727 0.1766646119770119 0.05419628353674537
P 8.52756820424382 1.6784231319918268 8.009251773486655 -0.525254007253205 -0.2592011372193472 -0.16641233812138434
P 1.8328183252080512 3.232296546626767 10.350903500877923 0.47422943657622196 -0.4070094870862991 -0.2454755601031385
P 4.030408686590138 6.132628572624423 3.7026153300532236 -0.8763129471158134 0.14995187857251596 0.13718712270767988
P 6.8256828369308975 3.934660078516516 10.352511465278669 0.4293017228255961 0.4865722744122911 0.37638019223621627
P 6.304669959712232 7.7644063319383525 10.15132414787429 0.13732596227838934 0.07984663711499797 -0.11457478462480268
P 2.3584498235778004 8.391017274422229 5.77287219696358 0.6046612428379392 0.8785791174421708 -0.26715510195910114
P 6.708308638204446 3.9389185732620566 1.7139892158032077 1.0093531375346554 -0.214996674787991 0.8757141371895498
Ni 5.241108646223456 2.8303504622406024 0.5244565859716664 -0.43589608821366216 -0.3060013854023375 -0.08048247092678397
Ni 1.312075542793542 0.9604931362225014 7.0254683623017025 0.4269095684443357 0.44789311267453835 -0.5563705261523515
Ni 6.926347170440176 0.7079833044482405 9.11497668653635 -1.2001207645719525 -0.4421546675288643 -0.4502263887934052
Ni 2.6786021981051156 1.446807834267144 9.1537830076816 0.287277326630273 -0.03797056570650235 0.14959680922594235
Ni 6.364225864028828 1.9468883641636496 2.771209603606393 -0.1345658830347489 0.8447997069988805 -0.18369323668901913
Ni 4.225570188913778 6.8438512140905186 10.358598501848352 -0.2641829067046547 0.2729434265061041 -0.2818548700631211
Ni 7.86162245511456 7.37041003795454 0.012693555479360585 -0.4961360068413262 -1.2825392761791847 0.6019065629109376
Ni 7.720966084269784 3.963488197280196 8.284058831660081 0.13731156410068612 -1.2547456510056842 -0.5972148138622231
Ni 3.119739038574447 8.43524980018299 12.1465513791379 0.04363290619860228 -0.8526132895060283 0.7454180851747485
Ni 0.13968673049785324 4.716296435426316 10.116378381796455 0.22254029146320384 0.3339184235275797 0.5092864281803552
Ni 8.568091428027493 2.3773654630289216 5.764228262914545 1.2324503299425935 0.5043198282036992 0.024512897539699718
Ni 3.7068981333311384 2.554385597673356 11.276221290439056 0.01149231691031569 0.30980661808104065 0.35965825149584507
Ni 1.2172812696946076 3.4471749696538603 12.394595643483434 -1.5892495147230887 0.33507979082553263 0.6879302753709249
Ni 3.0891823130641622 8.388676452786203 7.848136621543007 1.0184715548961556 -0.450019929209554 0.015036582618148298
Ni 5.498013820777364 7.890666649721566 3.699466024636754 0.06292672143120775 0.2655682170879555 -0.33047108840892764
Ni 3.014789200839213 8.314724495408042 3.3830193508224715 0.0016755879302100176 0.4666032874895319 0.6084009123860297
Ni 3.5284735057050884 4.277491413432873 9.34685307590505 -0.41315313809019166 0.4028250166913063 0.3443786996289553
Ni 7.2489664108454575 6.042677999680036 11.231643043328974 -0.2540530173595044 -0.29748486329089413 0.42919553626503504
Ni 0.4785287651568128 8.85865941833949 0.24828014714116384 0.8104554251910557 1.487061019577781 0.24779238116177324
Ni 4.55884016776298 0.5040392194094323 1.7118284573699525 -0.07947331293597924 -0.7339867034093553 -0.18418894537851505
Ni 5.853080450322028 5.525761560324416 0.5454051389820759 0.11368569715163 1.2720419761922868 0.2860509104223396
Ni 7.879520737470024 9.023507280476586 11.204248227659352 0.0010268986026175863 -0.41142664231738824 0.8541505520861612
Ni 0.4007468634557078 4.928590951493643 5.688684546823888 -0.14577023639100053 -0.5355864995274647 0.509079968596504
Ni 7.885507838962169 8.871155804611817 2.5647122223522882 0.24665106846847845 -0.2995224625462132 0.14140038945807906
P 8.503232662389284 1.7217553417387326 3.6444252051296466 -0.6396593561796791 -0.02149956463467265 0.12706700355454248
P 1.67301223274855 3.183481412355476 1.5065302970463044 0.2047238321070732 0.018784993916987 -0.31938654845999187
P 4.7880246122502506 0.9504186000274489 8.014813025504244 -0.049444627784372905 0.9535067199889965 1.3879879301330031
P 8.419539285741198 1.790413440955417 12.42167444823219 0.13335823587989293 -0.7212808258069127 0.3402019425434464
P 6.310612045403683 7.738972404546911 1.5088756202624 -0.660027892533702 -0.37793185299405235 -0.066168368296957
P 1.784894503790478 3.1845077726112723 5.937519288629587 -0.5190393938020609 -0.6084783025911843 0.6585297107216207
P 6.892657345201671 3.964856677621258 6.134990101528769 0.37137759681530236 0.285699697730508 -0.9539687472270797
P 2.2935190326584802 8.391827558834699 10.073698000843583 1.0076281844237487 1.2440038391081478 0.6499728222905452
