# total energy = -340890.519126005 ev
CRYSTAL
PRIMVEC
9.11249228243065 0.00000000000000 0.00000000000000
0.00000000000000 9.11249228243065 0.00000000000000
0.00000000000000 0.00000000000000 13.33705356017274
PRIMCOORD
 96 1
Ni 6.5118235070235055 2.0687180208401803 11.628670230053098 -0.52610375684801 -0.29442267942580264 -1.0018398598767455
Ni 4.790501033309086 0.4155998188664994 5.885001582209235 -0.5034852481175458 -0.8946971060499559 0.40464715750170954
Ni 2.8684759148540926 1.2461880083605834 4.687547183114149 -0.8455772085948535 1.5369159954266949 1.0218263303010016
Ni 3.6247489952152465 4.33903171067449 5.384394966896565 -0.5193019034348283 0.6330943013676517 -0.4029767117778221
Ni 5.315745094278286 4.641365982965194 2.8296831235294575 -0.4502749826431535 -0.12792395223819902 -1.165428869616722
Ni 7.159812840394773 6.237136536623512 2.55792673067991 0.6719184733237008 -0.16940227398764374 -0.1703731225413453
Ni 4.825192291812031 4.49149282073826 11.060378755065532 0.6881485620293181 -0.5946964183157436 0.8248718577267019
Ni 5.971215783896184 7.638555852732367 12.414435892012564 -1.0307274894453733 0.8858350276736356 0.6874728761185321
Ni 1.9237109295458898 6.474735663023772 0.5230734652835163 -0.7784063671753111 0.08411029748735838 -0.9840280285063052
Ni 3.124956125472398 1.3157254377369882 0.49953680870687933 -1.8160308408508339 1.1385731828764585 0.11119404107802787
Ni 0.6878145700829229 -0.14805157499952645 4.866784440796794 -1.0001622150640066 0.36134463805933253 -0.8473057612501858
Ni 8.761415389178357 2.4361701637014237 1.1097922223684427 0.3398047071050277 -2.4878148454791993 1.0646768498076244
Ni 6.896653172859563 0.948628682078691 4.787028262461838 -0.5437358681074764 -0.1566092359880335 0.09594688511097024
Ni 0.8201808119432007 7.639011477351528 2.63260087201274 -0.3390524023200354 -1.1434793619288242 -0.26207100256797444
Ni 7.532140166681042 4.124405177572346 3.7124221069327494 1.0832440712868505 -0.7469702601532167 0.6579537836134928
Ni 7.811465395704098 3.694359324530717 12.706771026411154 0.182117407561467 1.06895876501243 -0.8334310601506228
Ni 7.798133819347438 9.14538848073039 6.74814870698859 0.6069268989436644 -0.03564963088280957 1.2542710253621108
Ni 7.276607655270593 0.4746378345189501 0.43904899551625726 -1.209779113597323 0.10203551450721138 -0.3124057462667846
Ni 2.007190472268632 6.606821240118647 9.15543409233366 0.2556815541018629 1.203784843687101 1.740753054053441
Ni -0.13570505906949226 4.647671827694386 1.3941484584362778 0.7617954980915074 2.086753605556535 1.404501868627626
Ni 6.127586153192357 2.206189080933542 6.884613747922843 2.427156608367194 0.11369572445395904 -0.2135224042353097
Ni 3.436658039933059 4.404058456321198 0.6707031318856993 0.2934045225739334 -0.19934816961745666 -0.5529751273175574
Ni 5.9419737958384085 5.891426800588649 4.888323639043026 0.3713819676906765 -1.5328315409446762 -0.00957350262104803
Ni 5.303142517312284 2.9142479640950416 9.244032122028061 0.2771986022380323 0.18330011501565852 0.8875563812401166
P 0.10475174494214698 5.4960722060499645 12.737900211641495 1.2322919499878584 0.4642743822460391 -1.548969069936487
P 3.9929848124214473 6.048261906996368 12.655743802812797 0.48800000799775306 0.5509447271510899 0.7497395953682378
P 2.5591614733978374 8.45991946618691 1.396883117400484 -1.0620047022921002 0.4696220197111976 0.06390399774281252
P 6.385843299825393 7.94713218230558 5.643107738148761 -0.45035957193715986 -0.2481711046574307 0.09494441198838488
P 5.093136017848436 0.978344519740394 12.800851131523304 -0.4308598113413354 -0.39558376174786064 -0.13719303624495083
P 4.002106417297057 6.346759819993733 8.29740818827368 -0.853568454330446 -1.3607123822465017 -0.08735091591184312
P 4.882573656349211 1.2069860661279412 3.6722241692826203 -0.44537548845900715 -0.2202196137498272 0.9772922524443686
P 0.2850888804554465 5.452104430300895 3.55289790402274 -0.33094622827313325 0.7237634830194503 -0.12732642786351622
Ni 1.3460609248807507 1.0795478601485125 2.5330669402092285 0.19600393573557212 -0.4879488430448435 -0.081138359343228
Ni 1.8651176035217407 6.476658398916632 4.7617146698704715 0.4700660492271517 0.4305024280019166 0.10177351909507634
Ni 6.175463188173832 5.644824531713761 9.279348497508495 0.04846580881087137 0.4027969916668482 0.4132215294342819
Ni 8.868924574315669 2.5094254899701847 10.369799454793538 -0.05182366953951075 -0.06666999052372388 -0.16449275250116832
Ni 2.285467764667616 5.459403536699859 7.073012705447583 -0.20873501014899537 -0.35913528911283954 -0.3454909588565276
Ni 0.8457614005613955 9.36345042346101 9.162036093065309 -0.3735851459895824 -0.6021765287428726 1.2143248239864766
Ni 1.5584822348261542 1.0333566362579352 11.621095015134921 0.001344686953352523 0.1042219806355689 -0.41638707164645705
Ni 4.021953425707726 6.77889243379112 1.6466328411445381 1.0536684145122626 0.1922814925786624 0.10323159169784157
Ni 5.330124607259019 7.842001357680291 7.848402883579508 1.7796615581931803 1.7392304467613273 0.6390677453422672
Ni 5.417732109031363 3.0405106585570345 4.705805884102421 0.8853125795112624 0.05505451777198261 0.38865695272104034
Ni 0.5849263298331457 7.654466264433481 6.926025469558417 0.41504289891373686 -0.36563632345615094 0.3162783418483133
Ni 5.185317990797159 4.642942444147492 7.429245547686597 -0.6005400215807141 0.10146318694350913 -1.2129269151976851
Ni 8.347717347472237 7.496811033711271 9.149525552272376 -0.3225631464157606 -0.5792147777403767 -0.09499557694129446
Ni 4.629537967851765 0.4147605583180042 10.48284447905366 0.3104594211736911 -0.667437811844528 0.005506531640526001
Ni 8.203266118213323 6.992215880482463 4.739829196913675 0.4148395246536791 0.783442901157954 -0.130187294351079
Ni 7.021904380667017 6.252144811578687 6.980893608696304 1.5388286390683756 0.10913690143868301 0.7168040209824816
Ni 2.30513252323062 5.040265337040953 2.6526602014959377 -0.27805632225263727 1.0234103869586697 0.3327349447424398
Ni 2.419722114949699 5.247446963866001 11.52226730149111 -0.9004630619994557 -0.21149791760611317 -0.6005335938228109
Ni 1.0144937770246554 3.241185965820458 3.6962847941712926 -0.6361533999089496 0.1965166137059325 0.5592463050382498
Ni 3.5859297776626993 3.0634559143779994 3.18363510892495 -0.48566750320983454 -0.9307845958011324 -1.0230221503813155
Ni 0.8293652930162552 3.531309498317637 8.082747938949717 0.38359753592026197 0.3825832357231347 0.057184419630791836
Ni 3.861300184991434 2.70053268023122 7.177162114643199 -1.652013485324187 -0.09436591377709554 -1.6515324319227107
Ni 3.993750261781638 6.901546581269355 6.045259340756094 -0.036810483960130154 0.8452810175106733 -0.27097807524961715
Ni 0.533258498020249 7.316128534736648 11.432762578804578 0.6210114020611887 0.3576314508738035 0.19778571022634323
P 0.3168058214445062 5.826873904545868 8.144605359745539 -1.1367392149915132 -1.0379898274347412 -0.5286082684374186
P 8.523387975636085 1.668579367800302 8.258464129575483 0.35819889334149924 0.6371435317363607 -1.1519771149871902
P 1.902715747094935 3.296744831880993 10.459691458406358 -0.29754656976676497 0.2176937620041799 0.6928706500953358
P 3.9709872558083372 5.978296190477952 3.943432901339935 -0.8509685548137538 1.0109711327540525 -0.9435136133320267
P 7.100271815162768 3.9006934895641243 10.512172124539838 -1.1972089902417962 1.400198613266582 -0.031865481250029
P 6.3682653020181474 7.59084284261379 10.163274838669322 0.12406832593753471 1.0352253773157267 -0.1643495420550847
P 2.419822352365914 8.572859696784624 6.069186012006733 0.7567054851631096 -0.11281023652521217 0.04127340482749021
P 6.9391902873044655 3.8956269437990505 1.4677427694216951 -0.20575124493032304 -0.07226985320900457 0.5688974549747686
Ni 5.188361563253157 2.8614684082113913 0.7417486787515282 0.06509724671996531 -0.7121415825098059 -0.4555539716539058
Ni 1.2489582060450846 1.2364376415105307 7.065877623911517 1.5124745745548789 -0.5175442973137733 -0.6684443987321713
Ni 6.9290207458047846 0.6217690477877706 9.19487113686979 -1.0540797910180686 -0.23125427429743398 -0.755154595736222
Ni 2.878882381155738 1.9586026628812658 9.088695109368144 -0.5512879694231215 0.07585217124362421 1.4650865721892188
Ni 6.668093638903464 1.8265261982787746 2.505645628129622 0.6145790161722834 1.3293132991099301 -0.01951287322194704
Ni 4.270596892876456 6.785052478642182 10.5920877714915 -0.3416736419929664 1.511396768109668 -0.7382506208920319
Ni 8.104495813271527 6.988397746173891 0.4128177749419002 0.36606184102934375 0.8013290374097554 -0.08311219524014718
Ni 7.430544989100445 3.763823853968056 8.311438692796134 1.217301390116297 -0.26103767620745366 -0.10355117982078939
Ni 3.535091182656676 8.392113410363319 12.610410975704719 -0.3924069066817758 -0.606220359794943 -0.1791243863714141
Ni 0.24470504796069964 5.071184023697242 10.356488837169358 -0.19130653025990277 -0.9070947083833603 -0.5222892681979262
Ni 8.717365600997837 2.4830812744902757 5.96634424546811 -0.8537016374742007 0.8378353598659055 -0.6257072648749611
Ni 3.6676414968630953 2.329708915188183 11.641847805288482 0.08672793761586353 1.1684756268628458 -0.1484261859566089
Ni 1.292497694652143 3.5516121313474667 12.912815414186774 0.1352629091017735 -0.4744004149364475 -1.0649331887928046
Ni 3.1185135933574566 8.915826572612138 8.463414107015879 0.19907074758635393 -1.669192311096319 -0.9510955394443426
Ni 5.466420155834944 7.777530474068961 3.540347268263322 -0.3626384171700916 1.1892475693028746 0.12995640928719554
Ni 2.967710956907434 8.38483252894912 3.55644539730753 0.8989738790484388 -0.9972692097869276 -0.2916263476275881
Ni 3.210422191534684 4.366314512869872 9.014087489229713 0.38702070266919797 0.007780929496999502 0.7112730638619235
Ni 7.375915597262999 6.05518740120762 11.43489672452073 0.39954146084402803 -1.1464710975672965 -0.0026464364839115712
Ni 0.5466247018479663 8.92585942672607 0.30175471777513024 0.5727826489617878 0.11884641541696306 0.14868381049336973
Ni 4.848902996993187 0.378518353611434 1.729402520710627 0.22034379803251727 -1.3236404170948688 -0.50857217572215
Ni 5.886196229960676 5.301447593729003 0.04205141860087737 0.20048022633937085 0.04978607028419168 0.7977901710185615
Ni 7.7103805176969615 9.034762823198015 11.235201010188502 1.1997063027423531 -0.6674282987628312 0.9696457916427041
Ni 9.256925387501088 5.192945146921921 5.90125917987015 -0.982102015128186 -1.4741576812525516 0.395602530800938
Ni 7.81491903031734 8.786802792958026 2.8918603928079296 0.3788422806234637 -0.5828989114601832 -0.7398413624179194
P 8.624445516166073 1.607106494183053 3.7422436495060976 0.2845473292936196 0.05813907023457729 -0.48360419292290263
P 1.9297069495340533 3.00830711047471 1.582775228270599 0.07733852598116359 -0.10544222619591517 0.30319579763274235
P 4.969579733624262 1.0763767127991495 8.193672486232263 -1.3107465918513361 -1.5157036230151382 0.8053715829102452
P 8.657797238288683 1.5698910752899542 12.379880409646129 0.5344351595318408 -0.3963196114726207 1.102603706760385
P 6.2999124966515625 7.803537527330691 1.3320623140816377 -0.13704056982748658 -0.5332961608313912 0.842655149852052
P 1.8679698136376908 3.0816808991444535 5.8201835126381045 -0.12929306467158377 0.11080734716257047 0.7750310229451749
P 6.93931786219783 4.173302811700742 6.074014721720605 0.314024255706814 0.16148636157467672 -0.6808327450941951
P 2.4035565534618546 8.326193640463055 10.603451049493383 -0.024302067080474277 0.26589423296880654 -0.3462563762676424
