# total energy = -340869.8602311291 ev
CRYSTAL
PRIMVEC
9.21913132327607 0.00000000000000 0.00000000000000
0.00000000000000 9.21913132327607 0.00000000000000
0.00000000000000 0.00000000000000 13.49313057569031
PRIMCOORD
 96 1
Ni 7.895263887656701 7.606843370695771 3.175014363442352 -0.16751457004662762 0.4403991182903383 0.7066286231113765
Ni 8.223557146693897 3.5674073192152895 0.8395235806334185 0.17456093537044773 0.3219165139706972 0.13393313454675645
Ni 7.226913758278419 2.0847036809762196 7.474641030493767 -0.5722200915900983 0.5387152749644335 -2.789915867385866
Ni 9.126764641249729 6.456046890891331 0.36416305438294 -1.2611785511152214 -0.8491129896622537 -2.961679699627151
Ni 8.437570056418398 2.998144411070701 9.07836696863059 0.7518887805007567 1.0483074073106655 2.3764387702973524
Ni 3.268965606731377 3.3707079377264484 6.532685527857807 -0.8610112837617365 -1.7883647423941331 0.3334440549943225
Ni 3.9808761306322857 0.11016124153011145 9.60416720504238 -0.20810097610942224 -0.6665577232324197 -0.664462788376604
Ni 5.596740898709414 7.875820740133268 4.130557943430037 0.1919657611104565 0.043390965391125275 -0.9355431935320403
Ni 8.44143287235596 1.4270938393479615 5.331675206604394 0.16875795553542547 -1.7475605638935776 0.15370208964356757
Ni 6.164722347628892 2.489644796111008 4.6926815564384725 0.14139704702396938 -1.440435863520074 0.5482828640482106
Ni 2.8234326572932806 8.680669324813563 3.6929617439696187 1.3921153220378153 0.6445354533250578 -0.19813486603564587
Ni 8.914945884730813 8.587556100542974 12.58884799703142 -0.7137618917220482 -0.6013247222655386 -2.3346539730510822
Ni 6.491927749194414 0.3355671534876416 5.802558922784992 -0.5946866481237307 -0.997669787659456 1.4327271820219065
Ni 7.037248573831009 4.162428479697702 2.698828724957001 1.077532365614054 -0.5423191902656079 1.7790979723802265
Ni 2.7188969295700915 3.5327341670883894 12.509332991156782 -0.1703479257303647 0.834113430929628 -1.2982998814475513
Ni 4.0263817618203674 7.344162667810435 1.744094584681292 -0.3804849584332093 0.5251107968071215 0.6812608337705494
Ni 4.953568216408655 1.4647724282186445 7.827985434512198 -0.5346202789594535 0.5658321857858835 0.6038791132562761
Ni 2.4297020055954266 2.3372986544207617 2.3569261845665124 -2.3090712394859714 -1.5487199300401584 2.449775374207974
Ni 2.040497947275479 1.2934440955607602 11.846442431225338 0.9257305783169928 -0.5027301151190761 0.3929789771351619
Ni 2.615117170598406 2.202763874046434 9.407626392608732 1.7853889475952607 -1.7862824059438074 -0.6242119112763572
Ni 0.9256284214297008 6.656627526579966 6.707003624736577 -0.5276243072575945 -0.14564759477020725 1.4637040900193954
Ni 0.6429034836721744 1.581007233327911 0.4376127938964263 1.310875918340349 1.5801200416179948 -0.7517527691435246
Ni 9.263936093123204 3.7695736454558593 12.321306046308669 1.0188631339076193 0.2118820404184093 -0.43470386767777386
Ni 6.239268241832059 4.054241976052617 8.670131857948089 -0.3171905692499376 -1.8912376652009752 -1.39266425256275
P 2.391802157577962 1.2549173466274144 7.171706835417075 1.1780594138965388 1.0470802197717837 0.4131490243251336
P 4.938458060509696 2.031868840550997 10.135432542379675 0.040860742770103826 -0.002807387541808068 -0.11203607736334899
P 1.2255083183676936 3.0372980609199276 10.73995125173769 -0.26951460333021326 0.0756066308917214 -0.6497493934258294
P 6.981316105350845 0.44605567417236747 3.666595950891257 0.10397489762176933 0.17405648493020348 -0.6579787233141572
P 8.849434739021227 3.2540121760613876 4.634323534561714 1.1022164986242955 1.8016167223080324 -1.8518349950336368
P 3.9247869369231503 7.542235699835545 5.339474591528445 -0.7522124823887626 0.49783370625872325 -0.5348984723215047
P 6.419068955985456 8.14163594759801 8.01852182685006 0.6169673138988019 0.23591876965263886 -0.6284580881472209
P 5.503876590978955 3.5348545672450467 0.6089392827280875 1.0007610249902699 0.49401741783642666 0.27320979279361335
Ni 8.147757450658968 6.387871416289251 8.297573862771012 -0.25228332705359136 -1.343077699883874 -0.2878316564718463
Ni 4.25874074246551 0.17156434241445134 11.851758182226764 0.3878606820719901 1.5996012902710581 2.5119914427254026
Ni 9.03083958198879 1.2221617737726218 11.168587377666563 0.12120874500155253 0.4731966244363334 -1.09894271296903
Ni 7.978245286830916 7.430278571564055 6.0120258789562415 -0.8985306208634332 0.1551493636130554 -0.1392298641693215
Ni 7.663236795731731 8.05147284528451 9.911379076956846 0.20922763351469773 -0.8060930344573021 0.9077685945219333
Ni 7.333145806126934 4.268144256203727 5.821139159635976 0.6259162955619737 -1.5974572473448616 0.605980475869995
Ni 3.4568422797423017 6.915961684870231 9.7084825955319 -0.4350190849253475 -1.4662011454096362 -1.1855485231847325
Ni 1.6382488184265336 1.8550459057480364 5.1025217178482505 0.5894367125787009 0.39797360213627586 0.6122148868154811
Ni 9.18126814440693 2.334505257692644 2.6519263954048595 -0.4768774157220303 0.1364150204283457 0.6991883647832474
Ni 5.034327804983938 3.097609616680145 2.751587046593961 -1.7736531472155714 -2.3775739123430606 -0.4960637588424941
Ni 4.967977718342807 5.577961528626325 13.233050456277825 2.3784848541931036 -0.3322209812204988 0.4484209601535503
Ni 2.5730318370543226 -0.02229739051691557 0.9314161919442627 -0.14943920060215551 0.17312574558581798 0.3893295533080327
Ni 0.8283241801538233 7.174530655277875 2.2689240465865783 2.1960733124299856 0.4244364243134948 0.9530907154975005
Ni 1.9315831322722377 5.166161379941308 10.792250460645077 -0.5357996439795353 -0.0606366398454504 -0.5124666256805497
Ni 5.7255045030051885 5.494445419847389 6.690137224360038 -0.7584391800247648 1.969092468696925 1.8637150343006743
Ni 0.8307912196404381 4.565378262511457 2.636786738286329 1.549706462323144 -0.2985901805399309 -0.2426298631242273
Ni 4.7920951349136685 2.5021643761664 12.268021312284992 1.0279373282947457 0.2365630881048571 -1.2918425558579816
Ni 5.150295255290843 7.429522602812551 11.205288738638961 0.5261752335158938 -1.142924517866619 0.25663183383027416
Ni 3.7444054175094523 2.1501041971124137 0.7334445703614275 1.4420165777436327 -0.9701836664240452 -1.4328040580064292
Ni 5.0169958384860465 4.702503618729352 10.651584958078676 0.04827580428725234 -0.3238283862814294 2.3382301204381153
Ni 6.933348966154817 0.9108934841671579 9.368118728124653 -0.8796109011407948 -0.19869125275974814 -0.31279603972666775
Ni 7.019086885532687 1.645375206779124 1.648887695734282 -0.95465343199893 -0.34593293148995263 0.7026441845423319
Ni 5.116903562389055 5.234770153705835 2.135463294987253 -0.739614591119094 1.3582947739439448 -0.19270649593122297
Ni 1.5564566871662695 4.012046012935143 8.575396988514214 -0.6757828413751137 1.6020492375909183 0.39365671992847684
P 8.35963152196458 5.685290653077633 2.133412038313965 -1.2827740178978102 1.0638314710881935 0.16806247213029765
P 7.8437934786366315 1.5180958825930098 13.128370910109227 0.3864820565569086 0.25011254465451765 0.06497023422379779
P 5.331930576536304 3.3663104121841645 6.795896330782307 1.0301675031768451 -0.4516615785780351 -1.0337745038018131
P 4.941186923320002 -0.2995968696127348 0.5975822351064103 -0.26389468604027455 0.8925993429806627 -1.0190433682392255
P 9.069679781380078 4.425210593025314 7.218824892637329 -1.618098320633981 1.1267677056010983 1.7094956387010558
P 0.31941431385947333 9.141810263230877 9.432601940714816 0.4868597237457228 -0.29180941017267165 0.24524467503925504
P 2.594208181227545 5.915483137910538 7.891727428960642 -0.5775908689837085 1.0012258804418306 1.962366462827001
P 7.394978518521275 4.719715736522737 10.153419067186796 0.844286514807888 0.6368967058328773 2.332123750430061
Ni 6.68254250414676 0.24240045825658005 11.777370857078791 -0.670239285849065 -1.7813155488568353 0.6230829398782366
Ni 6.328841319754144 7.166961748631722 1.0791924103403574 1.2185764001739787 0.4324572377354423 -0.5922986075075284
Ni 1.222530539017258 4.496078053913237 5.66297205855915 -0.5883645625604448 -0.7324142167159128 0.4466674677975533
Ni 1.6840494618103243 6.89460095807469 4.579986897677712 0.264117600684358 -0.6707000275355675 -0.9809740721713298
Ni 2.506893790428857 7.969044593977248 11.434213592943431 -0.6136228229066012 0.2697496021591548 -0.49129384825767647
Ni 7.01993504559535 4.570356593314043 12.486759026706391 -0.5433255200429352 0.5595113857741784 -0.5395868789361095
Ni 8.746014526163062 6.15445223556578 11.021391042617658 -0.3258983814365806 -0.3010962347912363 1.0394173039098875
Ni 4.799866862444372 0.4358473302877315 2.675472056274868 0.19005183191719527 0.8974350738064093 -0.42954006408864737
Ni 8.770592729718052 5.599340693684098 4.496814662489397 -0.017867367198724067 0.5441991808971403 -1.1825174496678925
Ni 4.378229900858688 7.349638831693279 7.449139070000964 -0.44276890407409547 1.6919596866998217 -0.2963335232952703
Ni 3.9227402898154202 4.403886742754238 8.667528375320959 -0.3632225718083357 -0.1921241410651917 -0.6063406874228913
Ni 2.7878007155303277 5.5869133049398645 0.559931303629075 -1.859673517241449 0.47860853948052406 0.6384859046968681
Ni 3.2710860068880336 5.616073416659456 5.9650295142667185 0.4405500420459058 0.3839281797868033 -0.9224786470385984
Ni 1.0599880383128262 7.033809837924779 9.411607213424576 -0.3522107940788644 -0.10656502694644873 -0.21881296321028765
Ni 0.7452312294931056 0.419697256398898 3.561066400833773 -0.860114740089396 -2.2105956744158766 -0.5866542647375574
Ni 8.852357203584967 8.950227499511362 1.2274148346824618 -0.930058002047753 -0.050059378550236365 2.575862787458067
Ni 4.089302331686384 0.4815308907063504 5.8823707846815605 -1.2279113044216594 -0.1798594647652257 -1.1882474101731342
Ni 2.677945549153264 3.890141442189598 4.189833268852826 2.154608874637612 0.9769163571621885 -1.9543551624867501
Ni 5.599552733699764 6.262122467868376 9.062539564330812 1.8594958540130042 1.1893833235497904 0.10841493567099392
Ni 0.5081474441510652 2.3177725347172857 7.331424594347595 0.4358744909471074 -0.8937884781927576 -0.9588314746360195
Ni 5.045326228405207 4.561321844820461 4.66928432357943 0.0670523135638071 0.48789639254035333 -0.6839340097273383
Ni 6.965938594649525 2.351182665881307 11.20779910804182 0.15503469241206203 3.312832484755146 -0.4960586166361715
Ni 2.217044308144963 8.534214207906377 7.94538922544696 -0.4883131683627977 0.021482338243492036 0.17285860796736036
Ni 8.571920454170408 9.237292804198253 7.448679957271392 -0.12234362993694414 -0.08625408330323855 0.6661638302281108
P 1.5330769706563472 7.76986526621823 -0.2734790711613903 0.016251685972172008 -0.2566308053890096 2.0465718911313266
P 3.430263524735162 5.992840867104054 12.03954266392653 -0.5385419826113629 0.7246831666202422 -2.705924097754243
P 3.0097420780145026 5.726629237001329 2.728675661944727 -1.0941015828266447 -0.35658989698316657 1.834616317162505
P 0.5839111855746423 8.67867799249253 5.657103159690768 0.1776398314060876 -0.21898291312924864 -0.7546000087843328
P 1.8478088878220549 3.6411603681424887 0.8480798562220853 -1.9060040248768721 -0.42947038719297653 0.038145143611153655
P 3.646986859007738 1.8965780914251653 4.073251824413602 1.1178017546570618 -0.6771133872610791 0.8218814076398103
P 7.064408134098451 7.271875460730663 12.211026799900274 0.7374790328333298 -0.6607429163228556 0.49378678988285923
P 6.695818052953657 6.159531976810641 4.797455137744452 -0.8103813774200108 -0.22687157184870607 -0.7578539969452561
