# total energy = -340867.5735158192 ev
CRYSTAL
PRIMVEC
9.20062043933047 0.00000000000000 0.00000000000000

0.00000000000000 9.20062043933047 0.00000000000000

0.00000000000000 0.00000000000000 13.46603802592588

PRIMCOORD
 96 1
Ni 8.27839630161972 2.5093772343931606 13.073718301942963 -0.517933819442708 -2.422019030030312 -0.6971206836209414
Ni 0.46166965536812893 9.025081858686566 7.397163630588677 -0.48927758915859615 0.20164493607143338 1.1183792244270867
Ni 5.38374308390833 7.322948665472503 13.161220803181124 -0.37350209935747286 -0.24078226839252728 1.4434301702617078
Ni 3.7736436975272762 0.24319264110481378 5.703486727673546 0.11613313025085806 6.273491713537582e-05 -0.22181755436456638
Ni 2.556199192103166 2.7973014522310273 10.305248834163859 -4.279063337179031 -0.39920721743306087 1.1069802385615257
Ni 7.37089309888316 3.3723770357849983 7.325686770132455 -0.6938363564427147 -0.35852285233982123 -0.244294909531476
Ni 0.4817592102236597 7.610265642357556 1.2008153039375584 0.46107181614834136 -1.0376278161096324 -1.473360896382869
Ni 8.767436882904827 4.958490404529979 0.8969914938185644 -0.4341173990466846 0.3139268108970013 -0.1931114446791255
Ni 2.459868695497988 7.708749084159068 7.164941809364667 1.7865132910076906 -0.22805967861953627 1.0374401255788583
Ni 8.819061564514344 5.323074192350112 6.98801203708034 0.7823702369190655 -0.33075930907330775 -0.30408462799559893
Ni 4.748145818724095 5.733615079553519 11.281348183078984 0.12653812763426595 0.03481402235539166 0.9335158786893665
Ni 3.0994590299779867 7.927944666883211 3.442835387552186 -0.6752182271208952 0.04080032184581361 0.7592570479403699
Ni 1.8176745854172947 0.9768942825260785 3.97271016272775 0.9495474782309324 -1.5441965882485083 -0.0366580175426659
Ni 4.665377036731718 3.9040900949358934 2.255965464102161 -1.2199550256890603 -0.7105235872904085 2.07886546105771
Ni 7.693917683917659 0.8539841133666783 11.231308768381124 -2.0669435128091433 -1.2060620697570519 0.11531886187967881
Ni 5.911711490516886 6.290455033282136 9.277655452450276 -0.4541272665097082 1.7130900409205334 -0.2346116208054411
Ni 0.6084195522976988 1.4668825277223907 11.309641011169775 1.3025036351162536 0.47890010257901394 -0.908135748053365
Ni 6.514269327495849 0.3816978620068861 0.08574702284730491 -0.7507544097859973 0.80096214098864 -0.5305167983140412
Ni 3.018263554090623 7.203773028172897 12.018856121199919 -0.09620759497152463 -0.13093934202575513 1.1367505278454229
Ni 6.598988641033622 2.0215419343931824 9.289828793430058 -0.0879543538237969 -0.36087489751176555 -0.20360694489381062
Ni 4.070676529657323 1.773438002066989 3.6882674596860068 2.506573871254257 -0.6812513206888525 1.6133212109603117
Ni 4.077429785102232 3.3010354244500837 11.973556866182193 0.7460338643818764 -1.5321746240869676 -1.2275683192599438
Ni 1.619548423631629 9.057762462692448 12.685748376943167 -2.5759476338623895 -2.238005948108029 0.33231739758904705
Ni 0.6683937970083824 0.9034724108967581 1.3357258424113934 -0.6571901659745907 0.9637859904278177 -0.5522143378921328
P 5.3899811046054 4.1296157045620765 8.050104985472093 2.475545026972911 0.08585376254102635 -1.9575394737520029
P 8.506783304220518 2.7881284335953667 1.5853294758786227 0.1357835574919339 -0.7459942693931927 1.866825812015514
P 9.17650567082869 0.07187524732374927 9.493516730306249 0.3282134027230024 -0.24174746051927395 1.4673033773348794
P 2.692230366153554 1.5418767853946744 12.148467102267395 -0.0783505121854457 1.2047299812091896 -1.3716971633927797
P 1.9114381089037675 1.4760739475990452 6.120192950672095 -0.8418902466615695 0.5044051888286538 0.33383357712325734
P 2.5294989914204318 4.94753246551787 11.870757413305467 1.2814465573356382 -0.26842779802393774 -0.20619784554943846
P 6.42873115873383 5.765927658739517 1.0089244026628128 -0.08358219289803025 -0.9319516195260401 -1.3990680992065647
P 4.936629730228746 1.7192555479592624 1.547840627600928 0.8220544428825649 -0.44218552076679973 -0.058398237433234905
Ni 7.3620421019649 7.7092367170454175 1.4740737327029645 -0.9646431962217903 0.25662566318268704 -2.0101771545523768
Ni 6.429172788517692 3.321175582718349 0.8513646967111392 -0.22263130851511337 -0.16823345049052316 -0.7646795045075216
Ni 4.54830834152596 6.190067063037714 2.095571046975315 0.1287762729361653 1.1650277775235613 -0.7115011207123295
Ni 7.689354176151073 8.196814399671476 3.6347124878961856 0.40511766938022487 0.3185576248007933 1.1774870863328366
Ni 2.3690217687091115 9.06202234998263 10.297088803844934 -0.4993324022914369 0.2092438314646138 0.32846691349470525
Ni 2.420002406883829 1.2724458147560833 8.273008418256588 -1.7137305027180099 -0.2912046867091372 -1.3130952945891707
Ni 6.72920502292981 3.0795948903246364 3.1877748660680965 -0.9842542855844986 -0.2748144182765718 0.12922390199654518
Ni 1.7174614269623178 5.021983886580822 5.584392975896364 -0.6469273505960019 0.543774691765212 1.2985850167881376
Ni 6.3781093447585 5.810716279319651 6.9547103911909 -0.3640496956953214 -0.8054196625393614 -0.2980818734449447
Ni 7.2563269724526265 5.914692491557963 3.0139687044425525 0.39178212861358336 -0.46785798583223936 -1.6418177757381078
Ni 5.566623817530216 8.102627647642134 7.26090152096381 -1.2664523979196514 -0.3648508514403781 0.16226823404602375
Ni 1.2523240577288126 5.872756063331945 3.1560621673385136 -1.6041529141974824 1.5652531518084913 1.1389385366356772
Ni 7.372328395680716 6.755325584521224 11.751434566077908 0.41779192241378366 1.6236218215553715 0.008195905547231045
Ni 0.6721412097368723 7.412286690499846 11.129289528122555 -0.5449098338109196 0.5934800294101392 -1.046626934284449
Ni 7.581164079725066 7.716542009720157 6.068025432453245 0.41552112410173603 0.43152187040536655 0.48053866662370137
Ni 1.124711451433318 4.8976927042847995 9.954674831174737 1.2296743098593532 -0.4933270766376213 0.2887012035609931
Ni 4.603852487467265 0.5095947674757425 11.755043049436889 0.21114130559764283 1.1315216753463158 0.38525666879023973
Ni 5.369831745716637 1.2769725200406818 7.438975850437983 -0.17064026015980288 0.15773100829730255 0.1352842492580122
Ni 3.4597185261644596 5.625038557066632 4.094995609755394 -0.38818669795284116 -0.8526901654905509 -1.0882682639743193
Ni 6.910668860995134 0.8001466825275951 2.3797855746287295 0.9497163997086289 1.2970698656951918 -1.490292124920569
Ni 1.2715349533268652 7.4522541859394735 5.292112264253097 0.1516719465874162 -1.0115480883034451 -1.4058853792387143
Ni 7.014203443449582 4.548087526634029 12.27029435839428 0.39539170034171256 1.4919013783892177 1.4877593311963861
Ni 3.7652619322543712 2.89510404811575 5.916007260227005 -1.2666686276955152 -2.377089516507474 0.891753964261232
Ni 6.698852175909707 8.858504624585633 9.389491754779304 0.02926326774049154 -1.219400181626855 -0.38213483533180637
P 8.528239151219875 9.013397070655182 13.054408039643539 0.7089675556571984 -0.15401884955303796 0.19447104403081347
P 3.75683416387898 8.84643341049337 8.577139529100187 1.4883563413504368 -0.5906746987508601 -0.05219905060105849
P 7.924181613099876 6.90295874101852 8.147128288800708 -1.1661796317398174 0.9887956250982778 0.7082286206086448
P 7.461068380375743 1.2615338788464614 6.567494917071871 1.408060275402846 -1.253635191550325 0.5364748156696889
P 6.225673464361691 2.654305408464295 11.967725512911098 -0.4438860483976742 -2.1962700018218237 -0.2259603728883463
P 8.626253361376033 6.423459203188961 4.673752361570275 0.5400815591843409 -0.9255729696932059 0.14575043889665867
P 0.3501958574866883 5.893724277444954 12.524882888046866 -1.366992815938575 0.5952522908192136 0.5981082722107699
P 2.545830092802876 5.497812376832018 8.016023126964495 -0.9672343539877342 0.4778120117211577 -0.0834819198747401
Ni 1.7890146525686668 3.4490274051467695 7.668155026463585 -0.17233975934941287 0.5778700907870241 -0.6043966763226429
Ni 9.225370166289062 0.10689280893590872 5.2519165934251415 -1.1864934035965051 1.8939296102108416 -0.7847413082544034
Ni 6.045939342949832 4.1424781720170945 10.170723801688855 -1.3353754461436098 -0.8191925479537374 -0.2519280005967016
Ni 6.114861191093996 2.341107086120753 5.418410101879549 -0.4687632712553282 -0.4698691027249972 -1.1084712212847554
Ni 8.063239791293828 3.1164249741747345 10.643179344465795 1.589081878796973 0.15310996458552342 -0.8302290082735574
Ni 4.8057877061387515 8.584850569138851 2.0303690096981497 1.4945876669721292 1.2346334536368415 0.12355333397432915
Ni 8.82391949213684 4.0157580259098244 3.2305025476568687 1.8069895565841718 2.9649899949473064 0.12971909646540886
Ni 3.8108142043357693 4.135007268173408 9.22198709813226 -1.0726629533368945 1.8597305957316295 0.518983600863461
Ni 1.881499289806036 3.1218257384065624 4.304432094318208 0.4690445499411729 1.3905101823342245 -1.1104897943766812
Ni 0.5164989130968051 3.8245323294970226 12.105025452528045 1.5386162659472533 1.4643862036880846 -0.7029977112270086
Ni 7.990702099294284 5.4310066714022 9.893740961746202 1.3488608822245545 0.1478677423499776 -0.7014596773159274
Ni 0.8808011619297266 6.824201429562902 8.655941923596242 -0.8078658100870088 1.017380892935138 0.13696446517391248
Ni 4.151329168935355 1.564344700648719 9.647284860551048 3.085878894715595 -0.7883652781602358 -0.14180816641945898
Ni 8.796023210789476 1.9208227418108625 3.707550120123937 -0.20839562453170557 -2.5614203867804917 -0.5779603365079853
Ni 4.375290673077022 4.702639549745182 0.1089289062519284 0.27979387376903425 2.0298445510743166 0.5858860191129651
Ni 3.28686646888447 6.843209911510018 9.766607707778608 -0.12727294891776145 0.05363526882695279 -1.8973388930027066
Ni 4.050729584419498 5.066772507160957 6.283199423958083 -0.021559214228014482 2.137923443562131 2.9972820222117926
Ni 2.0574427555730685 5.596259016151541 0.9386095805753806 0.051712340772627076 1.8001769045377127 -3.4638228318945057
Ni 3.2787791234674737 0.48968370465785643 0.46996769499451 1.8978083764399576 0.7408875442942466 0.9917981593700274
Ni 9.189092119668793 3.233475268139499 5.586708772075498 -0.3959475728451826 -0.47477116801230484 1.4352658892833603
Ni 5.635306449541454 6.410771547523389 4.528911593393865 -0.05973315419457455 0.5923744550507862 0.9360018783360139
Ni 2.114238185901986 3.0696490195672155 0.17144712253007435 -0.6685703827870743 1.3486428526764773 -1.7574960778397344
Ni 2.8473620283560295 2.1520987392477653 1.9316362310811648 -1.2218373303134378 0.30075942027710784 1.8165923697812587
Ni 7.283303191750276 4.627590088349916 4.886232411393547 -0.2691772745954526 -0.497525173879369 2.0762629904378564
P 1.0627176705235097 8.618561642640413 2.8511775256761984 -0.23159854501073016 -0.6701554678860071 1.8271531760162405
P 5.498318410959361 7.965427994788607 11.153609528282677 0.8910628517314783 -1.9501431812879317 -1.8448883885124743
P 4.95693549966596 4.0860323652670685 4.66046114520009 1.945044683719102 0.0469480866147643 -2.559465577046966
P 3.298017620927018 7.600365774702621 0.7439584931514895 -0.2632048590621015 -1.2727102059039048 0.35368609307281024
P 3.916317719576608 7.211611956836469 5.6460132116139885 0.14518196798769836 0.6145602471192062 -0.9162414078796349
P 5.952304628150319 0.3829261448432559 4.1131741957336665 -1.0262954218159486 -0.2238440978762919 1.5897927888210683
P 2.359039095469702 4.292218270608239 2.3804185773189332 1.22570504079896 -2.7455034027087617 1.757452883306625
P 9.05007074395683 3.5279319265303424 8.622856492288484 0.03280573367611124 0.41109239890642096 0.8725118282021684
