# total energy = -340888.074506572 ev
CRYSTAL
PRIMVEC
9.10283406587363 0.00000000000000 0.00000000000000

0.00000000000000 9.10283406587363 0.00000000000000

0.00000000000000 0.00000000000000 13.32291778398002

PRIMCOORD
 96 1
Ni 6.759718896023783 2.185663227851626 11.225104023520844 -1.173980615841475 -1.806740159577527 0.5466880087572649
Ni 4.828206789007853 0.476057273357056 5.900547013674596 -0.3188553585468702 -0.5620593490070126 -0.3998479363408533
Ni 3.094116942331629 1.8854790762829028 4.47013225534505 -0.227809253171627 0.07581823268189523 1.220422709354098
Ni 3.3806286374714403 4.5148417340376215 4.422436136869305 0.5178685134224114 -0.5187586293368486 0.591877975030342
Ni 3.8213787492101075 2.8792263438513896 2.2110046069810854 -0.45316721658928405 -0.20740574981461055 1.556428611538326
Ni 5.2816189426191 4.523207238337335 2.8768978389549074 0.39347597137623846 1.1548402954675983 -0.637264116474625
Ni 5.43102375444848 3.2814168514403423 0.25274928442421013 0.36182414879891234 -0.7121215279051477 -0.5920862343864061
Ni 5.844583701504618 7.968748183927664 12.212558502055174 -1.2881599648000719 1.5079928846344417 0.7559889187120592
Ni 2.4887420805817304 6.788583982133023 0.24828616499205608 -1.0913972965216043 0.38084928375116345 -0.3878663384989449
Ni 0.8419857320577184 0.7426920205220531 0.6229460619128332 -0.6596777082831349 -0.6236344415063324 -1.211784574063126
Ni 8.027962118062199 9.291535586340272 7.081037096920738 0.5919329966379935 -1.575450146946151 -1.5527413924947258
Ni 8.976286244764992 2.9482895442016908 1.4081255593869137 -0.44062203293442176 -0.11145603649016288 -0.49376544972662056
Ni 7.073448064347646 0.7898319558501239 4.620854247231197 0.7675593971584781 0.943112521238866 0.4408719441616988
Ni 1.0086121952305458 7.712102886619583 2.3576503498733126 0.16079576326555534 0.5351036463537752 -0.46245404120784867
Ni 7.985460986859409 3.9878877858263886 3.737132022013318 -0.5350820490872205 0.9956342452866661 -0.7495516477271478
Ni 7.642839423924783 3.668760637034918 12.614764484461656 -0.08899667904538222 2.026593905347503 1.6097126676734472
Ni 8.69254181111279 7.333306662001537 9.072506839595997 -1.5552176219493603 0.5236139005466208 -1.6372227001682578
Ni 7.070252969669518 1.0884440480145379 0.3356606258965516 -0.2507049268228779 -0.3502973791062354 -0.6981367835902815
Ni 2.1383102862116803 6.510228426114586 9.105480944900984 0.21440866349500493 -0.3080076171990889 0.0638093811464772
Ni 0.48928460121115164 5.411643821201374 1.0551713697595724 -0.5554832384513917 0.29834978239435067 0.8150911241908543
Ni 6.48108115215628 2.3386363505466075 6.836255522957398 0.7756768840592899 -1.0523594658928521 0.43611720308553276
Ni 3.7732429638598513 4.739763655410445 0.5696416875077589 0.3279328953681062 0.9782016516325153 -1.1326902417331202
Ni 6.363181248249979 6.069742296557302 4.653069176193858 0.8056937421363545 -0.07852020499409058 1.1958056821363663
Ni 5.902377593559985 2.785084836269628 9.21053219884097 -1.2564243242596878 0.9291025801130194 -1.1063963410335977
P 0.4864181188346774 6.216698446083502 12.301236488765674 0.6304735759153529 -0.7278510228252627 -0.3732203064509959
P 4.263275818012718 6.448693269350643 12.298198873112991 -0.3068891873239295 -0.4453011835776459 0.8521108959483131
P 2.7720950923787777 8.750353908835839 1.2264102388395433 -0.5426557476694203 0.26496272229347273 0.25586024577157224
P 6.616622348046091 8.117797985237251 5.813854355024778 0.43808435411423263 -0.5690386085383232 -0.7586230139007967
P 4.8966965108261835 1.4087818737068372 12.597657528824602 1.6840183203655579 -1.0234276133498503 -1.0176580578559247
P 4.374539756049062 6.159760220409172 8.17932494945074 -1.045081187063884 1.1285579647323016 0.7626948699773252
P 5.0305900937908055 1.220526167044837 3.796192118255943 -0.26665707927676013 -0.2628410479647796 -2.121092230937405
P 0.034092843584023425 6.063333901533365 3.3211898633410377 0.549763305248479 -1.1451729475811634 0.6033736343747673
Ni 0.8606565545486244 0.24114408156054865 4.6611825319961815 0.1830633164145041 0.9545693569255561 -0.3636336912038254
Ni 1.9190685331555288 6.423077894922575 4.655906529502042 -0.7469540622033007 1.1529937291771626 0.8583044263535348
Ni 6.460117325820872 5.9450243701042265 9.120296717260304 0.01720479391406069 -0.7397529164691712 1.4811495391893523
Ni 9.038276543220977 2.70984991457525 10.089738508190415 0.127623904499277 0.0632463095541556 0.3199763595251909
Ni 2.7515499964000467 5.347004598097712 6.761554027326092 0.22674944444854497 0.5452361068020867 0.9377587131261205
Ni 0.7918391307120247 9.502812359785707 8.899309040673481 0.18201739164849295 0.3908524177104623 -0.043461413617744506
Ni 1.6989620108844994 1.2061254839086597 11.166763051151644 -0.736035615518584 0.8147098295920356 1.3550096754347696
Ni 4.540111200779738 6.866049098118402 1.6231572517916861 0.31603794370273314 1.297051867973063 0.16039724227555602
Ni 5.936677071472194 8.103752312620866 7.961749014987457 -1.3319767048747062 1.292665051759277 0.44762134707039036
Ni 5.311776631133737 3.0373516705002745 4.743625077525721 0.11427139445177094 0.296898651770121 -0.05325114601465667
Ni 0.98446237705085 7.768840849949414 7.060267160946139 -0.9831286566204874 -0.954387322821737 -0.6248888827387238
Ni 5.339385526172944 4.63237752459029 7.18321094508364 0.4890413047780739 -0.5946545093342146 -0.7144609746716017
Ni 0.5578808261854195 7.939855789316901 10.88322525182763 2.289961258129398 -0.6874875314065515 1.6499501750372552
Ni 4.880256792909662 0.41216994432864434 10.447605497241646 0.965648240447537 0.37684196236398326 -0.4048621017259931
Ni 8.618308201140902 7.5536316522847455 4.809573288135694 -1.320205423271391 -0.610525157817884 0.19854392854860645
Ni 7.130258850348205 6.308864638721805 6.974107928359392 1.510457287014534 0.32996766640994785 -1.4902031647511882
Ni 2.651664600664728 5.724817716660949 2.5805687375177713 -0.5034893618826038 -0.3021665850372796 -1.1461769633656453
Ni 2.4537871986329813 5.388304155233512 11.325945216809451 0.8434820166287215 0.6991505695667766 0.24498010852395877
Ni 1.2892707682107103 3.4380129020039707 3.3566426703008796 0.42836404150267515 0.9628357106994062 1.0437604113699315
Ni 1.8787247735730142 1.2548347477908879 2.6720576793183173 -0.5087308127872012 -0.9418056295019845 -1.4836725627215224
Ni 1.5593882596032052 3.1546234788715597 8.172930208677563 -0.8130519822736385 0.7562144044593041 -0.006052633951983124
Ni 3.9969906196672085 2.7817623019177287 6.773570678279358 -1.228182555805175 -0.572315222407066 0.552106865779991
Ni 4.573473086806343 7.091744760367695 6.125731096662035 -0.7676481002175424 -0.29736042189788786 -0.6731865414028471
Ni 8.315156525740072 7.577735956295237 0.19924282710786978 1.9246969733006856 0.33054282218712755 0.7745975349521821
P 0.30268470002479686 5.738863389277334 7.893388553409667 0.9547704171927686 0.6452551050999016 0.516334079055756
P 8.707033522587375 2.0257810542714623 7.7921750542169725 0.6690447513203316 1.2652936017248595 0.30603018175774394
P 2.1265403220555 3.4116510952009556 10.56528693313577 -1.2610803349744604 -0.34202819711890775 -1.4632808864390476
P 4.47075670974653 6.438652843624217 3.829806152779939 -1.3218226471598395 -0.18119258175435246 -0.5688573457654525
P 7.259928718410686 4.215740819695956 10.462699816316496 1.3618647506833899 0.2240508145704593 -1.4533410016175163
P 6.78466976358147 7.994663951872478 9.94141420273794 -0.39463785289482356 0.20223911801200653 1.4418124321526264
P 2.5439325621586226 8.398593100725028 5.7702217415755745 0.7142591430734408 0.37209159216319143 -0.42104256814059743
P 6.974573083168659 4.333695340605303 1.4316937064841813 0.9724143555267768 -0.6920165296251567 0.052943384966250756
Ni 3.0384167020596506 2.149616005841979 0.07604871503974722 -1.5569022087406348 -0.025907463894381186 0.011449122377206088
Ni 1.6670747839401066 1.2277902284498114 6.74595268040631 0.44894700786034936 0.08813047439034499 -0.4687393599959282
Ni 7.520051298245961 0.9404774839320076 9.213569814493649 -1.2998965365107098 -0.8166949783428645 1.0910532829186244
Ni 3.218516269600276 1.6126762489073658 9.242614226429554 -0.5514715461888373 0.07813839617463962 -0.9465426299663375
Ni 6.54656693880714 2.3313358778062696 2.2933005968857874 0.20167887463316234 -0.3433615712183506 1.4558231446094219
Ni 4.525665003474357 7.0987903537604895 10.22188889847452 -0.6542616794738861 0.18518936161857139 -0.6652996824556026
Ni 7.433902078776439 6.502463708848366 11.614959280972103 1.959542877335277 -1.673487596037563 -3.0738240204335896
Ni 7.890427401561247 4.23888022331932 7.767300650463548 0.22330262355052508 -1.8996677982461996 0.6743509940245935
Ni 3.4855114889853698 8.804361022013424 12.374112866211895 -0.45961528620747294 -0.09027837397128323 0.19086944272248418
Ni 0.2569748198931188 5.192975546677195 10.044307174774268 -0.5503641720572715 -0.4996882429689587 0.7554780405139119
Ni 8.863229048462008 2.6202871324154215 5.614050793352313 0.21672188500921385 -0.15173442439423548 0.020082372572171867
Ni 4.0461459224076375 2.8534835297495498 11.209915945257437 0.62332179536192 -0.12005894766782547 -0.10676583010334516
Ni 0.8467929386090556 3.893200108214178 12.43991452119703 1.1526538293392405 -0.5911326122238851 -0.03855163502095296
Ni 3.116628250419977 8.403699790509728 8.009365028525403 1.842744088475962 0.62770038404559 -0.7117993686790386
Ni 5.842790443237977 8.373205297142983 3.292945590499741 -0.9792473192882104 -0.9539008701036218 0.22016484925249177
Ni 3.103083233664836 8.279792016268486 3.568916204051883 1.1537851147302065 0.4412835777778207 -0.028793784303240734
Ni 3.636727764749072 4.147478668723646 8.939478025846253 0.3310501008408492 0.6461588478610936 1.0115496309653418
Ni 5.449274936299325 4.766480472733252 11.257439109890207 -1.2380365657811194 0.39915039605319647 0.6892343388943291
Ni 8.025595381263585 -0.05678347749903562 2.3749703118222407 0.8235515962533816 0.33310904025240695 0.366356232341311
Ni 4.691081700029739 0.7971479034079909 1.4190635245300431 0.295507170739233 -1.358039720510345 0.31100629481609665
Ni 6.301910073667418 5.977794571931178 0.14337418440983657 -1.0496053001864827 -0.971628626400688 0.6742131828951485
Ni 7.876290700606455 -0.12963891842742317 11.616372040784197 -0.3177323006860206 1.4730911876612502 -0.29871924991862747
Ni 0.4757632518239974 5.041695551076606 5.968906564969002 -1.190348258566221 -0.2815892751065602 -1.4931658469239382
Ni 7.054295701946561 6.2560955109465715 2.5014177767050727 1.2996232282446651 0.20358843295104936 -0.787991696870901
P 8.722217049433864 1.831025924247117 3.334845934669036 0.3039301046956056 -0.0319896655327191 0.4015212102782182
P 2.0340282217312455 3.825265659260138 1.2989734788016403 -0.977552962304923 -0.5347681173912273 0.008921727969662053
P 4.880702831767862 1.0684724305677786 7.9593777267719235 0.35704703912524316 0.7705729871738214 1.233690887217914
P 8.737673661295576 1.7903635654801737 12.268142226053987 0.9040901172290817 -0.16440533499368462 0.5202701808853685
P 6.559192569344358 8.003266129852054 1.1756382728089851 -1.979459670863862 0.7781554275067695 0.08062979513792565
P 2.0826282516073835 3.519947509405192 5.8511987308567415 -0.5524696484360485 -1.7435519569548168 -0.3043018862127276
P 6.900812820556493 4.104777275176359 5.654886105962232 1.4489238463864271 1.1912262902958 0.5725432792574721
P 2.4692984274977388 8.652835249899134 10.051634956016127 1.2338675220050943 -0.6829127675516755 0.8299297318655837
