# total energy = -340863.3741822706 ev
CRYSTAL
PRIMVEC
9.33033892272203 0.00000000000000 0.00000000000000

0.00000000000000 9.33033892272203 0.00000000000000

0.00000000000000 0.00000000000000 13.65589413851776

PRIMCOORD
 96 1
Ni 3.145798357191583 2.3414018612799983 10.876510254760591 -0.3534238405503591 0.037381783082567885 0.9668270912469865
Ni 2.3969080465905437 7.499577013557085 13.259873448566582 -0.48590661580383415 -1.3566631518777925 0.3029240320285944
Ni 6.927748541691666 7.965151587571352 13.11117397360756 0.3057458177481057 1.6715214734501278 0.3676443550251153
Ni 7.230574016635194 9.379976166817462 1.8665016136705224 -1.1621419713353338 -0.20292251723227633 0.8492677700725633
Ni 6.340851572721435 6.1062028831307655 7.03931326836762 -0.7418468228837224 -0.2193184420917965 0.879339392646963
Ni 7.8971427483162575 4.721477976739222 2.140903144601604 -0.8620610651824895 0.7880454329269719 0.867376563858132
Ni 5.749476041144202 2.0964058259993985 11.312350905199866 -2.4224481471479313 1.9604857008645205 2.200600253766062
Ni 1.044736692148654 7.168872486384962 10.516772512454697 0.43085904001038694 0.5297233558784683 0.3732493599167184
Ni 4.550322242441586 4.37404415216219 3.2955083078388094 -2.6756442158237794 0.292407962988619 -2.6294564044138067
Ni 4.402874898944773 0.5164781032122415 9.518417867338695 -1.660349515993708 -0.00395718487553512 -0.4209674919282879
Ni 2.460065109688052 8.788983179129577 7.987468824862375 2.4339422638304598 -0.13706088154246074 -0.8589762556095787
Ni 6.3581686814685145 3.495592757476056 4.167669188129857 -0.959792038777076 -4.781030348879837 -0.20372932940428784
Ni 3.11515752468867 0.1852809341533487 12.22803408369222 1.0768371393192422 2.1835335280917625 0.8098108496285213
Ni 2.662682746299885 5.956749516799565 8.514409036931351 1.0986730042474109 0.32357821794383623 2.3207214221303905
Ni 5.081041241710221 0.31132261445644 0.674270926331232 -1.019793616141689 -0.123702972178316 -0.6255789668272129
Ni 7.731743833036374 6.929894519607522 3.1060193909026306 0.11837050422180904 0.5106871651826237 -0.14173206176588493
Ni 5.824547946844092 7.0948642393042345 1.3470872528490645 0.4283707263708945 0.656858750777101 0.9521057258764117
Ni 4.628697088064141 1.0678012895747202 5.177864033138123 -1.2109782761117467 0.06335789543135541 -0.8231294211142984
Ni 6.881031535497365 3.371788492408714 13.080639506966563 0.3704365730582717 -0.11940665879580727 0.5212459145350765
Ni 4.873571828940801 4.772981446719758 8.405203019895085 -1.6874407157835454 0.9234063010591903 0.6878503140626089
Ni 2.6875294384299884 7.615655758127346 2.364040062224523 -2.1977139333572024 1.686320229025857 -3.5085453716128603
Ni 8.041800320522459 7.906286480305555 10.967403615903596 0.2983551817109894 0.03778801738205105 -0.4149277134921112
Ni 3.8913110851598405 1.543657896907567 7.266028370906759 -0.5240710426886975 0.9221942830289602 1.0686836569741724
Ni 1.334098488254879 4.640686573376638 7.180009178734377 0.9891072428014256 -1.4272599882597483 0.2977543149021969
P 0.3178603828287881 2.002449314639979 1.03801604913652 0.060209322500044696 -1.6594324034960777 0.28045310461958795
P 0.7944522208562845 2.615648508587588 10.421072160780174 0.4415864537302201 0.6215006829927813 0.3509560957361569
P 0.41826322524066295 6.077642716172356 8.82023234971994 0.39108535965687485 1.1640350745929888 -1.1292843013753648
P 6.804578739660316 8.404955765917824 9.082944832246746 0.10459170527016179 -0.8457728695454273 0.2783034052664369
P 7.174265422190894 7.005320978180467 5.342773105632865 0.47219749374785774 0.49219399147444265 -1.9172515727662338
P 8.496682326312508 2.4818047990095464 7.688800948872348 -0.7690431807928563 -0.1015752870413412 0.360491803140734
P 7.380130016692805 0.7872678600075502 11.354001537444995 0.6177967517786328 -1.184529852112231 1.380845662661267
P 0.8896701940166768 4.713145984222443 5.091572395073814 -1.1181419116053002 -0.5011236898639047 0.14447645728024153
Ni 4.020013778078593 5.786405521974449 0.7216466544423135 -0.7007220278189545 0.3559607480395999 0.11989953927182577
Ni 8.756485609212511 3.9495230687121166 11.79030777178862 0.2292922654750567 0.4196994238491417 -0.9086067741525126
Ni 6.586575374425673 1.3446417710588654 9.45925978743569 2.230099548776759 -0.45486054513130697 -3.4706982188581
Ni 9.34704007097846 4.02476292050977 0.4134441052687523 -0.9231800439809972 -1.0808172070129127 -0.09814029321786323
Ni 6.668421106068656 3.698527625605885 7.6069748109407715 0.8899181966040739 -1.35909335858584 -0.5439603254134566
Ni 3.66247519661951 0.4443937719847733 3.032564432910644 1.3405287082097752 -0.7463380258858566 -1.920137636064777
Ni 1.556916308292049 8.194621939147675 4.189109373577008 0.7358042162340683 1.2583698780218329 0.7521302070876016
Ni 0.5384949035950441 0.7526700308345746 2.843471122338084 0.18364130040516116 0.13185671163370194 -0.4618863416298368
Ni 1.2943325844401972 2.0614916983423033 7.645415806650882 -1.0491607564498964 -0.8771884077422313 0.7705621885405439
Ni 5.90841836199899 0.036686892022367266 7.409578431901603 -1.229178601169857 -0.11912383744806582 -0.5425999547308203
Ni 8.317166608481799 9.125743096159919 4.356311843340087 -0.5952641178937554 -0.5152963818198609 0.20667761339933438
Ni 9.318769144521754 6.861745725270958 5.035775103193814 -0.5183966180117395 -1.4366753680363773 0.2761819880480598
Ni 8.493342065034785 5.216965616832765 6.982395402801993 -0.402056771066714 0.5443979271715075 -0.8873278101690781
Ni 1.8417435597586833 0.45347499070434855 5.8480678648018705 -0.7861618427510138 -0.09734916477513557 0.9709560258136956
Ni 8.21089404995312 6.0979362029853394 0.33643708730908645 0.6667793523249226 1.5116896167597385 1.1551897083872171
Ni 2.156651823402355 0.25716839523288404 0.8215605871029238 0.35614972412195434 0.502259860350877 0.161200969123774
Ni 8.823887976447908 2.2904768723028672 4.696220749703477 0.6980215981686559 -0.6836558163652872 0.38865181051471775
Ni 4.674583694108394 4.318668591594349 12.561401489547755 -0.844354906151978 -1.112649006811529 -0.9467190076432019
Ni 6.825842581704816 1.407416290267026 5.66352216134317 1.0975931409196709 0.5099163484548702 0.8574587905237877
Ni 5.877059093411203 2.5733727436452316 1.4736616954956139 -2.3593555895628207 0.051707969897252876 0.13345028137306691
Ni 0.9158875129112977 8.985284176397784 12.17719306776397 -1.032034381182255 -0.4776572313108483 -0.583772315204072
Ni 5.6874106276821506 8.642030343587287 11.175628786112949 0.587641054130859 0.5721342167445115 0.18308799900485243
Ni 1.7863679991908425 6.895344275162246 6.682757171580448 -0.9738192062941033 1.20171947651764 -1.589473972029069
Ni 2.4260653552298868 5.784884676755821 4.115066604242852 0.38801469115135107 -0.1998035119873204 -0.4796907168011093
P 4.218628699360417 6.676025332161797 2.9664832416443128 4.475530071483634 -1.7522672253406273 1.870880955921494
P 3.6592189083906685 5.259829193117291 10.595198674940455 -0.850103121489665 -0.10183908222568912 -0.19039790240270435
P 5.006510495658677 2.677359369176585 8.899696045876324 -1.2100555071871613 -0.4201568231015344 0.09868845241184938
P 2.1928162164539056 1.4038800918752463 3.9902929169778685 -0.6828780576589981 1.600977087572662 0.3662605873037112
P 1.9994542758965452 9.313450851425937 9.887345060293836 -0.34613013510242324 0.17867881419356324 2.689404759942981
P 0.48590538218230994 7.523789242651194 2.481357875782723 -1.9935436597607539 0.6318797122342602 -0.3310339028909331
P 4.541756991455693 7.738415025253055 13.011403728163923 0.9353308204109182 0.5198541763938724 0.2331221807441082
P 8.846346101854277 0.565592073435166 6.331200270303343 0.6010051341425908 0.008001787258553963 0.2857110105844176
Ni 9.012052918313392 0.7537001002341854 9.859678739789073 1.1369436176928356 0.36296469016125876 0.0913464102244814
Ni -0.1828709076504551 9.077878458297572 0.7844221066843504 0.23613551364913524 -0.8224244246274739 -1.067896899406819
Ni 4.800188714557303 7.308631630739753 8.52533393059081 -0.5064402169808117 1.190308663577537 -0.833123813322849
Ni 8.135131699184651 4.50882089561669 4.443504792129056 2.3530219340353087 2.703239608943544 0.8174087165804375
Ni 1.513380947616473 4.709311214990198 10.722102478545395 0.5360935210708703 0.2720656518868411 -0.0879857212823646
Ni 5.552699196599002 6.284841549117602 10.418176956661522 -2.0733828406765844 0.8020672011273605 1.7475294535453259
Ni 5.790902745258981 8.49993861454135 4.178048256971587 -0.19009116979556293 -1.3600176701723223 -0.08270544672003176
Ni 6.681138357804792 5.729443803816628 12.524749119778818 -1.137014323029771 -0.0729193138675454 -0.6709725644706639
Ni 8.955604368787624 1.550664981319774 12.54252901332862 -1.0669396776998723 0.28409507224754943 0.035316158802790786
Ni 7.894446280413291 7.989848994281222 7.077877424549423 -1.3203890000371066 0.03310038209839461 -0.8367367274850879
Ni 4.041977395530437 6.292585730292212 6.206562805984324 -0.2964245403471798 0.048006352675949576 0.6237462844938484
Ni 2.7131598790163167 3.4245515581224693 8.85621573419946 0.9878085785946601 0.4653861272529792 -0.21004164477556084
Ni 5.749681308597023 5.540196542654451 4.768460897588314 0.07635173658786205 1.7753454473163295 0.19116589091698044
Ni 8.917723193403388 4.223032619257303 9.11341118741476 -0.4786311651883434 -2.3508843188670157 1.0381464076172637
Ni 1.612039949713246 2.4842493477658696 13.141107566432117 1.6589523785358653 -0.515514411367938 -1.7122266644789739
Ni 7.38410474100652 6.047897596190844 9.248700166467437 2.2233023233492677 1.8480179352803916 -2.631481662373952
Ni 2.1826648078780315 2.8686593048669704 5.689113414506688 0.9827866999000363 0.7244630801896362 -1.232451358383858
Ni 3.2124636276645777 2.451779768865096 1.2059742763395314 0.3339952995121022 0.42247055883637563 2.285473140451057
Ni 3.5569024134981757 7.878640686546076 10.863659579180123 -1.0296198582034912 -2.641397121715451 -1.4534937251452968
Ni 1.14287319527461 5.847743169012863 1.202696528331531 -0.054435910351377216 1.9905514099016492 1.6518147390498195
Ni 0.741368191489027 3.4616396547117136 2.971181067212284 1.1132994959113343 0.47944080557383234 -0.09754431150507717
Ni 7.90540009812292 2.5057930999733076 2.1434158048309078 1.3451723776293736 -1.499066271568773 1.3389032567912103
Ni 2.0584686685825764 4.7638657057467535 13.141735498230974 1.6054626341478415 0.22963833596056582 -1.2536323633368476
Ni 0.2855009019254376 8.391641372500754 8.267045894706175 0.6872080524929197 -0.3265866657528569 1.5473757573074383
P 4.379213159837773 3.711254207680786 5.408198374084047 0.35126308545361445 0.12230814871331838 0.3244580494456283
P 3.640847471363191 8.498165850176077 6.040712302308234 0.7790267743681294 -0.44326332721201084 0.40117102602765103
P 6.840444561871399 4.684053987954453 10.652047495999225 1.1271721401283685 -3.2676877698977074 1.4220110811559832
P 2.6583161477580575 4.507262729043004 1.9046972214711237 -0.04200282679434702 -1.0694231062433583 0.5160841678284789
P 6.06923608094546 4.906442612408451 1.0301627029983647 0.23458128178813792 -0.967615648586553 -1.034993720920895
P 4.043423598038949 2.061071833097897 13.029689326074767 1.100916805976265 0.03247740380241504 -1.4710849558644987
P 6.361686219182765 1.1763784417782521 3.5595046449796204 -0.2522000233111657 0.7470700189558747 -0.7444426086353566
P 0.4352285802163167 6.316825950402617 12.550066994016532 0.8717546383211697 0.03818653837205037 -0.7635556753157237
