# total energy = -381165.2120566877 ev
CRYSTAL
PRIMVEC
9.29212057743898 0.00000000000000 0.00000000000000
0.00000000000000 9.29212057743898 0.00000000000000
0.00000000000000 0.00000000000000 13.59995772702129
PRIMCOORD
 96 1
Ni 1.7669710554106088 1.1923463219437442 5.097998342620314 1.284381471594246 0.5540377642541168 0.2310686406491891
Ni 6.923410331669234 6.036412382404251 4.979787702108152 -0.18662198030003987 2.815818446184241 0.9188482493748628
Ni 4.382377759893971 0.4507700589458453 7.266076789601493 -0.0998539334748603 -1.4994115707233338 3.095262392813024
Ni 8.090454209414558 0.9158035229025515 11.796154663716074 -0.37355660674449215 1.2377030937011007 1.8281571918007224
Ni 4.023627570539366 2.3905280955792283 4.0853588440567306 -1.4739301386227777 0.07844564300241329 1.3490807115448444
Ni 5.7791228570975886 0.44170280773438075 12.862405051667384 0.27635502329081435 1.1856084298883902 0.26614388708576747
Ni 3.45230153986003 2.3399789599055585 6.4037847303970175 0.029722723875413328 -0.25629450509551344 1.1643168674994657
Ni 8.137816147747039 9.083819062366397 0.4767424650343517 -1.7467604365897855 -0.4359225705762235 -0.8086643947289041
Ni 8.961869272553669 9.254060002564431 10.0721559489004 1.0917004295843198 -0.8112067015347837 -0.9348867908949642
Ni 7.274540982190675 0.3422083563902167 2.7608999400785126 -0.027044405712301812 -0.20377226682708133 -1.190714126546072
Ni 5.920799818791789 6.258698489681003 1.3773626629937457 0.959793581438973 0.7037605575349621 -0.6906690144583266
Ni 9.245028061410974 4.180738744430986 1.7451057665955882 -0.03277642310007258 -0.956822414625791 0.9296152580833796
Ni 4.253551800890339 3.541403683605401 10.324951804719602 -0.5026151868077666 1.283219847185977 0.5042028430098606
Ni 6.98347459876383 4.100557036392733 1.794664362220947 -0.618215070262974 0.6537004076537775 0.22873047943431576
Ni 2.6468047797483116 5.147147155730377 8.787163468441811 -1.0589018949970601 -1.3328891893866466 -0.0621132243909769
Ni 6.166920215223497 0.4913849885627651 5.893881474833506 0.808308554051382 0.9693940806432145 -0.865605073780006
Ni 6.657544179114998 8.506815546044301 10.781012797094233 -0.8119014136089631 0.8291584009171978 -1.4338486972208597
Ni 5.625208172667686 8.241339662552251 3.803663564182624 -1.306959356894762 -0.643300295366376 0.36050208755337915
Ni 3.9830395880719784 3.742940485742575 12.622760334031812 0.4210878195562361 0.5617752421076906 0.6305494234586109
Ni 0.709814865820294 3.0740378973961047 6.516990634792664 1.0451449504222838 1.8841761303685034 0.13243880938941707
Ni 2.791427343649966 4.256116426156135 5.478742981265281 -1.0300060378983162 1.221839644306283 -0.9963572394956197
Ni 2.283557204058036 2.856369974021892 0.45452593406336317 -0.19020866921003374 -1.035622355643829 -0.030792559900824388
Ni 3.79839586105516 6.27340791647722 10.474469457715538 -0.8482380432564681 0.22907295037539904 0.8258787017246616
Ni 3.1510602844547533 7.390841162722228 8.360873501027637 1.4445005205077508 0.8853843132894623 -0.47998073723770235
P 8.158379610476052 7.318938734074644 6.827015731733293 -0.7555819130816277 -1.514934091838965 0.039672635999273606
Ni 3.8941232867371722 7.17972418432043 2.0134603490272887 -1.637693469157089 -0.12583081715459618 0.17048702241139027
P 3.848907828246717 0.22388063515939927 2.8769213569942185 1.2958089967048971 0.936770123960606 -0.7730404748777074
Ni 0.796038310626014 5.983995530504403 7.003542791468687 -0.2952084085518916 -0.8211121335739536 -0.3362054197895436
P 0.4304472621385138 1.9503045934329446 13.114493777114388 -0.395154644630242 -0.1499372232844966 -0.07702150896137702
P 3.6135477073867195 5.756004061223307 6.843091100247163 0.19217427757683678 0.36653492401102034 -0.3154535319541728
P 8.050312248732526 5.261375193384131 3.298560618084006 0.40660813788282224 -0.9519386041709283 -0.11549549666685915
Ni 0.8151466272803035 8.455811096464746 12.778764816368518 -1.3511129114835247 0.6910145707232035 -0.7542698791384235
Ni 0.7777504882143689 7.9142848963195025 8.359240875450823 -0.63417493602634 -0.025186012347324368 0.2600719698600747
Ni 1.5899468672269539 6.379208000811853 2.6426214670864945 0.3138841305845239 0.019236736742424935 0.5920998612331609
Ni 3.9310222973548457 9.173785373320895 5.266107670369167 0.24575401057550583 0.16556027453373423 -1.7007065796545164
Ni -0.2024167659511989 6.091254477761972 9.64258772136386 0.9450709305168175 -1.0449104658139745 0.26319406042882415
Ni 1.9796955706637935 8.253084902899957 6.360279022083759 2.1887880916224822 -0.6266547163898949 -0.4363784271667194
Ni 6.064028564614206 7.467649831008727 12.783375566574634 -0.42454723885974627 0.26337583742232706 2.543656635039168
Ni 2.323745625342709 8.488565821326821 3.835255844766615 -0.7786930451777944 0.24922140029881593 -1.5317056548703494
Ni 7.5025974963154685 2.086843012475023 0.3975921823747341 -0.691415662816364 0.5964774214755663 -0.16350750576976358
Ni 1.7691175352526343 5.026451802188962 0.8489309190969082 1.3883280870812413 1.5861940157262164 -1.8561919864507517
Ni 8.426643130126577 1.6834070155000733 5.764614140104782 -1.9655885693087247 0.30980404697787933 -1.2112983784553268
Ni 1.9638803815247152 2.6917228903818633 8.73160773822752 1.5196335541971635 -0.7460575185309603 0.6412575539047343
Ni 9.129164610544247 1.5141696243190903 8.115175896079963 -0.9593536656880768 0.9616128940358989 1.7212581785536227
Ni 3.4302327536054404 8.289435678406464 12.485644874304931 0.3328115636166462 1.7570145102176256 -0.725344454353325
Ni 7.080242741945006 0.09228748266245483 8.202896301502783 0.00048465294590239116 -0.6957572276145113 -1.0153620627328965
Ni 5.196590529061186 5.226362483233692 3.5329422786523783 0.07586811208322418 -0.17678339694306328 -1.6914493227223064
Ni 0.15275781542413522 1.5943513323573435 1.6947313227878495 -0.8136405077872567 -0.06977614025287338 -1.1161871018717744
Ni 6.976747103501379 6.86826159633408 8.784838579885642 0.8801724300712197 0.5033353528032429 -0.34712849445995053
Ni 7.084154724687399 4.789484144477577 7.6158944634922925 1.5389484524756913 0.514976536586597 -1.4555189831054416
Ni 0.10960892453916218 0.5825453370051433 3.857967645761758 -0.19996651992774594 -0.5481759061567011 -0.7800292474907147
Ni 8.329103740941555 7.32384497371356 11.831636625953188 0.10304544382896448 -0.3830596611389209 -0.5914650558626394
Ni 5.516053632822356 2.4963281799138617 2.569739648935233 1.2743652250088247 -0.6843865238837246 -0.9354197805802986
Ni 7.463849353712674 7.1777077941658005 2.756017859952971 0.8267161100242922 0.8499007756708719 -0.6225507215238504
Ni 2.0157954589160374 3.211003753982482 11.640095357868251 -0.1742986828479966 -0.02386009444704923 -0.9141788689236514
Ni 5.482750672849114 8.68323574639362 1.4096630031619892 0.566512756792676 1.0507846652065644 -0.33869116232587476
P 7.712348532999613 5.292745392287497 12.230292756128408 -0.46413554267532964 0.112457995392116 -0.5601274220916224
Ni 5.9460558023875665 6.221595052411709 11.04176456650972 1.0354292657964168 -1.8565030899332673 -0.7617093661356044
P 1.7777220388617923 5.395014470821396 11.00006710485126 0.19677526668395787 -0.16191753557482436 -0.21210212684901536
Ni 3.64420241300941 6.183218594630044 12.938537253579426 -0.10294105704061626 -1.2513955035865287 0.18246784892235027
P 5.196014417588434 2.3821466028627483 0.5075774377952903 -0.13924246257481182 0.0999611484766859 -1.94310092972917
P 0.2586777681135829 3.898471999144392 8.469822685009293 -1.1462723512929291 1.4804841376912115 0.6582049803923503
P 1.8808645767253465 7.434179612865977 0.5418709378168429 1.6021901340441569 -2.380015174794701 1.67657266272079
Ni 7.047051287418103 4.308198761716966 9.867259115980213 0.8733746904230959 -0.09349533824668414 0.7894857649179241
Ni 3.4064542171736534 0.39467817337707545 9.85447501655745 -0.14479424563097643 -0.6080183322356303 -0.6535155453364809
Ni 8.612457664329954 6.654682205992298 0.5978633976959605 0.312634574448139 -0.8415007245326347 -0.25059308383536194
Ni 3.8612198879466453 1.5570341763158988 11.928985526667379 -2.3927570478414015 -0.7070217447847371 1.7950796925204633
Ni 2.111485716115937 1.770121084269685 2.65794881989784 1.6273908016795005 -0.2057273336709231 0.9798422725597318
Ni 0.09559826520666964 4.092184835796781 12.783865261326474 0.055730975013716925 0.6618376920489312 0.4903427971983168
Ni 5.334401968615633 7.517409136437496 6.61397249674599 -0.14774407228791975 -0.7012745578883148 0.054241792062700134
Ni 0.5430798426975679 5.116836258567232 4.5556869582904325 0.2646415915086281 2.1615786210872256 0.6968391478247805
Ni 7.292363269363854 1.882462821456205 9.536344402880028 0.7857268120961242 1.2134658184202909 0.3460897687827911
Ni 1.823848125164016 7.716771582371059 10.33433591724108 -0.44150135021558157 -0.6015224400986414 1.6469946919533571
Ni 7.771465003800329 4.032901106826558 5.246292223342679 0.7621050589121262 -1.061736793342694 0.8105073614749138
Ni 9.253316632922171 9.10469845719337 6.627435850179368 -1.9269795986872746 -0.3824711356253026 -1.6361924591315307
Ni 5.509948709635297 1.3295351894227996 10.610958628518816 -0.19477700530700648 -2.5531203515552288 -1.518797431449113
Ni 0.5913291785404964 7.356571822214049 4.53889052122357 -1.4844626627229855 0.421125614772707 0.9436676224113877
Ni 7.780654911002766 8.490284863624547 4.721361750460885 -0.12183609417290632 -0.7183507966443112 1.5970307013304044
Ni 0.6412464500182453 3.110751065603213 4.161559807660682 1.0248710306645963 -2.7777015847078617 -1.3303857062385023
Ni 5.204405202425442 4.511528943116091 5.695661959724917 0.08192177447647181 -0.7649965215273083 1.3350450593873846
Ni -0.10179982644722245 3.059960334795809 10.576986635867542 -0.6805093003165055 -0.060704259858592235 -1.0585529962980735
Ni 2.45156803532929 0.27954136633565846 0.6955551776576444 0.3515489921251494 0.1447281682797314 0.8578431704464
Ni 5.220015964912899 5.228090817651947 8.882173542419043 -1.7426924371679988 0.17333683315535953 -1.0756559745269474
Ni 4.251591163458878 4.823948619516851 1.123288211389857 -1.381701068683027 -1.6984620065947138 2.0524692304523686
Ni 6.36453574249775 2.9157094557152847 11.700356617918047 1.290533607238571 0.6314752777069899 0.5569621369897633
Ni 4.6063457409863355 2.1864359602967864 8.668858048300262 0.10468683608712939 0.40629831995188737 -0.7948305741696052
Ni 6.4637755897394396 2.608381861364006 7.261044177123394 0.12307896544107191 -0.6100312489006011 -0.5879380165459874
Ni 3.533756268410653 6.580549668417934 4.427344189554269 -0.04587542237587583 -0.1562618799509438 1.6223468114976898
P 6.200297512160963 2.6400587002448037 4.845501693082121 -0.5855414912893528 -1.1603329431510534 0.7437466110095965
Ni 0.4352475716034068 8.430564404989497 1.9326216880676885 0.5103580639779791 -0.3135647995718922 0.9983251618552678
P 5.32376249061079 8.201745936981386 8.85472833522681 -1.478501302933228 0.5934234651405909 0.1522080215965443
Ni 7.885181974825029 2.4180141881017865 3.358046915281745 -0.77464947123604 1.0531279686277606 -0.086071020758155
P 1.8266729298046034 0.36239362981373013 11.416851232965037 1.205832213134433 0.8302048399038412 -1.2093669657605688
P 2.455944624098095 4.050937112771888 2.7469329537125025 -0.02298900469600557 -0.20737001148066866 0.1326550391652812
P 1.662722755204193 1.074336391234993 7.180505651656857 2.2895323981220956 0.06798613823198614 0.9355833027413565
Ni 6.036384506042666 4.4215161715589515 13.303410950362148 0.8495891579677238 1.6706982062178837 0.22612646615256538
