# total energy = -340857.5483024014 ev
CRYSTAL
PRIMVEC
9.37224698103898 0.00000000000000 0.00000000000000

0.00000000000000 9.37224698103898 0.00000000000000

0.00000000000000 0.00000000000000 13.71723081799487

PRIMCOORD
 96 1
Ni 1.1524958356379027 8.544068351550061 1.1443082406992333 1.456021633773473 -0.14110034171915697 -0.7413207751769233
Ni 7.156966430169509 1.3137828334624981 11.018420274176298 0.9982405725612615 -2.6161717714897588 -1.218214645959186
Ni 2.5842658859993395 5.73283476107526 3.6966700608438043 2.368667868102682 0.2879458134522073 -0.9508353438044206
Ni 6.098530464957989 7.59015168436515 7.612569161853479 -0.7267608750848773 2.6047267628776107 0.46961842016677185
Ni 5.034621107525565 8.906436907764261 10.163316143847943 1.2356873488226525 1.2977658633209521 0.05379056345789445
Ni 4.627228276946245 3.1803689089895038 8.611485735561432 -1.238295732979777 0.1927751443856293 -0.055331939803085345
Ni 9.000993507279187 1.1895068388576906 6.307182924436716 0.6056089514631893 1.4075599387276598 -2.901693548881506
Ni 0.5920054766220482 6.481696037162239 3.483024068188197 -1.7204156280476695 0.31195374633103046 -0.4224767294839627
Ni 2.535586435322313 5.678203933582694 12.412228038252156 1.0908553079752052 0.2736898177538254 -0.1443047075890676
Ni 8.842162038156435 1.8672702495546187 8.503064771128038 -1.0117522338944511 -0.11009360892499749 -0.011609302104154201
Ni 9.16474540605258 4.280080249784701 8.704763023367189 1.2047212394584412 0.9863996140622754 2.7467820123108693
Ni 6.7420101962986285 1.8983767371936353 4.478360443559872 -2.765303725264141 -0.7281814095814878 -0.8358206434287219
Ni 8.490833988853582 3.0969559111024156 10.46203589655082 0.8949038227441233 -0.18524644010875194 2.7874671487350575
Ni 8.926099881872926 9.472061383661302 13.283162830909845 -0.5964979903008566 -0.22160800945692158 -0.04135053792232878
Ni 1.6184370929363954 6.594603496212324 10.094153647453814 -0.3345241754323787 0.53104618845495 -0.8171742319721281
Ni 4.596984036026961 1.5757465080627229 0.734428953003122 2.0243038237617457 2.4312942846846513 -0.38939228822516814
Ni 0.9247296157219936 5.160780923768048 5.51195339377147 -1.2412234481495332 -0.11413332621200988 -0.6274445592810419
Ni 9.008172648445647 2.494114242552609 13.138460024069655 0.8363891143376821 -0.29784995993979674 -2.111114808009719
Ni 1.5252394692297433 2.830203018308899 9.63495572183844 1.1743449411594291 -1.1109019422134352 0.2501683375931176
Ni 6.722422200165594 4.117631093337859 9.403010417005918 0.6723851285474742 4.615003162012014 -1.0929597559127178
Ni 4.31644456796469 5.8332771316770495 1.7648456487221422 1.2564428362024491 -1.8460669822016078 1.0907077266537473
Ni 6.445584769649997 5.539607145632777 7.041012990859502 -1.1018938251775539 -1.5382537404015122 -0.12552305610619025
Ni 2.10086413262628 8.400073149354869 12.512624484843872 -0.02201944169388466 -1.2615151085190337 0.39944015937947336
Ni 4.3362856147654725 0.38389567024193555 12.380363335834593 0.3638802599969927 0.19728485933052475 0.1968392871526739
P 6.786415902364811 0.7809612219030774 12.926034297967407 -0.7251109981862802 -3.077061553534281 1.7194054416156002
P 3.844233277454235 2.2357401385356153 11.034140343991583 -1.490134259186466 -0.6649988633857321 -0.20703782495223055
P 6.344130196377219 7.523861781662299 5.295235178564471 3.7698437576808685 2.4605611519695687 0.44011912515607426
P 6.578876865824174 2.2034340032865374 9.173124194829104 -0.7432889546468876 -3.9571825615422753 -1.405053113145406
P 8.836810485145927 6.55911079699902 9.166114691332501 1.1477908448199845 -0.08315564688357292 0.7412410709789234
P 3.3013833616544566 9.559129557860295 1.0915790421135538 -2.289087340164877 -3.027458031574541 1.3259932335977616
P 8.087836742095504 4.505670233957983 12.244055250590746 0.20713681242394005 -0.5284275198851802 0.43941952798588835
P 6.196826591007403 4.8897917753515 4.417949751371018 1.1395010940073664 0.5565106512746415 -1.425797801891925
Ni 3.0770117695851438 7.826735314215012 2.6675073717671762 0.10260861340186199 1.1069316447117774 0.3615107313235516
Ni 1.9197360880009018 1.26538455019408 13.47886659399747 -0.06455757216641139 -0.3656612631568154 -0.061558123218455274
Ni 7.540938015611768 8.32429853273497 9.59901596644545 0.2286068093722579 -0.0892303923227431 -0.7514969443789767
Ni 2.221878585291233 3.2146807050866535 12.144467628911126 -0.5115505416241836 -1.2588136504274707 -0.7036075768968657
Ni 8.846089009629996 7.869997606152855 5.33018709912855 -1.353642619883914 -0.2001480398109327 1.0604293873851802
Ni 2.503852007137405 1.4580592030662998 7.659880264475279 0.9218096459960319 -1.7285338862794293 0.24422754662865037
Ni 1.762994629948805 3.5073572329538427 7.363052768432337 0.3425956395866035 2.043324844948939 -0.8414888974580927
Ni 5.567723886493593 7.303810795438598 3.1953466968460607 -1.3967330233154849 0.7138331112796158 0.48306914635503906
Ni 0.09481527353084442 8.046730066956991 11.094180832425767 -0.443107775470753 0.06510933090482335 0.8134440755057346
Ni 4.639768343370169 6.60941164639902 5.263480131436264 -2.5894176433243663 -2.1164688732327805 -0.552684592660332
Ni 5.078042727661619 0.7417468034244971 8.081862871887276 -0.1046932638450326 0.5404134886024629 -0.7963783782726993
Ni 9.092241703619488 1.9349753615474643 1.8457496960997501 0.4769020983123786 -0.30675626129049105 -0.3657651357245314
Ni 6.619636767825403 2.737202211788272 -0.2168484894396543 -0.3617603854405124 1.6299922438580896 1.0541363552876168
Ni 8.58225088563905 5.649665441608966 7.182369905537255 -0.565605157376742 2.044608596757369 -2.2785810413169143
Ni 4.342733720669553 0.5934403676306451 3.1499972055116503 0.7927487519399121 0.39870842341977136 -0.8115484011449186
Ni 0.9925771858685338 4.625972395854462 10.96872299748011 -2.0157636475012186 0.748718096082259 0.3167005169873965
Ni 7.576421342578119 6.468968525799243 3.1674455176651772 0.33721714888350957 -0.4624072471303133 1.5975194680413647
Ni 1.255759252572727 8.73541214535487 7.096294252290648 -0.007642861257238449 -0.3108234893813292 -1.1338919753507053
Ni 6.924703406165259 2.808459405376534 7.047391742136126 -0.21388107312630908 -0.10169972843434744 0.11849006051880882
Ni 3.5787081490116406 8.067967578553862 6.855419070560732 -0.0366850141258594 0.15414174828414742 0.11789999234329372
Ni 1.6636113232527734 3.465200866156526 0.638078505421277 -0.9739937841987548 0.2453665453291 0.38915111874863945
Ni 6.035380264984596 7.681212435766381 12.536163820292549 -0.44495228487865957 1.1936405561642474 -0.797229413419085
Ni 4.291795558476708 5.133048445032329 10.516890720745577 -1.6516303909531556 -1.366959391597478 0.5331233826989528
Ni 6.933597668524231 6.127200168389068 0.47900148342834176 -2.3578718059284425 -0.2085329214405183 -0.62612506913867
P 8.47223945089763 9.039110435639499 7.551047858400622 -1.0624122221431638 -1.05107185742968 1.4248295244413849
P 3.0832536860562447 3.899192133590178 2.0494498602881914 0.12741153137815475 0.840253996609727 1.1316029222062125
P 2.8061913216137615 4.313389215457814 5.110367607404604 1.6103204764607753 -2.5227882762305907 2.1374274777623192
P 0.5421704278956422 1.35288384775294 11.066663915369983 -1.6120073772448946 0.46591834560736534 1.1620607244754373
P 3.1440420797973294 9.024836503529158 8.788437506944282 -0.51792970567765 0.971241161154282 -0.6971453662112898
P 9.584059734756885 1.9266059450178947 4.094922138969273 -1.299447879009065 -1.0850279026601506 -0.4920404966157139
P 1.703574584262947 7.5434029165605665 5.2605035058038 0.2526623076595649 -0.4827176765528913 -0.28880173369459944
P 2.7335095464885515 4.840456267387722 8.939066385533238 -0.5464347550958782 -0.20658556790616034 0.7370679134378403
Ni 2.143095477399226 6.106178218472132 1.1574575031751415 -1.1032205144087774 -1.3184956396691356 1.2539388388336727
Ni 1.9921460679644574 2.0225121480941386 2.917916003098301 2.9505815328314604 -3.17107728306081 -1.2967081114803989
Ni 6.610573805021268 4.188438419072348 2.368376177423039 -0.004647526074340383 0.8586636094651664 -0.1322734874561464
Ni 6.364046221153631 5.659262622489458 11.248896947911192 1.4450275966558146 0.21312542590720715 1.0161588476025791
Ni 4.307437838642275 3.906211946558428 12.697670128695858 -3.3869059668317925 -1.4069870969433254 -1.3914494063190421
Ni 8.83648245650255 6.298309281021042 1.3595240847195695 3.801620792982149 0.6873057544130485 -0.7945873478105476
Ni 6.560825918191529 0.3423944235066754 6.202135968906621 0.29117589035373076 -1.3202529886798746 -0.10381548922576961
Ni 2.77948979004294 9.424262924197913 4.793060814543339 0.49946969920024953 -0.5714973544914609 0.5593730604241011
Ni 3.8747305690412674 7.523571242006737 0.37658063149464654 -1.1400675080337976 0.6797248567419971 -2.5230163330809967
Ni 5.680331433641162 3.0783894898873236 11.197869749372286 1.607744745313799 0.33512092847611313 -0.6114594967066953
Ni 0.7743097382401037 8.780352069497408 3.4813098842203827 0.37070139668388413 1.3155273010694313 0.26157837920227206
Ni 3.82188984071684 7.096571670800476 9.413394866630512 -1.0413250624555614 -0.5028301310320502 -1.978807896212476
Ni 5.136122542033111 4.082953779609519 5.943950247053394 -2.167644367665331 -2.172776032464942 0.07361865392741514
Ni 0.9712365795551743 3.8596225069520558 3.202657986694568 -1.708410633166993 3.0091016405545403 -0.12772160641940586
Ni 0.7695701929556655 9.486775811378461 9.230777571964206 -0.390775798836256 -0.6745412556585286 0.12573260101383507
Ni 1.9583684899436635 2.0878179648668613 5.363999354463073 0.5337749002400227 1.0801029545547076 0.28961291674198514
Ni 7.969099745440277 0.3675748393969271 3.2349341307533943 -1.291801675317717 0.685821199447722 1.4555822322432093
Ni 2.430486057984582 0.45567489798551325 10.769631167118757 2.043774530891848 0.9462009303562027 -0.10385945508982757
Ni 8.141745906572643 3.40771150334311 4.857148239212093 1.5018029537736457 2.684100059900616 0.2251021386531091
Ni 3.4027629569516065 5.572475615699072 7.018064106968904 2.4890949977432033 -0.8676868960096992 -0.6571395152423134
Ni 5.710313251645746 8.275965855195226 1.1571510306997586 2.0660397700479516 1.2712253938282623 0.3766779259822932
Ni 8.50187449576493 4.010187654261727 1.0048435826814126 0.0017573490107389087 1.120841055704018 -0.15949838461037047
Ni 1.415396734933488 6.162177394019923 7.512255191034954 -1.318750178882103 1.6911166219732359 1.7765703208623662
Ni 4.658503465030426 3.1720463536947023 3.519677051574357 -0.7424654303043278 0.07224619905992073 0.12542638262732592
P 5.636909813505109 6.012943105777665 9.115374283550377 1.9068982545563675 0.41276850105726337 -0.7366940750381893
P 5.408798694901306 4.631052153703316 0.28955275795755286 3.253938795742731 2.3141291136248534 3.3267619503520445
P 0.9358347911373206 6.7313258347715195 13.301269074799515 -1.6809481660806664 0.8940347898756086 -0.6071793812741028
P 6.195926855299857 2.1133948268032503 2.120560846823977 0.4496126664688063 -1.2468958159439623 1.142324679499091
P 3.970036948312481 7.646366421592876 11.500539904166104 -0.06543046168966796 -0.931461310153183 2.1188839104321766
P 8.531144023001039 8.433316509299306 1.789714906013534 -0.819039567315641 -0.6878950512576153 -0.9163959311796283
P 4.523055752056921 1.7160584172051494 5.815200878977631 0.4333057017786666 -0.5354659147892004 0.0012264162079333718
P 9.051697363298192 3.4773004369736302 6.838931413719949 -0.286467686244784 -0.8063807409010498 -1.608846205908094
