# total energy = -340891.27291467204 ev
CRYSTAL
PRIMVEC
9.08582354407713 0.00000000000000 0.00000000000000
0.00000000000000 9.08582354407713 0.00000000000000
0.00000000000000 0.00000000000000 13.29802116587434
PRIMCOORD
 96 1
Ni 6.444411020785329 1.7191649962735207 11.272373187862549 -0.334058805760186 0.5432473585068321 0.5503921970817295
Ni 4.836747249760832 0.2741320133212495 5.896648531596688 -0.9330821335860576 0.46516424105016013 0.6385650946742358
Ni 2.732207052302719 1.6052560278130414 4.925041464780793 -0.5119359499880602 -0.0006402046871601877 0.282588662905352
Ni 3.709877997682109 4.419190061953681 4.842806585412605 -0.46974080467724905 -0.07143270201968989 -0.21425079776090197
Ni 5.275083715774022 4.280258735740936 2.8671197188081923 0.6490377120707854 0.008527834965353054 -0.6864030400931211
Ni 7.402356643477657 6.215929818753291 2.578326820785034 -0.07666541117353894 -0.6843070767960409 0.265974965608071
Ni 4.926896789927129 4.391496472110215 11.435061216622444 1.5238661042212724 1.618262099905355 -0.37311926209675744
Ni 5.606798043725178 7.69006832851152 12.479088656327225 0.20016346642990046 0.5037978942619582 -0.1758734835342842
Ni 1.8089420176788007 6.617423270719479 0.2922555053359355 -0.11406339220602292 0.8210290869418442 0.19802430859971057
Ni 2.9352570345277162 1.639382380651644 0.4591793449833056 -0.9451920294757142 0.05425747579198397 0.6444536922445289
Ni 0.41652140393505244 0.22536839892168084 4.64720606982562 0.7270897191792057 -1.4390245849948444 1.2721535620694864
Ni 8.532151530703885 2.351056759017475 1.2539944593142367 0.5575234088098721 0.9260362824828697 0.1836068476227999
Ni 6.898502304642539 0.563941614987283 4.783963158489303 0.6183017164395094 -0.18118461133455246 -0.18746967301231585
Ni 0.5277318828340128 7.6427675316857036 2.29328364209534 1.482760335319898 -1.1063994263573915 0.41291453971682435
Ni 7.896961614051408 4.224390007411711 4.032877203790137 -0.24211821359513142 -0.577174093161264 -0.7444060989704663
Ni 7.476978511385922 3.8658906719610346 12.6021752150439 0.6120379949179846 -1.2162945461183376 -0.1787358926837438
Ni 8.007227167312664 8.700357380038563 6.960556661569346 -0.630215951378592 0.9027495440407872 -0.028790441869131062
Ni 6.861841007064328 1.0039471467663013 0.34058118304572227 -1.008714989730024 -1.2431196367309816 -0.038608970621449634
Ni 1.934608041669938 6.381391749409252 9.409693067451078 1.0188739325408969 0.5096954906933158 -1.315558925638315
Ni 0.19690705699758007 4.906644489480579 1.3469960394581804 -0.9778774355238772 -0.15628861942382113 0.3691011420762998
Ni 6.486814558777277 2.0000077987871534 7.177248099106344 -0.7119389795806964 -1.0253019475544278 0.5052217711926783
Ni 3.2444203487021386 4.543938417777434 0.565047359699865 0.3121393799792753 -0.9309478608518742 0.6013560897241063
Ni 5.89065733962071 5.6053261403279855 4.807460915068428 0.6545606987715437 0.3482947468539098 0.6085654629883519
Ni 5.253950090453844 2.9853380933260065 9.268747414181803 0.09497475100568804 -0.11907447226736911 0.058401065646712325
P 0.28149425605424194 5.519701340234537 12.457147301303278 -0.1818307295589836 -0.5568024714834474 0.7939011203768005
P 3.9289281149839907 6.117348634435176 12.5791163037369 0.46427566779761975 0.4133626829978365 -0.0411852159890581
P 2.1979242907688574 8.717611358750093 1.2524862126232867 0.6637953299959343 -0.4632842504186279 0.11291153798976683
P 6.213367616543364 7.59158708825124 5.9775405262605235 0.8584154980101023 0.8274702145814975 -0.9110400661843535
P 4.80328416203331 1.1593964999919806 12.638000616865682 -0.43191087831366903 -0.207762618933397 -0.23440104745653179
P 4.0339602339441205 6.2268782359978365 8.199266948693728 0.7050461091156052 0.35211951991663876 1.4019369361139273
P 4.487451853454326 1.0464688004629628 3.790095824246736 1.870731060607191 -1.1480510404599067 -0.1942915810301557
P 0.34408285939928923 5.976182195656324 3.666065248474701 -0.6328068520342198 -1.3973786273192839 0.3614227995954356
Ni 1.1508830834292088 1.1777044342224876 2.474295959567933 1.2523789505457208 0.16949329103955324 -0.1045989043590134
Ni 1.9802915619235306 6.54740791529502 5.02129304396903 -0.7266670298194905 0.1676503242935435 -0.9113645394033079
Ni 6.0186765918826675 5.4222195405525975 9.092801351859054 -0.3898242335562641 -0.2599884090073329 2.0601930814591873
Ni 8.499633368614067 2.2151600978335084 10.137440267481308 1.433667691558305 0.24480038841298488 0.8828206663273441
Ni 2.489788197114552 5.440363929961193 7.0014346898058095 -1.0393041753707908 -0.5011470869026724 0.41821255489097003
Ni 0.5978362793281794 0.058347340963508486 9.293973294379114 0.5973269139600551 -0.13935276290043097 0.14428105343998376
Ni 1.5125442854368167 0.8976530069304314 11.468506132703087 -0.35529688920335584 0.8960998999347535 0.4546736259314815
Ni 4.02642808631281 7.037751634675665 1.339682860171761 0.20903685766013033 -0.17459718792502188 0.2461939263264018
Ni 5.888940118990653 7.625858814264873 8.207246118838258 -1.7948182113289606 1.0176863399906988 -0.17730918753954622
Ni 5.511660386490617 2.594711286193408 5.056519690026151 -0.4184089871724923 0.8624526441939535 -0.3885397104168857
Ni 1.0989303450023906 7.8082839772823025 7.126435631521178 0.15916002743434524 -0.5121557793083502 0.10509564148977384
Ni 5.0302480315509595 4.6747833611290615 6.980237463721555 -0.31492902690927055 -0.5278431081366199 -0.22725929420542795
Ni 8.198638209711717 7.370601690556754 9.093492783022795 0.250847108827697 -1.2211187069798581 0.21593846987597004
Ni 4.61217295180776 0.12040896654906721 10.335953698062983 0.8471448101922895 2.127250280119001 1.2399864904186386
Ni 8.111886767511777 7.18070798067209 4.838152826646915 -0.22843274568823882 0.42690828289275506 0.43920664064413395
Ni 7.143083585809296 5.972120832578887 7.153816669038328 2.0987789121521856 -0.47486295639516285 -1.036341493198041
Ni 2.151513904640108 5.577132830195349 2.615547805087116 0.9943543501329778 -0.1392064671305538 0.20476162732354414
Ni 2.1778082776738983 5.186914885117526 11.576206758007386 1.1341786533531883 -0.11901533689465954 -0.9181828478767219
Ni 1.2748228009668492 3.354976648313458 3.860083013618534 -0.2569408804302607 0.39578610756665383 0.4714259056891558
Ni 3.6203644651565736 2.6285287210350687 2.7551769225400116 -0.6185117755677864 0.7647324692326443 -0.8480498385050621
Ni 1.034702659108865 3.5152596596089283 8.001233249589655 0.4155362936103876 -0.006694381301040084 0.3732534736817766
Ni 3.837797305886232 2.5882603515513933 7.154122861288237 -0.39094857696869445 -0.06755470712152237 -0.45908821005940936
Ni 4.098560438598663 7.052897702349241 6.082728012801467 0.1454200521404334 -0.10324650409617703 -0.03955436525385446
Ni 0.8674053921181333 7.2758456379066505 11.257453357192615 -0.176368935113464 0.7796433249062057 0.5094288672954903
P 0.33948270699189187 5.989011378352838 7.9255810493033545 -0.3743767886529423 -1.7910924257379408 -0.5262829627383516
P 8.736046494508752 1.5916999792413709 8.037496588101217 -0.7355108533633656 -0.44583443037329673 -0.8062794394364954
P 1.7084164671446425 3.4951436465139696 10.305873262401974 -0.5425099661201753 -0.8919390836888444 0.08483843390263454
P 4.210397839314947 6.054411135470054 3.351061566993396 -1.0256117654853627 0.39009059984377337 0.6946956191192164
P 6.874324928470142 3.776758744019956 10.388440682908042 0.4882234368624689 1.0807629567362098 0.8965922661901398
P 6.4902671716842715 7.673205040207886 10.453255312995758 -0.7493212768838966 -0.8283832133140702 -0.14327035278728228
P 2.4572609492012942 8.652811265979881 5.698135101015012 0.37197872073441096 -0.1558510176657703 0.5634647139949714
P 7.058049364239412 4.0439728113744025 1.5761350551072362 -0.1297088120527637 0.11050524254111936 -0.00680262474413022
Ni 5.215453456540862 3.064421100543045 0.37427505068860667 0.08263294161088348 -0.23182325942702656 0.49742541507671106
Ni 1.6581991209947604 1.0549277020850976 7.255080897018114 -0.36327116565808404 0.7887440016558933 -1.5285429408716513
Ni 6.965864599622677 0.3187861097791515 9.33414717129902 -0.21756006463979305 2.146969098704167 -1.2868972960375642
Ni 2.538470039103166 1.7448960482540643 9.26544926027328 0.968639718975693 -0.11055306505991928 1.0056101255524552
Ni 6.482962169638947 2.1430640888414128 2.7016523366581673 0.24599646560361504 -0.4802825847488373 0.10296265430717105
Ni 4.206999741348589 7.022069503419162 10.567657641668998 -0.050996288542208945 -2.777194820274772 -0.6334830521656379
Ni 8.001812016542749 6.8746611039374015 0.40458535768263704 1.0212511745238217 0.9587150036628134 -0.3653663576242159
Ni 7.751933700310786 3.623181070422805 8.379721396607136 -0.5863076800314161 0.6912022612539773 -1.5180132449849213
Ni 3.205996401376672 8.512916842482554 12.529408672281972 0.3398329892398018 -0.16862837193609667 -0.10921094920972804
Ni 8.883427636520192 5.02955750896956 9.95876845812672 1.772593081382173 -0.9697278098335492 -0.5909333517288855
Ni 8.414808120983292 2.4288314076592314 5.850025537199455 0.865199353701155 -0.276122338454718 0.5510437146227994
Ni 3.384551003608892 2.927188823313478 11.810464726582232 -1.1179290242635458 -1.4189550679384788 -0.5937006300613775
Ni 1.0476317858632134 3.392410240884023 12.79265586912275 -0.3597513254302837 -0.8565031114787379 -0.39651115865813646
Ni 3.426391220547594 8.522366098859589 8.24616887787055 -0.40860279971534785 -0.7187174359551106 -1.0174197165928738
Ni 5.695248534908297 7.669243621188283 3.5493878296122188 -0.4386528250231929 1.3716503693152442 -0.35993670196821237
Ni 3.0458224199624753 8.230802024687396 3.609096226926958 0.32371834306612635 0.404834076701535 -0.9373985015732242
Ni 3.3161892680504135 4.2602244950569315 9.103412685053996 0.2511286446238578 0.5382522192850859 0.05266570582483188
Ni 7.609249929017545 6.0134431575815395 11.507322587601138 -2.696704121817872 1.034709871131889 -0.48367052738446376
Ni 0.15634794116384157 -0.16168222810514707 0.2971000663938542 0.6362066217443881 0.7947410997795926 -0.47880574309299473
Ni 4.628136743590887 0.2712545330379733 1.6657766977432682 0.3251828434267948 0.7470880166780036 0.11902716396920146
Ni 6.010671981432505 5.557770940445865 0.3384296600552587 -1.1631930383076676 -0.18891309032706174 0.3781249428414649
Ni 8.162294915953886 8.75146513688551 11.366390563067023 -0.3477149630910399 0.20876020695997594 0.5625697129845278
Ni 0.3323403411861343 4.7488419079840805 5.872990864525029 -0.6886455562703947 1.05794955838612 0.4736414252832359
Ni 7.927689868923653 8.971451094001656 2.5775018280167314 -1.940538825428948 1.131614492170438 -0.1910311651113291
P 8.58801117320967 1.8748596667320654 3.7783269571456066 -1.574152254070334 0.3441467861238073 -1.286618331344565
P 1.6935702316445689 3.3148718236516923 1.7368541859278006 0.610241050918562 -0.49680963586958315 -1.0422907688029404
P 4.775863146893026 1.1116504978176311 8.461052236543098 0.8800747281510909 -0.40025185664749136 -1.4625779468347522
P 8.597878377464921 1.6031390309516478 12.313847511180843 -0.052831541978734825 0.40052927867859406 0.8292936409434815
P 6.25128275775622 7.842437587591223 1.227105873427506 0.6330264242441936 0.27753335986963173 1.7818392825707896
P 2.098280065108326 3.4904826190895277 6.036796449567977 0.15209823549155743 -0.8379634008033374 -0.2204870084786009
P 6.977358166273591 4.0516685038276234 6.1248153641377225 -0.07701842363758349 -0.15703166823743278 -0.15352082687069687
P 2.5750313926235426 8.46090050329166 10.227082818699683 -1.9659354111251819 0.34851303351230295 0.9527145631050046
