# total energy = -381161.79851076094 ev
CRYSTAL
PRIMVEC
9.29589862404787 0.00000000000000 0.00000000000000
0.00000000000000 9.29589862404787 0.00000000000000
0.00000000000000 0.00000000000000 13.60548728013145
PRIMCOORD
 96 1
Ni 7.852115171992251 1.443950478516159 2.9407304767993665 1.7708051362438146 2.09162995981223 0.9350757669773186
Ni 7.197349277619139 -0.4657105622018759 11.523588779349213 -1.4435337857191075 0.04125463577441282 0.11597192208264542
Ni 0.4260867955943828 8.471668203512767 3.9370193093001853 0.7349197567465859 -0.31014626080864655 -0.9384094593362419
Ni 6.208377246689406 2.1378892884280334 4.303129898495768 1.198874550869677 -1.7515303471746029 2.155989299924906
Ni 4.772932515140018 7.892403595329934 12.711293172605817 0.1433909375255466 2.7908658900039613 -0.02945610047758798
Ni 5.025846020850297 2.669075510477388 9.8961140281648 0.27447014756327565 -1.3982237489283984 0.7558192259034144
Ni 3.446556558630093 4.2536078593525195 1.995966019940859 0.15900910367877777 1.6188627096038313 2.004309125807374
Ni 1.6329546832466106 0.6252616426814934 5.806168825120753 1.5065844343226893 2.1532546746025627 -0.6076280387757471
Ni 7.535878006896577 5.749057614585514 8.050488712643803 -0.9562953384777272 1.347270397808983 -0.3827791537840246
Ni 4.883553705199646 2.2281710529540093 1.0981718781355696 -0.17928148077456868 0.3966479413463169 0.641748891718856
Ni 4.267709737110541 8.977643949306515 10.318129220293121 0.894751356326659 0.2499395094117631 0.6479015415838132
Ni 0.8793157551161693 0.4746364837729058 1.7388489090083137 -0.30041746355665677 -0.36071163246102395 -0.6086418247522422
Ni 1.6385136304445653 4.710408303010516 6.719014885492811 -1.7316801452178952 0.7320000119966297 1.637171535215348
Ni 7.658267804234819 6.588096101441988 2.6073284354478012 1.3017333326091325 0.1812198354478621 0.6447329140478445
Ni 1.583760789314211 2.518100825791805 12.580517545389188 0.5010663542634081 -0.46255894221682914 -0.9161524477102544
Ni 6.433756301562996 0.5066794452969008 9.45656119425778 -0.5670979398721846 -0.02920927457410453 -0.26623953212336726
Ni 7.296294819383398 4.799528080245951 10.269136117764528 -0.7899984428882846 2.7147486380244086 0.5509457555923545
Ni 6.10067496870362 4.443272072864 6.796907076732109 0.1189286907181242 -0.4244145699366239 0.47289914780057263
Ni 5.871596146296945 5.549391014477045 3.1778604767447516 -2.201900460634724 -1.5883995080179678 -0.45071207018057213
Ni 4.21009375929629 3.4955273510027087 7.913822274659043 -1.145867916765659 2.718852632890453 -1.286144734142256
Ni 2.741146610185985 6.572581247138668 8.12999931978137 -0.16011519225876295 -1.447623639517765 0.4806345687716174
Ni 5.571887088421946 6.46804887048148 5.270629333886111 1.1300255504167636 0.7873203818354892 0.7924942127269448
Ni 7.207649132962506 7.772402843861047 13.542792685921253 0.0669309574945944 -0.1288570055754297 1.5671269717924363
Ni 3.4869100532560466 8.753120117078767 4.627498185855741 -0.5360822082169606 -1.2427380850218468 0.9132234469889176
P 8.907757385704139 1.6601451858453011 12.195046388753505 0.22218753610947542 0.12813889646248255 -1.649152104615992
Ni 8.39933681865109 1.1758567708422345 8.347741794181513 -0.791467057014011 1.580682341879368 0.894541297198382
P 4.6594388924981684 6.1021716083338395 7.2633297047456296 1.8427011510531686 -0.8794502071932144 1.2649143640085698
Ni 8.901343215860345 6.25646492872121 12.85960644160114 -0.3597436121207998 -0.6421286436557779 -1.8151571799966288
P 2.5593560225552197 6.502880601502778 1.204500222349019 0.2461337625124277 -1.8754541771144733 0.7680152537489742
P 5.076917686244213 3.954874870801575 11.393942603778992 0.7853902546923118 1.422012366707564 2.753930964650825
P 5.003238396125506 3.253852586366554 3.2953717866423804 -1.652761676344121 2.1056697257347476 -3.119279324552912
Ni 0.2851702728957343 4.452930511222987 11.26165639308466 0.7244409687024491 -0.39040890241514054 -0.4064363881916484
Ni 5.802313816085649 5.820347858834866 12.298503229974568 5.418303978436159 -0.4532338081611614 -2.2000078715977014
Ni 7.434673561839503 2.3282135107205413 6.340224690982831 -0.01295090373371318 1.1167972246519478 0.46808038625569065
Ni 3.131620819299827 6.407616235474955 3.650338452926746 1.4962195461485972 -1.2100681055926514 -1.2162963458905502
Ni 8.015825237382177 7.398772802510907 5.055526894610078 -1.7929767872448477 -0.23882257356299513 1.145438285427408
Ni 0.05711492889456862 3.1388623240944864 4.761484616353595 -0.8324249874836115 -0.7514187828428737 3.0956871390552685
Ni 2.9876087624591734 4.0773297394280865 10.967804680743827 -0.6391078545515831 0.05374068405656551 0.45331351235916123
Ni -0.2267883130595584 4.297809855884749 8.72172972761714 1.2488112877991204 -0.8582753728878121 0.15150482488193262
Ni 4.873151594974711 5.243825540657712 9.415990175611036 0.30247177498252426 -0.5238972361149945 0.16972906119944317
Ni 0.29909088063643136 7.232218192233733 1.0525531866987106 0.4983659246131094 1.5883835671783677 1.1048999589937296
Ni 3.2571340384750456 6.373249299369876 5.820209349949834 -2.1033194803350166 0.6533299116882361 -0.09443379090055348
Ni 0.68964410488603 6.296864902838786 5.052873845228311 0.3199750739736102 -0.10056072973389778 2.207579256187056
Ni 4.955197193585324 7.1063424330238645 1.3857191122328374 -0.5558149107591975 -0.5690440078549619 -0.29769440819853893
Ni 1.2588691428785779 4.573898036117605 0.10094601908365741 0.018405756200697333 0.6905332602114107 0.595541025704226
Ni 8.689908008473264 0.7391103686393328 5.322085849470654 -1.2425316254379957 -0.26055996524008673 -0.24847038106540434
Ni 7.627712186442717 2.705413177027227 10.654960518536535 -0.0996238197419252 -2.4153866123154595 -0.04343467414486713
Ni 3.474527916688028 3.61230242575305 13.50529582085037 1.5531597109790671 -0.17208959101181975 -3.3213981149369705
Ni 3.0744231569101714 0.31878238205687776 0.6569011622182122 1.0382855042982895 -0.7394788368721781 -1.0122595125481728
Ni 7.004859111017059 1.3614679726843029 13.246696943724924 -0.19547017471928915 0.4710826634171242 -0.7982007761934189
Ni 9.152248807532567 2.3189176123962025 0.6151867480775752 -0.04958269602413396 1.0972408997865748 0.6946364837465069
Ni 7.007685064107659 3.18547195829272 1.2692024634559127 0.25143820544447665 -1.7452509419237945 1.3257392086054265
Ni 2.5975156851766297 9.64291420878613 11.796514494972127 -1.0168355619546294 -0.36713141994443865 0.03243138105582802
Ni 2.971907990189366 1.3165966714727206 9.480983378335482 -1.3639018357180768 0.4406528861723573 0.4450790402645109
Ni 8.439113967580933 5.058446736273752 1.3478290306628333 1.0078878658430384 -1.0764455603077783 -0.9381898871262682
Ni 4.041428980099491 8.791131045326987 7.398690998605653 -1.3917039455320095 -1.656739944265579 -1.6239082424475388
P 6.253164884816069 7.1269514396089235 10.654606344810377 0.3501397704824486 -0.17656485317435397 0.378592883616819
Ni 7.789367858302965 4.12858732278849 12.91760726960602 -0.40133171997523137 -0.351404239017169 -1.0824375162251552
P 7.91986367898003 4.971399944364647 5.8063184890837745 1.1333736409533899 0.44677699679222416 -0.8037523021392674
Ni 7.187560696683611 8.598306226385231 3.0781601080365557 -0.9141035356010259 0.6979007563200755 -0.2532796295285896
P 1.7663787118958423 5.76308512515694 10.133965389820153 0.9081756001523649 -0.10759681064507277 -0.6791795257614883
P 1.5528054478941635 1.1130536817630032 3.6128146297507207 0.7185557135662658 0.9195776713417195 0.6471178693402533
P 8.131494100231922 0.4240602897596769 1.2004174638049696 -1.4533618275531228 -2.360058014946484 -1.1055015971334703
Ni 5.641346040701403 9.334662220351063 1.130635943853657 -0.05559290677395586 0.05177173325565277 0.2291549685662441
Ni 3.933289794892461 5.792562418743418 12.960341443792837 -3.761132860170432 -2.2578481796449372 3.461454588772645
Ni 2.0597293753169947 3.4234004759041654 8.880858774312832 -0.4639352537390655 0.8156187145595502 -0.2934446317832495
Ni 0.9972639722350419 6.071699653626657 2.913002671277529 -0.8347112124146269 -1.0410134447524135 -1.7943433285750712
Ni 5.266098513042828 7.499493860855116 8.845906196613319 0.7196006098910124 -0.02748792100762363 -0.7772295732583905
Ni 4.651267797871075 1.4273573000072146 7.982570090716688 0.9536707563706867 -1.9851716336469747 0.08565347360476216
Ni 0.5863880550687744 3.536522262613042 2.7713694348180744 0.8017884935446772 0.17460747233766702 -2.9597516293665027
Ni 2.175165840708631 8.272633724490355 9.382493335589114 -1.1116758442649821 0.9958759289838268 1.3529795323786185
Ni 2.3348321903274702 2.3693013813141177 1.2944659263319676 -1.3472449438876861 -0.4955315404881079 1.3194376918674309
Ni 0.18990869563740997 8.824977411125904 12.76507552195111 0.22748169462887918 -0.18132833600126838 1.984942548355304
Ni 4.804436314561201 1.2160615310949987 12.175250773271827 0.08194105775018147 0.34666569589091906 0.39331347765644525
Ni 2.352447917652092 8.157699237608233 2.4574367229170044 0.5466692397041876 1.1353564757113737 -0.11667126214251519
Ni 2.219256286460969 7.168987491831581 12.916491761807098 -1.9710542204089863 1.9156027243089007 -1.316074946042785
Ni 3.712530801486068 6.76368632489042 10.989205697866117 -1.1874282567059486 -0.08468545326453802 -2.152475373234377
Ni 9.166211246815724 9.181270602101153 10.649327204151986 2.186950009972479 1.7967308549706411 -1.9004514704897593
Ni 0.6697704038584266 2.4194155691806274 7.043792192379056 0.15022467261792838 0.2020727676374713 0.2259845412580624
Ni 7.601070141845162 4.003129879003216 3.439289954909958 -0.021680570297227177 0.32089989978072475 0.5618235788471228
Ni 5.876560156002142 9.122632075471225 5.021567118851605 0.45278592199046536 -0.6342001328373207 0.935200465480641
Ni 0.19629218901673326 8.836708834811219 7.4315752389280005 0.056127696231503335 1.7515321469468157 -0.1625752237634813
Ni 5.830610530584936 4.928517965394473 0.7859049912142206 -0.6594591645144254 0.2693929901506844 0.4188828414851173
Ni 8.124838237031696 8.000654331316857 9.071853230874526 -2.2438588073443806 -0.18840426901144328 -0.9499624542811639
Ni -0.004419270063390557 6.820623702126994 10.51817044510406 0.2617876669996008 -0.95411350033506 0.9141153626755675
Ni 3.903598695644523 1.3026435280878883 3.3973310586433905 -0.3866504638139728 0.4376763200425366 -1.521723861067289
Ni 0.7277043013953693 2.0731526524973396 10.258319410474328 -0.08178627733987205 0.16969563685834646 -0.03068303090615361
Ni 4.509551827916533 4.297716896901505 5.110262073533616 0.030470914895347524 -0.047077413103776986 -0.8559112435310097
P 6.726288925931606 8.424268417956965 7.428609847362536 0.05184809501954296 0.6680921575990751 -0.8966179772217525
Ni 2.0212629480508815 4.453330234850934 4.465198308241616 0.9305267141540554 -0.6418314241303333 -0.9682021172176422
P 1.6819161797209021 7.961611558354635 6.295190711550572 1.3426452403321456 -2.594523082871732 -0.4479046826387641
Ni 0.32667274055457635 6.687264744766033 7.579697942007676 0.3818011061414715 -2.167117291517268 0.4874392503982767
P 6.346597958873997 2.6366328253254463 8.212517150026857 1.9977422712231334 0.0953133652920294 -0.19115406384243855
P 2.9566255333441527 3.3162001764278934 6.139516950262037 -0.22934034510417275 -2.641269337888335 0.01661266885601655
P 4.9589620324066805 7.562185399154455 3.4488005884855886 0.957920532785976 1.683922932438274 0.6389443323905254
Ni 4.247584117238348 1.476514010346317 5.777651797831179 -0.7810612882996549 0.9402701666940646 -0.40894655620801185
