# total energy = -340868.251914803 ev
CRYSTAL
PRIMVEC
9.20957353736049 0.00000000000000 0.00000000000000

0.00000000000000 9.20957353736049 0.00000000000000

0.00000000000000 0.00000000000000 13.47914178988632

PRIMCOORD
 96 1
Ni 4.505083978874654 1.298411740529225 3.615038548184608 0.758783450738061 -0.11146554957185964 -0.2716481047334483
Ni 2.997578078278929 3.9454089788129343 9.636642758340026 -0.2740978518255215 0.1510368841065786 -0.49138743641274724
Ni 4.944666138588102 8.664237952445491 10.58359322363344 0.22740584708562128 -0.5503112073321491 -2.5987759446108143
Ni 8.882956116972416 4.441114280327177 9.4133336213504 -0.9102844189652517 0.36968786781770524 1.102087943466231
Ni 9.19703941660719 6.647092665408611 1.6336586404032885 -1.3646608253712884 -0.2814522353080636 1.2437845240084902
Ni 4.746384017982405 3.83272063567632 2.251784962483598 1.582879863751319 -1.264488589325061 0.11351394746045611
Ni 8.704889010520436 7.077870472716158 7.903144050994131 -1.350793837581209 -1.3233241714060306 0.6290453281092586
Ni 8.831170684359046 4.678942310170258 3.784579431354808 -0.026414742548102898 -1.5308412499875248 -1.5201796565086205
Ni 8.807428403498783 0.6744677307765227 13.392363069716662 0.7067106413022216 0.30558872334495113 -1.2282090381677364
Ni 2.0949385556275133 4.816303101105417 1.2036304923905536 0.48864484067060365 -0.07481293134583245 0.40734347338695004
Ni 1.3328739651138286 1.3264272635613907 5.744635492315392 -1.0625914280335054 -0.6473988909157818 -0.47278216260673417
Ni 5.562260147311653 6.797356069022292 8.245272344296739 1.0146285270009816 1.5226294036006938 0.024256815664835646
Ni 4.921761928929654 4.581541859286568 6.856219058982873 1.334145944611883 -0.46593120112317177 -0.1325498810459846
Ni 7.39537973374737 4.578871082929129 1.8716192881068763 -0.08528683429396279 1.7039579967122784 1.2528720881320552
Ni 6.513572266683975 2.805024312481255 7.064216358828094 -1.8028462238397593 0.09798936946229575 0.29235705514602556
Ni 9.225045730065709 5.678282356108242 5.813567309143517 -1.847646410873586 -1.5203092401079494 0.24791887943730853
Ni 6.9116008301051375 1.8143136370498913 12.425719773095278 -1.1780866675900483 0.830282487219312 0.3724823998437069
Ni 9.645094384075271 6.855081676637549 11.38277147498451 -4.089543723616222 -2.431143360929084 -2.387799703836126
Ni 2.590229426327671 9.1822948891994 7.264341315120424 0.3148711770881416 0.5736712222143281 0.0938439798353545
Ni 2.3141816658522796 7.434142829224815 2.164264542207701 0.19960502282326914 -0.3186761526565286 -1.0734651375232158
Ni 0.5469878914065217 4.952098264520698 12.793727889301467 0.5746114746404104 0.2647765744245956 2.310634984428666
Ni 1.648255814632737 6.821964049805311 6.547425738450555 1.8960044904619993 2.076320840258986 0.3728755215170675
Ni 0.15171022763352113 2.7289624437361346 12.340558845587573 -0.1499829889207675 -1.126545562287963 -0.9615141636745053
Ni 7.241579853853494 4.402102526361282 5.305363695233826 0.22200987288103055 -1.685658427072142 1.16057822639264
P 0.36600319202338016 8.864555388827029 1.5261221327644365 2.0811424300173447 -1.3070439461887684 0.9864605492071978
P 1.1424199821075205 5.849976437596957 3.2264074337121706 3.076330588905528 0.3321065671298216 0.7301313342190071
P 8.860889978515784 2.5757888148502097 4.669201344124525 -1.179857643447542 -0.5496540333641243 0.5423564712614466
P 7.135163230370037 8.49105192002607 9.335424312131822 -0.34506261306985736 1.5910973665651051 -0.5541372659464586
P 3.571279259004024 7.988227618083206 8.749094964022865 1.4231971310442844 0.43047877385283284 0.5195330456090279
P 5.865780065974075 5.277389615283068 3.8479311675106147 0.2261326368001525 1.261395552222034 -1.0227570696453872
P 6.641474825484343 8.77854718054386 2.7592748344356974 0.745195170530665 0.40231825225821677 -0.17879271406360822
P 8.700210547108094 7.692720028493099 5.874830313996334 0.36970946508426006 1.1411820812542153 -0.436977494203299
Ni 2.1775760599561207 1.1825368849109767 11.649280880034386 0.6131718514121116 0.3490030857748441 1.4538565078013543
Ni 2.6105733745124358 5.50014157306709 11.872576202663542 0.4755841508319036 -1.4814513867004873 1.001416656296398
Ni 1.7380952055527825 1.3336199405791822 0.8061821321091107 0.16930174385403748 0.5829202516164219 -0.7399182384024418
Ni 5.430388262269712 7.456669446363762 12.431569694275431 -0.5465594535992007 -1.4913349643627862 0.8775733018854758
Ni 8.649281604843836 2.8198148877572766 1.0412878119823332 -0.02450878377464166 0.0696630117137768 0.2615657807967818
Ni 6.793948526773146 6.490179949622272 5.879615608462972 -1.1007059755170396 0.9798209324034931 0.883048466067434
Ni 7.405307654138125 8.844312745952374 11.6697694185254 0.7974019344412073 -0.7843505005738878 -2.722127446986983
Ni 7.950155240629237 4.811956182344345 11.558633809505558 -0.7504975565801849 0.1920233538212693 0.4115906786990783
Ni 2.3804353386640487 0.4686715190327769 2.9632549182563848 -0.41239260577508335 0.7760597213200053 0.3108875098500452
Ni 4.317199466915675 6.068630135108357 2.1431294916467154 -1.3880046423035515 1.3628865070796852 1.7345394690435612
Ni 7.810178930778517 1.4469805825919797 8.746790728696551 0.9739971266328645 -0.6976032796843147 1.179683065542891
Ni 5.19085646130206 7.762583854174233 4.156171913624151 0.975251567865256 0.03249103064916985 -1.060952606878502
Ni 3.444380543731107 5.8778722361717195 7.937314332094145 -1.9211568213579104 0.2396270717421615 -0.2406891944580887
Ni 6.466345573025544 1.5226924875385397 1.4438585371258703 0.8002358043455767 -2.069895396348616 1.0452493372106322
Ni 5.93657405859349 2.291176150883723 9.982827868833846 0.8035065046770484 -0.3508234268130345 2.498512948622994
Ni 3.075822615978232 6.783882462777696 4.586142962280279 -1.2192078631103906 -0.8281919232388704 -1.3572005124385011
Ni 3.5315031104254824 1.3607973924095311 9.7096590210803 -0.04042879743900779 0.1803682860808442 -0.042013368317308286
Ni 0.9773567936441712 2.787912924646356 2.9548705224087572 2.920798388031757 2.113833492492463 -0.4434260780421202
Ni 8.104286665174381 1.3059912196401626 6.4276101062690385 1.155445533151765 -0.16798585325609133 -0.7710576401197238
Ni 4.744293444764686 8.76002672794107 1.8051270873376672 -0.9576968468109442 -0.12058139583019878 -0.6681224966163783
Ni 8.754279953985755 3.350185024476343 7.303834729788023 -0.10533166875997989 -0.17406651223253247 -0.23027648376519697
Ni 1.225186420467177 3.611331694791956 5.621543093830507 1.0425311669485207 0.9053116483410086 -0.4148546941623307
Ni 3.6963176404003804 2.0350210694844257 5.749069902026104 0.2736954741807803 -0.27847361229571393 0.6731852558512664
Ni 1.2947647493652743 2.341432794271799 9.879348178386207 -2.2789373962150687 0.03329270061485879 -0.24978112945702788
P 3.1322404641357102 2.552958281780933 1.9175833492183938 -1.7919120934257593 -0.30268723342744003 2.4346616584949876
P 4.786998237762764 0.8412577142985607 12.073752892266285 -0.3136239349446018 0.5747914518617004 0.013559740962305679
P 4.656332806868493 3.0953100738138875 8.612012302211827 -0.5929706938738885 -0.48349980613455434 -1.8845761940203993
P 8.112869987812768 6.418032149676845 13.321719193147683 -0.9018920811364984 0.3809385010308601 -1.0883909055951126
P 0.7609087890210686 0.7773635342549841 8.35000453676028 0.03630809040241489 0.4142126897029576 -0.41326112442296564
P 7.398704389833698 5.0575386731976435 7.7321747629513835 -0.43957662238904294 0.2770754463966067 -0.5595093288916493
P 8.030821896197528 2.8011655011234384 10.69703398893696 -0.4915054500478503 -0.7116183630164841 -1.4287517423139264
P 5.914167165911945 5.344020880614337 11.640128405744655 -1.8242444870098777 0.6035024466431477 0.1909154654690712
Ni 3.2035317737320272 8.642963837322444 13.131069967180071 1.3492606887661343 1.5641799733489707 0.01953781292261151
Ni 5.3958615706695845 3.328533316833798 4.629384673421939 -2.035192188539476 0.04168272445076692 0.36835295105636556
Ni 7.392570813785237 9.030355343182086 4.839322430434443 -0.15399005319763157 -0.06580250031710602 -1.8753608460697186
Ni 1.396558166878269 7.783019898095461 8.921008233364363 0.1947834330649097 0.19019041437758857 -0.419655972205716
Ni 5.629361100898885 4.923364394744118 9.506326370286951 1.221222322437258 -3.2532096308861913 -0.501891935488497
Ni 8.866157854641491 1.1590893104073956 2.8458107512888002 -0.8160064369162721 -3.16525553417271 -0.4678446160958007
Ni 4.452967001610016 2.0070792230414307 0.3820563998463151 -0.07144427198391566 -0.057993288685332385 -1.0435166707902415
Ni 3.0064376881267076 4.256186041508673 3.9126311852482463 -0.4014900999299666 -0.0618370879114548 -1.2095130044201299
Ni 7.100498395165214 8.495500144097251 0.34940109361112326 -0.7597105905380206 -1.1352901412498126 1.995891076947008
Ni 0.8892386720386267 8.024200212745809 4.0760117846064094 -1.1416603064422146 0.021862604401046218 0.28776095113491085
Ni 1.244434429388027 7.373018888934057 13.362910853195666 0.4408452046888214 0.6354800279910088 0.7331132996654663
Ni 2.0604487023219704 2.5888203615597805 7.62899254173252 0.6131273713274215 -0.8607747422708981 0.4781310856234733
Ni 7.0099498670744005 1.9972894462553716 3.726119820719936 -0.9283857565516528 0.5298930486871132 0.8495657609289561
Ni 4.476267222935257 7.405823390262319 6.2587967794169 -0.47508355704640115 0.9355830456310403 1.4770789686644044
Ni 5.066683779828459 5.069151945565677 0.2642677948243576 0.5021739855052899 0.1398276456543205 -2.3122576076337533
Ni 2.4261977101127115 7.612992749436734 10.941464362127101 2.120622233279522 3.0761539541183476 0.5315107867961943
Ni 7.1692478624351414 6.587792220699828 10.09086353536433 0.7417720037817289 -0.39466279259548803 1.01806017839035
Ni 7.870225350952653 6.980543698421638 3.7342887125442394 0.23355078364109455 -0.745429398028658 0.4094821169965077
Ni 5.276993603616275 0.9117183203519776 8.17356292005688 -0.058440146414763874 -0.741372197240149 -1.392800263919982
Ni 4.147485443760924 3.5558163848518194 11.602710828976939 0.6437504955299171 -0.36694475785492936 0.6551988465761748
Ni 6.8818078593592285 8.568679416291067 7.151223805851889 -0.24081646406457233 0.22284059631244202 0.34166618579379865
Ni 1.1811646584376723 4.761432461320524 7.847192207263157 2.329972508415013 1.566234027664522 -0.3908848136102946
Ni 6.446950210926352 6.743820817416117 1.9251582235425084 0.3965628378316783 -0.05926907007396245 -0.9756835131963518
Ni 4.030883031824615 6.233370988494085 10.130612976179297 0.4579181010107081 0.7740383200146024 1.252492079084817
P 0.6955318676204313 8.8745661953806 11.661047952282315 -0.6090246620129576 1.4370528059804542 0.3570544953244109
P 2.999871262116868 4.804358284086113 5.929945928440219 -0.14197168858051679 1.0757341360630506 1.000807047736857
P 2.593922465359853 8.946981072961771 5.066229747847694 1.5711492055779521 -0.5467905957734003 -0.43259607730615174
P 3.398047178716371 6.590343272599864 0.1077372763443422 0.4962079977298422 0.11296733092836674 1.2776924896098447
P 5.666779598623964 0.7093333346868361 5.7610930004214005 -0.8462505805127941 0.7282873390317328 0.5231539301910667
P 1.6876451611181327 5.639178506405884 9.92013645910848 -0.9802904158407438 0.6361739687342399 -1.282280366090843
P 6.417507203979003 3.3756310764611803 0.5677361398743609 -0.6262729075704441 -0.21343241562466467 -1.3084017457682435
P 2.119058429007277 3.350756018042416 12.605087271346122 1.46218225405823 -0.010839770927981331 0.30969914596889886
