# total energy = -340871.95758908556 ev
CRYSTAL
PRIMVEC
9.26258892381120 0.00000000000000 0.00000000000000
0.00000000000000 9.26258892381120 0.00000000000000
0.00000000000000 0.00000000000000 13.55673516683192
PRIMCOORD
 96 1
Ni 7.732196037089514 3.72857173229024 0.20438087297276702 -0.25910832039522474 -0.5572668127143757 1.0184810679778524
Ni 5.947156248873373 6.0605488601768105 9.176567074192345 -0.1129274788293668 0.2444070096293081 0.1761640181915095
Ni 6.6089774766337 1.8472658593431215 6.780062121877953 0.23457048315486057 0.3269736167786304 -1.728550855560294
Ni 2.9639913450951525 0.5972452378710792 2.8977656881520617 -0.029809370051948662 0.2504925537017557 -0.34411850398903315
Ni 0.390574652962827 3.5246651038607455 1.7489953504097209 0.6676532702894437 -0.4797375108786448 -0.1340886862880142
Ni 6.510497633194871 3.5584550275688764 11.73953556623071 1.1148943512022798 -0.63967324013675 -0.5343269160887507
Ni 3.66972650605182 5.346745984431277 8.340794429974041 -0.1367523491631064 -0.7939599986391939 0.6980743057834623
Ni 1.386137141720973 1.5581897274881154 8.86138711476216 -0.5306091009175312 -1.1361077520551015 -0.5997314096364897
Ni 6.613293842984574 4.033301639108718 7.8642759211673905 -1.6155554996074692 1.8403115677750692 -2.0113431498360197
Ni 7.77813847721899 6.989438308955927 0.19205699865980966 -0.9855496073571545 -1.2639502003230878 0.6781441425184386
Ni 0.376098153027674 0.610692664197687 6.636265989308186 3.1090784727605096 1.629614805914013 1.2090095824211502
Ni 9.041889033974082 9.383280267008782 10.390979525787424 0.5398002804984962 0.5935759315580551 0.12408863765250887
Ni 2.6460159363845075 5.415956047465037 12.201468276555124 -0.4616724258468178 1.2635879318876626 0.4903754502084652
Ni 2.8385203180802554 1.8737198127725136 6.751430533836778 0.20134000323650486 -0.926724823909462 -0.3891963701642781
Ni 3.368784998026278 0.5270755706442926 9.895386567997178 1.058103310355165 -0.23479545468147306 0.4902137278196203
Ni 0.676559858956703 9.362809945902706 12.93017002628216 0.8474394586145728 -1.036487531857602 -0.5746806373154489
Ni 8.212377899741165 6.795035096569344 7.3654419835784966 -1.9271240946849393 0.15463102921574012 0.3615711522478418
Ni 5.943340062314231 7.85707425842532 11.801720881967253 0.31409830347785905 -1.4743322591572028 -0.2003619555939517
Ni 1.2023859063805387 5.198739079022224 7.30363643398012 0.7159406445409219 0.6180870293255419 1.0400878476143507
Ni 2.4708233330359355 8.875097598608862 7.40922994556803 0.8179183092270043 -0.09520177941482959 1.1744938080324676
Ni 4.259401430149145 6.6341995057612335 0.3226761724940539 -0.3967749538424844 0.4677222315853235 -0.5012877262455947
Ni 3.2380898709644 4.184874641181047 5.961668872904595 0.4127147650011925 0.8825848961674542 0.11345326942584977
Ni 5.04776814521772 6.5144805463512565 4.547145601743946 0.10781741129631107 -0.4234159534687804 0.5064137346182503
Ni 0.030804591358588696 4.38922587386986 12.076949443662265 -0.27346356067563227 2.4384427228039747 1.2395568590803878
P 9.011989397534979 7.133304837200087 2.3183240720900278 -0.4352101178902311 0.05926444208827213 0.5388674842715816
P 2.0871669075998636 6.843469173068746 8.834707154167614 1.3745210059948196 1.0278434830293588 -1.575176324459474
P 4.816703606614913 1.554466166816331 12.377854827591738 0.372292652430404 -1.4750537107042594 -1.8027971157693792
P 4.695576733717098 2.9351198560057217 7.146677236557934 -0.043667616091279636 0.7427225406204563 0.3079502815985922
P 1.5849215585795808 1.3328216809578144 10.971478929483084 -0.08014822751581681 -0.3030736702325813 1.4684806854724324
P 7.4619044351906725 5.696612486159218 10.989970761635195 -0.1758115199480972 -0.8590073659578303 0.5481437673671851
P 1.7133566139899277 5.8349492489281145 5.189734916512171 -0.26382835157871337 -1.4158332344800455 0.41743865283942294
P 1.8871690916168686 4.240431648418264 0.2790623471727529 0.7134003946175714 -0.8991641406823739 0.4092643445587468
Ni 6.32785790850273 4.189191007531921 4.7529501346054035 -1.4173458144698299 -0.2101583728590832 -0.0005286188099603799
Ni 1.0062413273116284 2.9935482657510315 6.449372883868575 -1.1808894271461663 0.8332891352561198 -1.693289718365155
Ni 6.634106879873876 0.6146440845523713 10.603345676509306 -0.25593583620451404 0.19252986114404264 0.998089648805694
Ni 5.780374076096891 6.370187939025252 2.345017000308803 0.194474129354607 -0.044910487359445236 -0.4507290394614366
Ni 4.579683223455 0.8613892596259823 7.846909493546674 0.6049456068475775 -0.07607302900517866 1.0289364589832215
Ni 7.204932435893885 8.417572028004933 3.063943940142971 -0.5979532346901444 -0.5262539092726292 1.2288726398936642
Ni 8.03844500846066 9.053847036031975 5.5698789682996335 -3.7330013920415386 -1.7627205594634674 -1.6068505156343038
Ni 0.7246993851343069 8.491191083276926 4.113886161110017 0.03461604741197265 0.24073084632930153 -0.1935145936548151
Ni 2.1102678039069027 3.3072258332882734 4.015084905842056 -0.9084311678065967 -0.8245769521941025 0.3704504570153426
Ni 7.761919684342637 1.526696925786458 12.677052190158333 0.35602708250116105 0.020252322491132863 -0.17232716094392259
Ni 3.6880756943374036 8.464607453605232 5.0098100565784875 1.1868813830635432 4.129735722454075 0.40964435360598483
Ni 1.772025851042368 8.203411713844929 1.758864638707696 -0.4555534574332735 -0.8865778193769313 -1.2908300554330672
Ni 5.113699251839013 5.381943821627247 11.949584217250901 0.888936806527411 0.3601794141066378 0.3321045102472926
Ni 3.395405678052914 3.024087020812903 2.020401241733477 -1.0985051112109792 0.6813703627652201 0.02327876802228249
Ni 7.101756459966015 0.22983076178320042 8.342773845186876 -0.3472251679388149 -0.05025761060397151 -0.4160487144704319
Ni 9.132764292060834 1.5782617572785538 3.0558910454960824 -0.19305847995400297 -0.5485448594603456 0.3509938909526278
Ni 3.9087568709673985 8.771977198213408 12.313026895288877 -0.9194162060631909 0.16444904374742647 0.34385702279753033
Ni 8.372287231675697 4.741787788919912 6.382456237805794 -0.5028995508174048 -0.9786045434978886 -0.6015185834438995
Ni 4.36961697351621 1.6987217237873928 4.659762008111326 -0.2795483334171315 0.5327888821776696 0.266862767529663
Ni 2.776303509542011 6.995468254222921 3.7815018693619904 -1.1469156413038828 -0.5913033334737945 -1.391844584874932
Ni 3.0344611201969784 5.446253975219777 1.9691291080454314 0.5298683660967649 -0.6982144309057523 -0.2146590889429142
Ni 8.54565510504332 3.7859719946858785 4.14026786634727 1.3577479003015391 -0.7774010658392483 -0.20382291755935866
Ni 7.9058417881192105 5.059466794791012 2.2974323031964725 -0.2634398578910431 1.106037157921966 -1.104751092120691
Ni 5.133391515491285 1.4984460301423244 2.0800504606741628 0.4708700331856858 -1.8212517229301408 -0.08499090032009879
P 1.2314796975996283 1.3100171874903201 1.3454299167449602 -0.813035012992774 -1.2168419339813754 1.1728282474045866
P 7.831194585497547 8.611373172123692 12.390489924886218 0.9917266827021437 0.7902285566212196 -0.8410849771514547
P 8.446026700601255 1.9124930092204953 5.302378184386884 0.017846284152801522 1.0886780978182282 0.27056952695728886
P 2.0644087270760485 7.4259655908958395 12.916952312156202 1.1342619570956143 1.323580253280895 0.48818307054283666
P 6.052555246097832 5.100342598882016 0.6101044898129647 -0.11336430925646926 0.3651334156778034 -0.8865089138122086
P 2.0796827359013523 1.0153186642726946 4.868047062236224 0.023779361807784855 -0.2527769788605582 0.17709964263190145
P 4.183318526273435 7.8994876522464645 2.3520121073220652 -0.34034798120300735 0.2351834341485111 -0.6941623723235658
P 1.0932170355406172 3.7452536546033826 9.08505918129494 0.3279678623710997 0.11653987877097348 -0.3284062354600989
Ni 8.409689564990783 -0.18099098389717144 1.3186230586847347 1.320953871401641 0.5697101806840511 -1.4039264557401305
Ni 5.395782129198505 8.23654399375282 6.885939994940052 0.936930046577238 -1.0971020602158654 -0.7932971682442144
Ni 0.2921744677871253 7.004841994023532 11.809692265833265 -2.403634356875538 0.4489079270922979 0.5465432556492845
Ni 8.362542988325655 5.00635511098004 9.100446193702819 0.34471037193676113 0.26957733824734864 0.26077979456037664
Ni 8.752896265417696 2.709168266385066 8.125202119595484 -1.2292331085568764 -0.17698445721027584 -0.9775619611659873
Ni 1.9602046037985061 8.15044823145373 10.605718751743414 -0.8919051451271155 0.1853495413455195 0.3611093821200749
Ni 3.9560053361086207 6.972293257205996 10.46424011887534 0.2489946289999905 -0.2070995314281014 -0.6556372196651741
Ni 5.849686027606743 3.702812473016032 2.307450719173094 0.2713866235419455 0.6050741620056418 0.3577497216192226
Ni 0.7221781084804272 6.0620216117857995 0.5664184162995246 0.49446736088965165 -0.20694346546621134 0.11841164187238962
Ni 5.7756408932529055 8.418377873224948 0.819027736301759 0.13421004235722692 1.1037658453892862 0.17297867848499243
Ni 3.473109534957385 6.868153972049604 6.49905833610618 -0.790996802245812 -1.8295293895579006 0.7928274276966474
Ni 4.8299027955634015 3.1175558037456748 13.710332866507455 1.0915302225550427 1.4011704902615483 0.3066403045379171
Ni 7.680510791943853 6.16418796554147 4.375923870186403 0.3809091904548214 0.9373959304700631 0.3422421129019267
Ni 6.670156875233538 1.992003070928444 3.9759736249052184 0.8315369284517032 -0.8830080997478019 -0.2832694910224606
Ni 3.325686172638686 2.7716907403515916 9.06956379659885 -0.9715923738461137 2.039360460984552 -1.6668286959601486
Ni 3.102578197759916 3.104532603983166 11.998673158773922 -0.4759456479363804 -1.319282140126173 -0.1667751207774418
Ni 3.006793767643199 1.4901189628688565 0.2279615713763197 1.0464014485372042 -1.248804860041217 0.2514891132870701
Ni 7.693172750745666 7.5788353553911785 9.861928244965789 -0.39269332757394304 -0.5843760102263419 -0.006385334701053519
Ni 1.1891867174320498 5.594436869814811 10.295798090197405 0.1513173914614749 -0.9731260368818209 -1.0994394500997906
Ni 5.041979027257857 2.27965276411814 10.259275702812218 0.63715021660458 0.5360428703385929 1.1500138206132322
Ni 8.88066441443907 2.847940370824545 10.632045807707128 -0.27421149458525035 -1.8714198591440994 -1.228900407807806
Ni 0.9681628250188307 7.440072513540436 6.461031704310303 -0.04298807352575177 0.27692735085451664 -0.5490601085338673
Ni 0.9752950183453823 5.377701555986259 3.053776396487704 -0.7353414176650368 0.9626421066313614 1.5548378700124381
Ni 0.8737427742228943 2.413599059826277 13.084892308524656 -0.30448314898559825 0.8133327467388509 -1.252097928970192
P 4.221026525016802 3.984339595051376 3.842290386717178 0.19890362588087035 0.1625677675643136 -0.21831185520415305
P 5.8932201946649165 -0.07507050292688872 4.584996244353844 -0.6609907706676036 0.20035449939478397 1.372825877680584
P 6.241039664282249 5.795925962584268 6.1555033623428015 1.171101494521467 1.2634719751350885 1.7215919077439577
P 8.976495157499464 8.611613999430821 8.212656703662113 1.2567770796134163 -0.3208937291331377 0.6945408387089071
P 5.427423132319934 8.307977078083168 9.265512935045436 -0.3632904489317937 -0.18579408508210582 0.11531654788683365
P 7.078368423408166 1.4915917144778459 1.1717304427005961 -0.4116739824415039 0.902629473523155 0.9166777240861052
P 3.69857946996378 4.483287462481721 10.50873389012654 0.9665928637489933 0.8852310755410495 -1.307982655952954
P 6.913244254015388 2.471434663892497 9.090644522302615 0.038452904659559584 -2.0998641747965645 2.672380971691475
