# total energy = -340894.08985658595 ev
CRYSTAL
PRIMVEC
9.04294154032544 0.00000000000000 0.00000000000000

0.00000000000000 9.04294154032544 0.00000000000000

0.00000000000000 0.00000000000000 13.23525901881172

PRIMCOORD
 96 1
Ni 6.563719662147013 1.972410242256007 11.441272545728546 -1.1605586860086141 0.6883953879328015 1.252575897047875
Ni 4.610778873079113 0.1752892835780716 6.038706369390631 -0.01516770887937388 0.7243306683768299 -0.8452743326424539
Ni 2.977334252422274 1.5372819800612365 4.743834906669067 -0.6873736315365065 0.8149985644770481 0.8060773507280182
Ni 3.3960314897945687 4.07273289294015 4.660505104447474 -0.2737715788343543 0.716183099569031 -0.11861707301497636
Ni 4.898217813644451 4.547487325070027 2.388077189910078 1.2159104233060414 0.9542320281907954 2.029862034575814
Ni 6.947493059197677 6.068889899744215 2.7433255320900662 1.0116493897679997 -0.6656449816101633 -1.0066349672725436
Ni 5.2418043783830175 4.7024471717172185 11.481189898382027 -0.08571209475683947 -1.07996000121894 -0.35366089626182967
Ni 5.587461776739826 7.861318476044394 12.12610445763466 1.086363590752439 0.06293829139543354 1.3295588394618327
Ni 1.9255949337772187 6.394019820749883 0.24405271552776306 -0.5134680703618705 0.4573244332907672 -0.051647291862646535
Ni 2.75014843150039 1.6082690713416088 0.419627756059269 1.2231388227336806 -0.6421612966659264 -0.30606514876073737
Ni 0.5343022023313108 0.00184837725575899 4.732412767179101 -0.2248565983012063 0.09972666386837663 -0.451943371484512
Ni 8.6093234734251 2.5138292395984836 1.459875304564312 0.505339013496833 -1.086475947960587 0.34545522052258565
Ni 6.991052908713288 0.38294054213258494 4.6422012864270155 -0.9021466203494657 0.8105523557802363 0.18747070145358036
Ni 1.0034590536328378 7.333292075158762 2.2462883876514037 0.0017581203416872947 -0.295229234487498 0.35806211065331883
Ni 7.69198035230984 3.9567300385523008 3.9616304085860374 -1.6415059009246438 0.49486948142407683 -0.9918223277397434
Ni 7.681174037140408 3.905528903414789 12.797158543773287 0.22787790162603339 0.24860073599568153 -1.0950387499289334
Ni 7.944278421956003 8.739532789010587 7.067098621504774 -0.8275959415260844 -0.27054792969073405 -0.6522641894278831
Ni 7.013687391448928 0.73015242214431 0.6722052525997718 -0.16594362601508197 -0.8461899024781877 -1.7875142214683795
Ni 1.9014593227418923 6.485480131732009 9.250413772690157 0.6187501168308377 0.11416649344279046 0.043924469297092095
Ni -0.004958244859748797 4.829726574235848 1.6954629224936602 -0.11377877108606857 0.7850454697583834 -0.8284552042025861
Ni 6.223352384605366 1.9708277274822406 6.8456595899470525 0.4185866504009371 -0.05415026079015836 1.0129963907141972
Ni 3.585426857918914 4.441305105221093 0.6229971817830491 -1.8234639000901114 -0.028231484041867507 -1.9931453958810705
Ni 5.7932519979203905 5.765155578479865 4.829744660118976 0.14658039099712175 -1.295690211738846 0.6554346167360647
Ni 5.1736658136954246 2.7518032898066713 9.36270178668336 -0.5477313624201148 0.34206393545284963 -0.0052933871884554
P 0.1166304345324168 5.582750404184784 12.504500921631145 0.6746800952292381 -0.25185420993597274 0.07088917081139404
P 4.031316220575295 6.208124071010952 12.413282961482944 -0.3671316770547548 -0.07032687055002082 1.2449548901675076
P 2.494124669929703 8.596618140527148 1.3362447289669097 0.2921038014846389 -0.23276299763247654 -0.6358605512588791
P 6.203249925507752 7.79006009651709 5.948613351173041 0.7628537641526926 -1.4538953314590897 -0.10999436434297184
P 4.813937598264443 1.021689623826625 12.734979277576619 0.49012913852561396 1.1022026146672244 -0.37399009473748496
P 3.857944944903028 6.2725821584818435 8.122994980386975 0.8855002700420364 -0.6723758725760935 1.71787794922748
P 4.851637621646337 0.8964322230417912 3.7194911794932968 0.1717535478286397 -0.04248722262993328 0.4532605476340387
P 0.11198688403910838 5.870216473574816 3.5874036449448874 0.5711970496422227 -1.2631570149978308 0.26108421317467295
Ni 1.6118862479673601 1.1712598773014475 2.6523987546602394 -1.001482990757959 0.5173627774305865 -0.09766669601555437
Ni 1.9666046737716758 6.465974506777645 4.776618282722409 -0.8429652248933031 -0.024867452665641047 -0.395502514887964
Ni 6.173941751897601 5.564447490458482 9.334033853335967 -0.4088375414339733 0.9150820974642112 -0.18114013124986225
Ni 8.549097482606339 2.343152760512402 10.16208516085624 0.8852475306012819 -0.14887098680351135 -0.08312273676310845
Ni 2.6223354954294624 5.048059355366205 6.846307968857219 -1.0358344716546353 0.4616438866017275 0.7133368883694876
Ni 0.6037619407814593 8.97421520848934 8.855857572118127 0.28549735191171477 -0.11150437322959506 0.8316557134177548
Ni 1.6170135958343628 1.198162628455474 11.525435202868218 -0.5117274335216799 -0.29019527160801634 -1.0771608412072482
Ni 3.993760884258431 6.818640184846846 1.4849432428749259 0.25744327398797595 0.2963535778999283 0.2930772211415017
Ni 5.636338875895293 7.7387504460808065 8.17590884865678 -0.7551329984696673 0.44267711569123763 -1.1835690308608584
Ni 5.381074721416012 2.8036464737952542 4.787868606322652 0.06427835036309575 -0.055151705471479205 -0.5619202523259871
Ni 0.943847982840454 7.536432714460963 6.685328236010619 -0.8552743812779592 -1.1762470432781484 1.2707314849109794
Ni 5.178747946854605 4.529763159603845 7.452006907721768 -0.4303628171002588 -0.0641330830344831 -0.7883444522246295
Ni 8.296862713551125 7.033961666436265 9.025705717756914 -0.18081951468564988 0.41777186780912573 0.4114844921385171
Ni 4.486736843640531 0.4431394041266534 10.642286156690343 0.11927270432110428 0.5100207352432184 -1.0855971449000592
Ni 7.963422329247793 7.081373809058302 4.7977019009797575 0.19692336222604795 0.6593694330140967 1.14079590155939
Ni 7.250115098649607 5.952633842992563 7.144062192865044 0.08279517822036064 0.8161411627219235 -1.3138280589901372
Ni 2.3164399111312273 5.230148026706533 2.523592903605543 -0.26174061581174923 -0.6528349743296885 0.4634380023876728
Ni 2.387653075950709 5.037596671976219 11.5848491375345 -0.7709064592538402 0.042636089502971736 -1.0478651775669243
Ni 0.837516554455708 3.419217591965635 3.785482949853506 2.055849459778511 -0.0762262667535913 0.0514814557087436
Ni 3.8149095859981506 2.593958744800443 2.7104490137386117 -0.6924489891768849 -0.7485646012235301 -0.7973679958794784
Ni 1.0327310554767315 3.3109374096737656 8.213153107783828 -0.27967457458235057 0.697895871224069 -0.5040429203932287
Ni 3.588664230998962 2.764029346801711 7.223990040470117 0.011208981341941985 -0.5462707187141882 -0.4658486687116945
Ni 4.015961305798981 6.82366806035664 6.070986957892994 0.5116418157864091 1.0049732632994046 -0.4331434651691895
Ni 0.5752920478543262 7.382928781405636 11.243564001424067 0.4042550642696135 0.1744858591581382 0.38668337393443725
P 9.550702733218477 5.598638852513398 7.929045586890807 -1.182292992361912 -0.4438048015377776 -0.6846906853877047
P 8.457275453961639 1.5310423503818151 7.994043537973092 -0.42628093372140136 1.5000630882644035 -0.3595299534480969
P 1.5319737733629464 3.2382140736130327 10.310742981527216 2.0900767563924973 -0.28996207255128775 1.3517027225487237
P 3.848495070968253 6.147210816633298 3.809478395294585 0.335780416436983 -0.44264934777709575 -0.6676108470872826
P 6.923981411130292 3.838086645227653 10.257444788240925 0.12181655378888052 -0.04616004349583018 0.7567746478381483
P 6.528009085909281 7.840013305718718 10.068591092316286 -1.0335976119043166 -1.348706616034877 0.645947503181236
P 2.3979349005094073 8.756714377982908 5.801569695571305 0.7737380151653643 -0.6313824608828675 -0.7144931134611179
P 6.849747903828308 3.9356418988241697 1.6092221973824943 0.8182749212354746 1.443952875534397 1.0525764669996647
Ni 5.455706118146829 3.1779699969111426 0.2419972549101798 -0.7543331282761911 -2.0060261084984807 -0.7072166344043627
Ni 1.3976047046578444 1.2870909157995734 6.978382843287438 0.097647926962477 0.2461952118779825 -0.8769827194893283
Ni 6.748466958307268 0.8421962767152739 9.294248527629327 -0.3798581234824877 -0.24135202485306825 -1.538427804085531
Ni 2.7302449171171927 1.4636543498440657 9.188882885403656 -0.07100358490207126 0.3700228825596208 0.4260392500242405
Ni 6.323032729469512 1.997730478636267 2.4495420637231593 0.3100894394287821 0.4372204634520406 1.3216989770977818
Ni 4.219997196316055 6.933096696227186 10.340204885143962 -0.3646222803693398 0.040684879313871866 -1.2279107902010273
Ni 8.190789009000964 7.237572538699814 0.47919994220292605 0.17458870328458964 -0.2799640807983114 -0.6013229224933256
Ni 7.571302297133207 3.7881063072013323 8.118984435803172 0.3780632363655941 -1.0237636565330304 -0.17294551125421181
Ni 3.2416865631737544 8.309079727604601 12.375430112388612 -1.2408879191869853 0.3888101904694529 0.5481211416593658
Ni 9.04511187035407 4.951281794744225 10.091818792018548 0.20173595312334291 -0.8572497598367752 0.26701343417491435
Ni 8.332057842119687 2.3075054848656213 5.677489685778153 0.7861839542382009 0.2026677209089929 0.5016715919475747
Ni 3.552628108864913 2.805916252127913 11.539385748819585 0.27357180411872245 -0.20976859361983227 -0.1853711386120743
Ni 1.0791394315851226 3.361822041856524 12.820796793022572 0.1277326621629994 0.39070175106521104 -0.4810528872559587
Ni 3.08159936865956 8.414827886258445 7.903792268278123 0.06360137890072917 -0.16627889786731365 0.46121014149841866
Ni 5.388761221745734 7.703880863408561 3.550252528115951 0.044510166597233024 1.31449731714302 0.41813927845087345
Ni 2.949120274741413 8.44654148232472 3.5149009566583254 0.8265854979836991 -0.7211412149052548 0.5305458517797638
Ni 3.295220777234876 4.3806812249734985 9.3642101493363 0.5539773433298265 -0.10336554617254458 -0.20923997480987191
Ni 7.348827848766365 6.195735241067754 11.3754932844951 -0.007517648533283827 -0.054926991055182825 0.6611702336682613
Ni 0.600483874464372 9.203272918315053 0.408116091447815 -0.05994244199190322 -0.692243558034298 0.26253123003384465
Ni 4.690546660618496 0.1260884471146004 1.5898323220801536 -0.49401947471895563 0.8337943570273123 -0.5240044511168201
Ni 5.960085226841611 5.726569346824663 0.3799608928871222 0.4667768369529187 0.5511185337247928 -0.039337621257358055
Ni 7.713864270895636 8.981042629370448 11.303321567869792 1.9536373104841191 -0.10376920936886645 1.3850679282727307
Ni 0.2011557136288202 4.957186835585764 5.858349421359883 -0.4191345524846071 -0.18409638566470876 -0.28544978650323094
Ni 8.145773245893489 8.496666507416071 2.6766058049339243 -0.8056885999300317 1.0739528757929115 -0.15138912523967477
P 8.56165812843926 1.632657884740738 3.5005805543969757 -0.5583381914016836 -0.8222573029219903 0.5501404860822395
P 1.8910508970012925 3.1330084914530523 1.6391208750767992 -0.18704492677007142 1.5659656044944839 0.7337897569072008
P 4.736285859051123 0.9558027515885625 8.078616744659787 -0.31954004331872066 0.6189642897241727 1.2710793551687014
P 8.679062638769588 1.6704483375382762 12.486513606565438 -1.2088013230650858 0.41315108120766264 -0.1678156462268142
P 6.3539867184443795 7.774732310565469 1.4851946366504156 -0.00979950258892506 -0.6254838360102454 -0.3576936715703065
P 1.7368868292117656 3.3471905624053595 5.957480859671071 0.09594328556654443 -2.1489622178747956 -1.001878683534481
P 6.773280789959923 4.087635660638245 5.928734252732067 0.3648457092340555 -0.25587232995643033 0.7397662862056098
P 2.260608789912754 8.43367337647861 10.143582398121366 0.8623549422738245 1.0813856779218731 1.360551431188605
