# total energy = -381164.153817398 ev
CRYSTAL
PRIMVEC
9.32588726502609 0.00000000000000 0.00000000000000
0.00000000000000 9.32588726502609 0.00000000000000
0.00000000000000 0.00000000000000 13.64937868750272
PRIMCOORD
 96 1
Ni 6.495592433146438 7.527483213984079 0.08297801507104507 0.5492742814272025 0.5842672525626196 -0.17862790635096978
Ni 8.991181229786152 6.839820260233219 4.746271398802354 -0.20329866962477247 -2.0942956795698513 -1.240585300344902
Ni 7.8331298452035565 4.040757764120964 9.006269582890747 0.7032211400917244 -0.04219180287670153 -1.0035869244748394
Ni 8.199059012097738 5.673869849085577 13.074302769673809 -0.2637131661570878 -0.4016615925108244 -0.23672686737623103
Ni 8.932791849238608 7.900835787189687 12.645221491574741 0.3584511185616214 -0.45591932541312447 -0.9483855967123472
Ni 3.9395812125221323 5.3356012640000525 0.32183357385106587 -0.6530329492731075 0.3320546308459636 -1.1335482188580412
Ni 8.321125551306615 0.5459253204054336 8.240512581261422 0.8179689599592814 -0.2884137542275614 0.4965311853972158
Ni 1.292996974188558 8.357552467201634 5.030669928338472 2.174026359932275 -0.18812890386286954 -0.7583309365816747
Ni 6.915835567826737 5.736437227155127 1.5680947962945426 1.23305093964107 -0.6110560906206897 -1.2259102148312306
Ni 6.900914148105276 6.522824024138105 5.7927012379810945 -0.35887895012765936 3.4017679715452895 1.4731276973261405
Ni 1.5653501876545264 3.989567968589027 12.362078226472692 -1.6585471726776468 -0.2996705580883033 0.3301689837874765
Ni 5.631604927724537 7.250094021362117 11.38696717803014 -0.5931306164905205 -1.2642399636493646 0.36797885554639853
Ni 4.770172715429937 3.461088585604179 7.227100113571346 -0.031494471063855445 1.2926149152476318 1.494473509991768
Ni 0.29025145642186095 5.943593162325637 11.079323874334182 0.3345665986345399 1.8545742483416703 0.3012232472874038
Ni 2.7467256164392295 2.0692278798736154 11.410635347474576 -0.3434145359434731 -0.7281245882016234 -1.142437036707239
Ni 1.9112939780092757 1.1928369443082505 5.774519488050494 -1.1092062996785672 0.9140428575664195 0.04566073526190846
Ni 1.817829935228974 8.938387381634158 12.082525427991119 0.685548919622942 0.0652463707033199 1.1309097527939298
Ni 4.968142651584422 7.669199397788655 2.0696419492708857 -0.026731502457573317 1.039706553015532 -0.27836588307325605
Ni 1.1109743053613848 6.85994552508254 6.931059146297558 0.07940415026094066 0.06273388869411131 0.6583139951663889
Ni 2.0251444104840237 5.693696685540467 5.200468224058839 0.03762912320668358 1.8612524316927945 -1.3841083925729387
Ni 4.361372444498533 8.563328171047907 13.306424105215788 0.32513476379767875 -1.3914015838002423 -1.1746097647850415
Ni 0.6815750145045038 1.4750103171284055 13.224514836832293 0.3134485857090021 0.5724805443403366 0.015106773734451401
Ni 7.767774026823558 8.12416281098333 10.203306906850589 0.3683141273986302 -0.7165993611708432 -0.915044045137424
Ni 0.5757215304117262 2.945935895608061 3.0492984351960875 -0.06550450946071298 1.390293181227412 0.809492289946838
P 2.886753814637816 7.706185866923227 1.0807920036197993 0.3992951491611768 1.0945492118870248 -2.5310417744886347
Ni 0.18376101422472357 5.799284381844456 1.65244837974616 -0.25371800261758887 -1.8824936004597579 1.186761569656227
P 3.3852504698698533 3.22013563476456 9.067882922686858 -1.2747606606750304 1.5611249885727307 -0.06699780617678784
Ni 6.254014647855983 5.409574202269197 7.80677582020926 -0.165159953771522 0.3045759658097206 0.22094132240720016
P 5.8855861431584575 5.579622431769898 12.999068038849469 0.2077821593174228 -0.0498824866527399 -0.5915864119318521
P 7.762579507583024 8.620188106073998 4.146531045582739 -0.9252608377694258 0.09991821105389243 0.4172563616252879
P 1.4054205459024414 9.313763672389488 7.467356420627719 -0.5808728821690898 0.042788298810119856 0.04489197541668398
Ni 5.431135653766708 4.219908059651757 9.688465701491156 -1.0002007816114258 -1.397333118793329 -0.07884827775747065
Ni 9.004685114634073 4.648115502108386 6.8113539217596015 -0.25354496737483434 0.42419242662348877 0.8406208930308425
Ni 2.573693102994237 6.636870300246696 2.732851493864469 -1.0915543909247587 -3.2574576075292674 1.5926549408602118
Ni 2.8748073529733214 8.791821736420106 3.1850684332416614 0.467625300996143 1.0021717892948676 0.066096377408441
Ni 7.754885650539145 1.881395183242398 4.205223517468374 -0.35719667732923 -0.2348905854984406 -0.5121205551950406
Ni 3.6774771492273426 8.765131046893343 5.757621912804671 -0.903530902291502 2.4091378031922703 -1.16111018763671
Ni 6.003558617831258 8.781535282699624 5.8310147808821435 1.7582995475776366 0.4130227831599145 -0.40018295108276886
Ni 3.3934292730546787 8.528561263096902 8.064803538153893 0.7453967450185098 0.16425492545874937 -0.012169288372682267
Ni 4.385880876391033 3.1601888310335906 1.9555462459594664 -0.6962192548525946 -1.2108160395022696 -0.48714074532125134
Ni 6.789469794560613 6.659672094758554 3.513637162919502 -0.6529607012742755 0.7123642400435731 0.8111308539915256
Ni 2.224830309906477 4.71423604324911 10.413711981165447 2.0854577695632472 -1.0755924682788638 -2.0464183962725984
Ni 6.379233336981018 3.807601255085809 3.2300434574596104 0.15060211056200515 -0.01524381353294794 0.3394846047614476
Ni 4.6601365708714875 7.051238125911671 6.810508063779141 0.9295507233940314 -1.6873532982760615 0.1300836788936792
Ni 7.9491998388618725 9.480230761157038 0.2131664695520604 -0.779773936946799 0.558359274447606 -0.07009752814803412
Ni 8.952282953749767 8.341521266888389 6.504311205207434 -2.985488886231607 1.9023211767086465 0.5299480702947647
Ni 5.873042824705104 2.8259303774982105 11.819583900014463 -0.778570403557001 0.5179513029442048 -0.9475240200430004
Ni 6.277292062621462 3.6566804204905563 0.6085467886214755 0.05418882733757765 0.43882508893499905 -1.0952624359039653
Ni 8.710434717726862 2.1363462909582127 6.390229490727004 -0.033203740445478296 -0.24097175869551402 -0.2565009646793647
Ni 2.1963677017877896 7.081407371410999 9.202274554585662 -2.7722189643267354 -0.7369828099232018 1.7506939673162365
Ni 7.908156608740529 2.3270979903224407 12.725260919549392 -0.5644808139643118 -0.6847709038063368 -1.8170137735893934
Ni 8.422675138398484 6.4605270968010045 8.149034019892808 -1.6228157807143084 1.7986134167053347 0.2740870531922441
Ni 7.163969451907309 1.9509196732570808 9.74097511007971 -0.6465475986590801 -0.2406164322386243 0.9717304420858749
Ni 4.724074854377949 5.444378413769504 2.3501366623723765 0.22241302185672018 -0.6157923197540943 1.513712046506406
Ni 0.7412532326804873 5.167502144950468 8.780931897789637 0.15242168026924718 -1.5741113735300696 0.4782426715006731
Ni 1.5270114648576973 6.052678066376843 13.532580603224112 0.4883499351380042 1.026883433108935 -0.11845586484676372
P 4.141729146198626 3.0215315382719132 4.783301699607358 1.604464017679998 0.6828631452606627 0.5616888530414713
Ni 8.648109812727784 7.74323761726908 2.1120915232009776 -2.0721577100202313 0.7260612779146914 0.525125709205457
P 6.542921311325447 7.683869018552317 8.239038158475196 -0.15461380282455953 -0.055813507425194205 -0.3096004156075055
Ni 1.7149560721368255 3.405972591508032 0.9561869578808082 1.4440528914473711 -0.012813349714584383 0.8225169843412803
P 8.391116335687594 4.532791579436143 3.6229412253228674 0.39690762276560676 0.7429272004320947 0.5254018456849789
P 8.828062134568604 4.011306611945731 11.023087841170195 -0.6351617254196416 -1.1332486853397516 0.5248187194879993
P 1.6404142547408016 1.4224309643849071 2.082867922676496 0.6723002821431519 -0.6090740271936542 -1.3862488359547094
Ni 8.821300866257317 3.6220627267367664 0.493982925766295 0.19802353726876218 1.3342053370949085 1.1384014331852845
Ni 8.846275592516113 0.822961061897743 11.032506054780635 0.7351390718462436 -0.7177334747752865 0.38674945128568233
Ni 5.815716595312716 2.078059495171255 5.818634665456993 0.5479707321244305 -1.5463691704197948 -1.7723565398913348
Ni 3.6506465713906904 3.19781878639365 13.09541844375714 0.6566201524037336 0.5200038145978593 0.8698407091279085
Ni 7.0665419070134945 5.651674237249902 10.510362679645011 0.6010863810024875 0.24301192905399438 0.79749140883122
Ni 8.477147646269144 1.6857287412574138 1.8431982139329228 -1.3627111578440854 0.10122356012887727 -1.4679968038574782
Ni 5.119846860715051 1.5219475080397267 13.654565074624523 0.8985951555527815 -0.8208300835571606 0.6333123309157287
Ni 0.9261576006913678 8.7738973809797 0.9258824870152534 0.6055631858269184 -0.19211848463823689 0.12915859597624854
Ni 4.75978367694887 5.140830107198357 4.727926445843551 0.7193211309773805 0.10892349987629629 1.0335852706091426
Ni 3.266783723168778 1.4564331495751865 7.720170967557166 0.278593682813346 0.293899717042797 -1.1856827347697516
Ni 3.6273132013012552 8.153343512426112 10.468472658954475 1.7329500130692541 1.8229311675150928 1.8601481428850222
Ni 4.678741716086685 1.614926604679081 9.47995751265839 0.056687425389715274 0.801030018112098 1.5627226720771537
Ni 0.20686869784087122 0.3350987159834448 3.327554935339359 0.8886894664032953 -0.6736279998156398 1.2089350204294729
Ni 2.9572761745963714 1.6739221679028078 3.823150307024304 -0.3013386898193456 -0.4019832375163013 -1.1411360585076282
Ni 2.8387814502333186 4.114441599883004 3.4163989335384035 -1.115807864155485 0.5620212966802257 -0.1892059389771322
Ni 0.7348127748932116 2.548559836650901 9.880840105250092 -0.2538889809778143 0.6085358953019971 0.5291978223923015
Ni 3.1807897161365326 6.247374616079933 11.760837337982338 0.49180369801455937 0.3144150633873295 0.4175150146033132
Ni 5.835431521119696 0.5976728039994607 7.9642210455777205 0.4441020210632223 -1.849494776936234 -1.3760806371724559
Ni 2.71553052333405 5.660468548998239 7.676000767415444 2.9583012700732216 -2.5471700475090646 -0.751697233315241
Ni 1.3464343085660406 2.7479379817915985 7.603754983479059 -0.9272572993741643 0.6203696547121316 0.6643103219591397
Ni 2.720827627335169 3.8507148321935056 6.1549830503421115 1.28400531920175 -1.2480615541172893 0.3429288545563062
Ni 6.488943075483061 -0.0410525560086698 11.773203464576499 0.5864264649974675 1.5284097577278968 0.9948719131993445
Ni 2.0397953794730332 0.3651234102292223 9.797674639843796 -0.6252866323977747 1.2256124810851539 -1.6817349236480197
Ni 4.486553830074266 6.380893344925031 9.219841728541484 0.9688567200825056 0.20151792357526585 0.08719922082532724
Ni 2.865238992576934 0.729985695613319 0.4100424791232157 -0.1557479164290027 1.4473462174866623 0.479516138896458
P 0.7761572311751825 8.158388817469431 10.44101071854586 -2.4198932419365615 -0.7542274559362624 0.7318503737926428
Ni 5.460055230364365 0.5103274758936904 3.6597803454376896 0.2689196500586917 0.3417931982899662 -0.2906940656213058
P 4.643788290389162 0.9624222461469137 11.413406068599103 -0.4427542487860762 -0.9299829258354435 2.1588591652735336
Ni 7.019912470383928 4.498267144555613 5.69344208881647 -0.02408095220860369 -4.1695240580956066 -1.3776109577740534
P 6.983280384967741 2.4294962331609673 7.563557611338176 0.4185048893204083 0.6076830603833986 1.1500225623639806
P 6.264002673182036 1.8893967945680317 1.9165770931794057 0.3043849328448371 -0.9048956438495125 0.8877325018066645
P 3.7410797007900705 7.012209287452724 4.651981082404977 -0.6959050660462854 0.25921759227957936 -0.7419147000071803
Ni 0.7306273166613417 3.728312561040895 5.191991925068317 -0.5720521985536664 -0.9831116873396231 -1.830525949143215
