# total energy = -381165.50916268583 ev
CRYSTAL
PRIMVEC
9.30566876921602 0.00000000000000 0.00000000000000
0.00000000000000 9.30566876921602 0.00000000000000
0.00000000000000 0.00000000000000 13.61978687516673
PRIMCOORD
 96 1
Ni 8.134243052438423 5.149487096316514 10.841131746459478 -0.2588126435316768 -0.3682534493640239 1.4530396683270137
Ni 1.0788433745612955 8.201774288910823 9.670701982293473 -3.4010871434281813 1.4821250157287442 1.7261970106161366
Ni 5.246805777731475 -0.21175234837767345 9.353279115001326 0.8866580377955633 2.910547656838026 1.3875302737702944
Ni 5.088255797434277 7.2021407648184645 8.515458138590377 -0.5375459372466806 -2.354517544744229 -2.493388482912235
Ni 1.1068627424844593 8.110374012676578 0.5792927546348781 -1.1456910248681624 -0.37871526812729617 0.04403554095365965
Ni 4.902551876386567 2.0984747803098744 13.027612095126358 0.20593919257141305 -0.7619837028429135 0.08093987017917673
Ni 1.6894255090383674 6.375015723808009 2.3454230281757544 -1.004781973224205 0.0854668115152528 -0.33264212791831743
Ni 9.330607714778408 1.7803791131835027 3.865677066864616 0.08907586902274982 -1.5171002462523486 0.3131310544685833
Ni 0.5432211917386445 1.221257325639375 10.79907384700231 0.11795064307557106 -1.8127902224263488 1.2127554226168273
Ni 8.012776161205924 1.1812243396528423 6.035349517045007 -0.8293131813275073 1.438646118609503 0.7185156043569497
Ni 3.088048876728722 1.7941980309403605 1.9788736756162637 0.045246530542625306 0.3765804811724805 -0.7181553928040535
Ni 1.3209489525277354 5.469899874905146 13.268886676893683 1.2350340315093695 0.3453526335064504 2.0907048768947996
Ni 0.9313113057954912 3.674026823630622 11.660921128973145 0.5332185135159204 -0.7086083725455666 -1.0933269094441496
Ni 1.3372617894487935 8.70315440326889 2.957454985808731 -1.2181737654189213 -0.49815432282293565 -0.669081518095538
Ni 1.8081286167194957 5.3411838678931245 5.509435007625691 -0.47230522297031563 -0.22260842569697792 -0.7980562801957546
Ni 0.7703474350833915 2.216545102531429 1.8372414006941278 0.7355224233275913 -1.252125696884334 -2.0382227478356834
Ni 2.6770733320729265 7.019740356096468 9.2818162335779 4.697574911367658 -1.6430999848846413 0.8729563719387546
Ni 7.934115345179851 9.331166054889795 9.59297359425342 -0.8716343106932215 0.15388900884339302 0.2644749840237768
Ni 2.7800684712870005 2.4371918088835165 10.45748974195669 0.20163568010005273 0.6744350690979675 -1.9639286651077983
Ni 4.066679506964363 4.08094509681033 0.0036524748953310378 -0.2343550247099448 1.5139128496633023 0.8801114949262973
Ni 4.3643213146768804 2.4690078895641197 8.135970184516317 0.3801355455135905 0.16075822515940058 1.2552619285204702
Ni 5.801265425345511 6.2286933919502125 5.394075426644927 -0.0193218402570635 -0.3310963806977523 -0.12997723522280197
Ni 4.886899741930651 3.892142388144416 5.754510024417865 -0.5776026960582503 0.26118037243290504 0.9276290808912863
Ni 2.8013133125253207 0.3363682778384023 9.003033293694369 1.0085198430000823 0.6388564006624095 1.025234584651602
P 5.3387364770715395 -0.050634003568089794 4.38034102303946 0.3614192000510098 -0.7515992742847959 0.6324975483239171
Ni 3.7106446292691637 6.254637595792716 6.524245146512433 0.19337755385631858 0.7129941603180882 0.7284392912285648
P 5.619432662403425 5.00634730309363 7.7083765770119035 -1.0994499916227518 0.26911968188463975 -1.0888827576298667
Ni 0.2737820736191961 0.32271034814699495 8.069818978685896 0.22237214131645572 1.4913933284045475 -1.0430669848473326
P 6.681237357898858 1.164148437912887 8.029054567153446 0.5923436018128508 -0.10814445561842664 1.0983261624309537
P 0.9665797894981781 8.43932939496945 12.071162456382467 -0.2594898721043596 0.6503394616013445 -0.9519648294231735
P 4.536680907062412 1.212361106531257 10.90326569518846 -0.5056202921826776 0.16199029779428878 1.1363854311965202
Ni 3.041492617107471 5.07583272995589 11.624255864425136 -0.07508084029523844 -0.40171018636057265 -0.6019155617720021
Ni 0.25374138588776957 2.519156137235302 9.051178961499373 -0.9700281146827874 1.784979370861668 -0.08550075007698178
Ni 2.5940388518409803 3.2289739208431003 4.421786609507804 -0.30996319826356294 0.8588279029571726 0.4234419216107095
Ni 0.34050930033119803 1.5752077335853916 13.266053100828389 -0.9541924332021114 0.129291522009687 0.24298030448511057
Ni 5.832271912864601 5.653444880855489 9.94290767566485 0.09431526304481821 0.5177684975094374 1.681309406074827
Ni 0.2886627681545435 4.284674097787356 7.332498291757969 -1.278781094688333 -0.20696069185739194 -0.786500457037355
Ni 2.680860739161843 4.306477279137065 7.875191852091351 -0.0020337426005771425 -0.6962318532580848 -1.0003771592882902
Ni 3.0601970108389756 4.448053720048061 2.307518248580463 1.139240127036496 0.12943344690418998 -1.0978754480467803
Ni 5.594149161026064 1.6375184900163127 6.302024851613084 1.0925828321892732 -0.34412210353345896 -1.6604605876502756
Ni 7.793990588558463 0.6207783554778724 12.177165187663219 -0.40988218064840376 0.23238993056377394 -1.1820641641805576
Ni 7.242108611125336 4.357816652379208 8.940517812555939 1.6427071203215966 -2.1301389145207055 -1.8209735295680896
Ni 5.761641888773996 7.573911527986287 2.828067109529338 1.3604940955881086 0.14822975367508665 -0.1198522309736581
Ni 3.9768984170531425 4.312805133732797 9.692412106957951 0.1975867068416597 0.4342618950443489 -1.3663546681339438
Ni 6.875800275380594 7.70387449458041 11.058544732999776 -0.2531266488904931 0.00847795556402411 -0.05993138624830969
Ni 7.370861840811451 3.729516525034084 6.374277784294124 -0.5903543392969639 -0.17814376762569964 1.1212611739605722
Ni 0.9579906574513232 2.2111012864453943 6.246660776734683 -0.0594413339857686 -0.4984106618081159 -0.237782562334255
Ni 3.3536512677160815 6.713965394094729 13.150040261917297 -0.4942297909575489 0.9407764169065217 0.5397966809540704
Ni 2.309313312038576 0.8985144076525493 4.147088858105931 0.012040218993985715 0.9872146537644031 1.725814173355421
Ni 6.684215171826263 4.217412725702125 0.6233718452952706 -0.9378276186908429 0.6843335591586021 -1.5448802445790941
Ni 8.5470611194618 7.098149919072416 12.673266196268107 -0.0696504133082865 -0.21623646073236308 0.4116899232811039
Ni 4.298493015544214 9.015517778585009 6.99850016769241 1.4993125832516243 -0.9056687745701112 -0.033606375200535665
Ni 5.666268092080371 6.377900481050181 12.954868753714148 0.0029187163086917475 -0.24803252219703734 -0.9294368235239865
Ni 3.775486527538378 6.640590197789798 3.767001618978982 -0.6072894244894057 -3.1494321939872085 1.1813416841922366
Ni 6.9370687969369245 6.417970689710806 1.1863731660466939 0.33628898064228535 0.8162023549771621 -0.1232237185490523
Ni 0.9410171180651224 4.037617904166607 2.9667439041285255 0.512519333295356 2.329107589311557 0.5313315809058526
P 2.1137732993619105 3.241303931636256 0.2746726260968603 -0.8008305005067822 -0.33467432785699786 -0.2928684475648053
Ni 7.169180086909516 1.9509706285496393 0.7603317440519398 0.7108922834837369 -0.8597997799521386 -0.9599288214652564
P 2.267019048600921 7.722848752699085 4.992128241590278 -0.7678756428473162 -0.2990599210874979 -0.04413812796979495
Ni 7.258272557350024 0.8100705423081039 3.6459758164344795 -0.7303197960807294 0.19803793544646536 -0.8782564439954295
P 8.566928721758696 0.6003068152938248 1.829723351094286 0.9927080727788063 -0.4456652517852841 0.3784555867080063
P 2.070045962971693 2.143058238204221 8.108948384258834 1.0234163004959407 0.011655839071373474 -0.39031274315690845
P 8.910363724273568 5.771794373132739 1.4548789256132715 1.4132014532841533 -0.35322560849662393 0.5150413283862615
Ni 8.683491525679502 4.450017216106443 13.166819312831365 -0.887369462040291 0.49182195284700453 1.3883039187115251
Ni 8.337367184961444 6.854062233710548 9.188766062314501 0.2397142321393291 0.021284106189756895 0.29751314542566826
Ni 8.446290035024756 7.729278969648573 2.826323227248102 -0.14025007790371974 -0.053102279141618226 -1.3449885437533418
Ni 7.547688154088089 6.1016244882667845 7.09889158085371 -1.5545887301161097 -1.6871548091120105 -0.46042158415885226
Ni -0.09188603213115346 6.911226955448174 4.922680967968963 1.0918850347913003 -1.6279024512085964 -0.7837732879141791
Ni 2.4031330620888367 1.5323737413733947 12.389566141136955 1.3502870731481196 -0.5552284421281083 1.5283855893581808
Ni 5.456937078652418 9.20401340018966 12.661362385093312 -0.4697914554095264 -0.9427098864838088 -0.4819172921387829
Ni 7.155193667119242 8.043736120382398 4.753006060952355 0.22094852149605174 -0.1443641000720933 0.2781648228060435
Ni 3.31828042165964 1.6255979286381752 6.2432688605580005 -1.399356576981261 0.6310291913085068 -0.5651220470927364
Ni 0.9263848848793428 6.182835057468196 11.093261390559041 0.5004081518541188 1.120816630223986 -0.27818693429323055
Ni 8.95893931396434 7.653782080920368 7.00697111774902 1.5015281028457041 1.9343378388245591 0.5245739504670449
Ni 9.084342502982127 3.6597333167790844 4.830665587045337 -0.4894609088139957 2.5268598751968034 1.5990880980800655
Ni 5.417574100799551 2.9885805858849177 1.9400159955642031 -0.7473973203883063 -0.13122550580760628 0.49898401781308255
Ni 8.14604264012576 3.567532753051849 2.389427673487962 -0.4670419176888473 -0.010110348961124524 -1.0133905408288224
Ni 7.263455814717411 8.772872471844229 0.5737093535209963 -0.12936119890535785 -0.7462228404642309 0.2694446693242262
Ni 2.1265872049182697 8.631500755640738 7.117714156575458 -1.0805608680277328 -1.749432841215626 -1.7903460344902198
Ni 6.780956901792788 8.567300948499621 6.906457800330068 -0.7025878773830997 -0.2116580973330613 1.5454065493962095
Ni 0.35229213781519325 9.215152285411854 5.321360002238286 1.3440248942884918 -0.8959129807349281 -0.4216760879595383
Ni 3.2623161311614983 8.490966549604334 11.375518136502256 -1.6422893160578877 1.6976099430070635 0.1100784394163459
Ni 6.446455341060128 2.038071685926196 10.155539409717962 0.404680067622174 0.4549785587664099 -0.1209153821308498
Ni 5.185406976815821 0.7110582292219326 1.5140434355165204 0.3862151760487671 -1.140753478357229 -0.057248954320140114
Ni 1.4400335926183119 6.230284661267668 7.698680070410796 -1.0228920525613545 1.0498156164250758 -0.6360307582881563
Ni 3.1656209295375874 9.016801960841201 0.39008524938820716 1.1241652349812445 0.306298347817466 0.39480934547568136
Ni 6.781654826932024 3.1349773630908992 4.182759346688818 -0.9594665371168571 -0.6801472889913963 0.7055310191718237
Ni 5.110403288519341 3.9143271019035732 11.533984365782747 1.950705995769937 -0.5604374971328735 0.5462200679819108
P 4.675363285062715 4.02943822153477 3.616761600672945 0.5094844031237741 1.0474710274522994 0.9440481456792581
Ni 4.44451756600927 1.8315137617181372 3.971380155618922 1.1014333406013677 -0.25069104286580696 0.1870968630539294
P 4.704676140910594 7.1315386577334285 11.01670458618605 1.0359920802784222 -1.0331219578194786 -0.13931651034585685
Ni 3.7205086379036882 8.659110674148886 2.9840133637737623 -0.6669107356964643 2.1921294972908894 -1.224883316228613
P 4.2217584729024304 6.897314981006086 1.4447189967197112 -0.22182938143910827 0.3190674745576763 0.5750341640001257
P 7.661282449750015 3.1257368342474248 11.957096363326418 -1.0830676936099863 -1.577023147860226 -0.5512360331392635
P 0.6949919925167376 4.905734415021479 9.401547617630833 -0.5765295175987297 -0.2741302477253537 -0.08771035613379087
Ni 6.971788246196747 5.334083642809971 3.323228245613392 -0.3108764541064517 0.9155428391507135 0.5007848184672472
