# total energy = -381171.5282047403 ev
CRYSTAL
PRIMVEC
9.18897610040037 0.00000000000000 0.00000000000000

0.00000000000000 9.18897610040037 0.00000000000000

0.00000000000000 0.00000000000000 13.44899535887122

PRIMCOORD
 96 1
Ni 0.8290340049389376 7.4718687723080475 0.7477317835047989 0.8969504208605068 -0.6643095506281914 -0.29486490916954383
Ni 8.64534694634529 3.907667157733696 11.641543958073349 -0.6972502672202702 0.4533456511486773 0.33167436468840944
Ni 9.332507757062794 3.710591190476527 3.1112769898666603 -1.5580406932204522 0.051818527333188175 -0.48292824990180055
Ni 7.7061876591014355 7.534160840291278 -0.024639320119521257 0.22823502785513597 0.6444359516327159 -0.37236849997366195
Ni 3.1266685245874024 3.5434253399453377 0.38697166870491195 0.07594164563363695 0.14163590250765284 -1.5972261051706622
Ni 2.172825253771163 2.3895196846873077 4.154259759707082 -0.13609980318077206 -0.16698132325097692 0.023179523440256856
Ni 6.630838559262884 2.445664327758194 10.75461021565656 -1.2242271707018528 0.2670928812625981 1.4099145550027654
Ni 4.0752924570625195 1.5058066783419362 12.988595455573584 -1.0456589139442252 0.3226127687067734 0.29414859982880953
Ni 5.723555829598883 7.3925219649566385 1.6303540584045868 1.3213757894304083 -0.1326889777270102 0.3998368805972598
Ni 4.397347686252115 3.7865013208216323 3.553990824495732 -1.1685748714448714 0.2991265126593751 1.3808004112456285
Ni 4.1036404478765425 3.736044653865456 11.296618286635123 0.2999302395075931 -0.45897379596873217 -0.20119602145947285
Ni 7.251250648660108 0.4114042368654979 3.9289221780098442 -0.4256805811332411 0.3481119414191424 0.7133949953009326
Ni 1.2451154305643508 3.849133380915112 6.613974031696927 -0.30625798149783384 0.1159284704392197 -0.16455960118336174
Ni 7.562306673634343 2.051494015291951 2.1127027030103607 0.48227313281630496 -0.12480777520672053 -2.2136591438325492
Ni 0.2531287205685284 2.0255351582256247 10.188918478057559 -0.897882445756473 2.511579294888649 2.382745943462303
Ni 1.4223156428358685 6.76188254532408 5.145330328800422 -0.18859375931443 0.06373404782385152 0.05483520267232492
Ni 1.9188970922947515 4.524082042591504 11.58040510657218 0.018914320405999684 -1.0703355907552987 0.9256220777635865
Ni 5.310437848718211 5.979432053977264 3.667621701126596 -0.5196649432012018 -1.6832480178584364 -0.18981400487477632
Ni 3.0540848035371684 5.411231725943178 9.540569145071396 -0.018108279564936554 -0.5404674817688498 0.47922071914322634
Ni 3.8662616320909113 7.319083669142805 10.573411879948033 0.8031552919852168 0.5215274503312374 0.03242778151140222
Ni 6.329045022048951 7.129469150359214 5.793127404331828 0.562771801693005 0.27750302085232853 0.6405882957518516
Ni 1.3413331977648828 8.487682496949173 6.913402326500639 -0.12022735492488971 -0.5524984447914549 1.3823047637052968
Ni 1.6216061532976336 6.9156876248200705 11.202502038234968 -1.4070200070637897 0.7161190791003151 -0.8986113535026976
Ni 0.9541373180467255 2.066398534287201 8.150171410207168 0.41096821462373095 -0.16064458239967172 -1.3483276354289035
P 0.0947999082110334 5.873869098232853 12.370076295222614 0.9056854867406596 -0.05727620801364974 1.9817230129767418
Ni 0.3794192493694027 1.2793443659880908 3.0053666908312398 0.559412655412785 0.0017972011097388404 0.12466610742253369
P 2.6661262388149387 0.40242936405251345 5.542707593874151 0.2672903419853848 0.6534672085970488 -0.7329106967363571
Ni -0.17992474364148803 0.40742357248279604 0.962410153096925 1.3338276420405157 0.15412195078980553 0.08906892704421435
P 2.481097019031736 8.094045145088186 8.83030081652568 -0.1792316013732397 -0.2357796729716133 1.0548071561023964
P 2.110625075547459 9.193202881620136 0.19742974283134707 0.4613975749188764 0.7173814907525065 0.12845719903384972
P 7.552649059908074 1.1709603946262077 9.441355771710288 0.25776080522839473 -2.161056687145485 0.05828408045287382
Ni 2.608272446216853 1.5887279973389377 1.7885284959660768 -0.35081519928291843 -0.29722595320255263 -0.2289963315011927
Ni 9.23096957278566 2.3233774357799035 5.214995631088084 -0.5583505326968577 -1.7075300303342527 -0.3743197101627618
Ni 2.974829885945287 3.1089797458784902 8.263506401812355 1.267217815330766 2.178997330784305 -0.16165656860395386
Ni 4.545290199090293 0.27959664690263336 1.721713614018936 1.6027712033586075 0.8810818292593665 0.29538375778749126
Ni 8.565834737426734 5.835459178750643 1.7038934329539002 -2.3976889379253805 0.5688406335949041 0.5415262620506675
Ni 5.646837069369942 2.107124075709488 7.553359367749216 -0.24327700978992298 0.08605893657329694 1.842783940574962
Ni 7.837011109739769 3.9223878972098922 0.45527148916600607 0.39324097254729695 0.2396332423897486 1.1933389657634286
Ni 3.4959367122218774 2.4802883891478995 6.033676416821136 0.40042386344898134 0.04219720219334023 0.012540041448539693
Ni 8.00154891314849 8.232155453656995 8.730213571551475 -1.0437740382166862 -0.21319921656793606 -0.5191563789958995
Ni 5.782411220575811 3.651322295581729 5.839136606926906 -1.171031303405164 1.2161230535374798 -1.1250031575015076
Ni 6.288411370386193 1.010024669790937 0.16422170263594993 -0.19182177933342448 0.2758917105011507 -1.0325120921496216
Ni 6.75896963994708 3.368274269311268 3.5826108089979543 -0.12798874403786345 1.0533668241114438 1.9128603856770734
Ni 4.931107732415549 0.49098995759167585 5.946715623995335 0.43875155538458627 -0.8319040819831351 -0.0434398163511897
Ni 5.919244261487196 6.914869805960281 9.530993313231106 1.898835275042575 -0.6421679815341457 0.6027550269541618
Ni 6.435765788763399 5.479027990522066 7.33650780534428 -0.3714763271766957 -0.31626034412618437 0.8138482529226887
Ni 8.324771142284076 1.9744168850008554 12.78856890813801 -0.040003536976131106 -0.14803872071020308 -0.48039828439109517
Ni 8.292912962656128 6.633356338673918 10.759707340617515 -1.3325230642964794 2.3433484155012865 0.9892334839666447
Ni 5.234619608132632 0.4997718619096539 11.198601317943057 -2.3678194040594573 0.934606540650384 -1.640390813483594
Ni 3.3747157414540983 7.718978713627569 1.4752469010161022 -1.5502880458582269 -2.396816819733072 -1.4728777860988633
Ni 0.6092144033012858 4.545869104575313 9.819608940031296 0.039890151326718394 -1.0821770634749168 -2.1268908398970527
Ni 4.353424381198296 1.421038375178446 3.7781320015239297 -0.019253191802657162 -0.43687927806253796 0.6131173440250924
Ni -0.12870906727162015 7.976178150543136 3.263734965487987 -0.9821097284376699 -1.7346433416112772 -3.88259228773021
Ni 2.7290799130667622 9.057536840654743 11.529002893990471 -0.40846010348989653 0.17071713614432535 1.0466971254007524
Ni 5.336993989221461 4.402070819891793 9.118553478775741 -1.8878661776255807 -1.2837224978540085 -1.2597906696287595
Ni 0.2575936439839365 9.194948787051148 12.216730664524258 1.8984118143519113 -0.984279225285163 -0.836434879973953
P 7.165149943983478 9.158799355653297 1.7193198857832623 -1.3913835860781134 -2.085885344018969 1.9480623874995033
Ni 1.3447147409154698 6.0235115716222785 2.8772245833758996 -0.0023749279900797805 1.3031358693836137 0.020716149501428843
P 8.885638667507921 4.417168307382049 4.975119251638513 -0.227835221313556 2.0755561941788194 0.7348066282074893
Ni 0.6522381076093379 9.159947977647382 9.8640982860038 1.2119398686940674 -2.7297258281595314 -0.7178954542744475
P 4.2495889529329895 4.859966680589885 7.141147419897478 0.08393494825175868 0.08922293612357537 1.1105281038137842
P 6.945983678536062 1.791804365893208 5.846278279037331 -0.4196667708389934 -0.5937913900029709 -1.7368735164933764
P 8.110346388428244 8.108986419987247 6.349700921092985 1.2942635065946484 0.5653359628757554 0.30465746977993335
Ni 2.157314262363036 5.869256232304607 7.450111115047287 0.6346919848720747 0.4764796660629795 -0.8167805960781351
Ni 6.456661520079797 4.9468392592465396 10.874360031374318 0.9930757405308702 0.2973208269092041 2.052235774285324
Ni 3.9616156355518912 5.3488753351282785 1.5675069762738143 1.0379525464389026 0.6552469262052909 0.23915013210574293
Ni 2.2070082443151398 4.078407519910479 2.472046796615939 2.0499955721008956 -1.554301280782678 0.18117612669412023
Ni 0.669592407593573 6.642499369746837 8.992239977534984 0.8618067830798383 1.8239087009370136 -0.8733898599317474
Ni 7.725401807818494 3.362126844398924 8.985152520382682 0.5303735878679576 1.143577063848953 -0.1495628706642134
Ni 0.38006523437887624 9.078671485345911 4.874910712181731 0.8028423887304883 1.632665934035511 3.178781593683603
Ni 6.318753368981947 5.6483164944983235 13.403389505668029 -1.1023206283023272 -0.5234246673539502 -0.27214381342294425
Ni 3.037287355495666 6.1005060011298 12.723744358382222 1.7182831550856987 0.13722183260035722 1.667757121311689
Ni 4.990514461949637 2.563678345918488 1.8272609485042262 0.9669651594867474 0.588725031223657 -1.880424119525239
Ni 1.058147336855132 4.912564378943036 0.5532360806951431 1.3046250523346306 1.9409779698488958 -0.8253943058890753
Ni 8.678454826702803 5.914447616039897 6.6779504389722835 0.7684772809870571 0.8241236667067678 -0.020310686532894057
Ni 5.926898678455781 3.2998623433435514 12.781978574584748 -0.7512591173365578 -0.13244960802269445 0.7994642162868748
Ni 8.212840226204458 1.0618872500678735 7.457777477684609 -0.23587480378858086 -0.5644209072606537 -1.412021316933123
Ni 7.9760403159038455 3.540852426678587 6.738955131424544 -0.23113934598612454 0.3185879638180965 0.21581685669644124
Ni 7.31070332307396 0.12728845158933555 11.52738930981318 1.1573802882806326 -1.1823940367161507 -0.6847135682058402
Ni 2.3760945908204394 8.719125234269374 3.241504075965664 -0.5469312351163226 0.8993302339465932 1.7503463541688307
Ni 3.021105568842993 4.824818847570877 5.469262865777149 0.25821074828161983 -0.3535320839934492 -2.1197128340913753
Ni 3.3433905224314056 0.6818100700202588 7.763553517076434 -0.758163814876191 -0.45723778711423185 -0.9878638573126277
Ni 5.3067622583371366 -0.0736946682429136 8.743393319760406 2.081269185403196 2.0985464844264055 1.2712151094156172
Ni 5.215093034233182 8.134779875486425 4.166337749699286 -1.0982014639276312 1.9220376813009672 -2.0585352341407903
Ni 2.6749384667535603 1.448880972315072 9.806563350871274 -0.524668052842748 -0.27848312537741077 1.622516504306335
Ni 0.7404403310863458 2.871527418285237 0.9420308422290671 -0.24500787643810062 -2.78983924851166 -0.04712420718131239
Ni 3.9805816819182267 6.9668885988284135 5.938767159796265 -0.8240514187079357 -0.06535024327103585 -2.5338489049201267
Ni 7.596030215380686 6.252739765737881 4.002192315563744 1.2663104730251482 -0.9162753464413639 0.12910408858922925
P 4.622100849078762 2.2951580906292173 9.611378474865168 0.37978201882891366 -0.27326944238695516 0.37277910514851925
Ni 4.760330614334955 8.278137089324217 12.883411085638427 -0.7319213362398943 -0.9639232873366301 0.8598211201083773
P 7.945716695259995 5.641875022355493 8.989765386310928 -1.268518022199428 -1.0386922528184048 -1.8196756366922724
Ni 1.7244859280638603 2.063779676140687 12.118957203694936 0.08541436101076258 0.20375529754621685 0.5221581419367007
P 6.1351024955916476 7.095469939334291 11.780647594942643 0.12457946124599835 0.13412365329100773 -0.9798538425239577
P 3.2074304342355235 6.73371833402911 3.7029523947670624 0.8099810566577985 -0.32536282064808486 0.11175762689098173
P 6.422754198814402 4.742448867131036 2.001102590065039 -0.5507660354813805 0.8490618247093441 0.16041009779136245
Ni 4.366821908137305 7.350932659794801 7.977123696168667 -1.40043849719153 -1.318874106054477 0.6120045705768878
