# total energy = -340863.2366347117 ev
CRYSTAL
PRIMVEC
9.33593940732007 0.00000000000000 0.00000000000000
0.00000000000000 9.33593940732007 0.00000000000000
0.00000000000000 0.00000000000000 13.66409101383115
PRIMCOORD
 96 1
Ni 7.61507384190765 0.9846615470979178 6.787746216517021 1.6696581949891436 -0.29112832494524693 0.3312254500764489
Ni 8.18796443805932 3.5591495805602187 8.405179076208118 -0.36718129934576765 -1.24091285888765 0.8914765422301293
Ni 8.039168233094433 5.445840273567435 5.4609906363116325 0.6791720695623207 -1.1948564308492198 0.7281168748921395
Ni 8.74367690539085 4.861989284353349 1.5629669882037622 -0.4404621103177898 -2.615886636149172 -0.1712285285631051
Ni 1.5706224586562159 5.431490934438873 6.409237351092726 0.40862876785727686 -1.2330267712713538 -0.09080622145029522
Ni 6.56095290436308 4.74013660100527 3.742703488567161 -0.2132223564963876 -1.2329105574084638 -0.26712836248622385
Ni 7.201304999892103 2.828929730671049 12.889883436815609 -0.7957625990655715 1.3034937669436648 0.15901784542952613
Ni 5.95419151942909 2.635339687619732 6.9196322341276035 -0.6945462380255457 3.2785805055508117 -1.3747336362262583
Ni 4.474202362178264 3.3097772985413276 3.5486326446276713 -1.0705621049438079 2.0919048107401714 -1.37188176859976
Ni 7.093138803962678 5.523991423759496 10.224538972992045 0.23644584580070246 -1.7643856058707164 -2.5568520506835193
Ni 1.911916401742009 1.4591139963585245 2.713880146492119 0.7822437386435303 -0.7003595022732132 1.2706759490826955
Ni 0.38925639906437304 2.5542383805216033 1.2331627859543532 -0.7266557169655808 0.866602918916901 -0.6986972840794419
Ni 0.7208988478163285 3.285289129033052 6.018171646938494 -0.3996167941666537 -0.7934982285114269 0.6613751505902158
Ni 0.8506721423008256 5.120818873162895 3.885084035855308 1.1352909125807609 0.3198722298471588 0.671992778205062
Ni 2.570678970115227 8.460032389187864 6.850656445350995 1.1968678048522936 0.5589256884740375 -0.015103174190025602
Ni 2.595671280360615 3.0053043011439216 12.237942639490692 -2.0179331443487114 -2.0821757563778656 1.6004183868557147
Ni 1.4385936011701181 8.665357708286418 4.51534024632667 1.9323979414893686 -1.5892441154064503 0.5523706609643391
Ni 2.6266105841160194 7.270839077855365 3.012126072192224 0.15957088971951874 -0.9328437923230063 0.4282573407214818
Ni 8.49223204478605 7.183893472582559 9.964210965880527 1.3650603748025523 0.5372978257916166 0.09980945339017006
Ni 3.6439105759722032 6.421539318672237 6.604483589824856 0.6255640544288775 -0.25673082130198366 0.34843821441030953
Ni 8.989613561645713 0.023874798278121792 10.805481817028157 -0.1488452757718985 -1.023498832907418 0.7615772114331143
Ni 8.206206863991143 7.715267145439031 5.099848485686917 0.5173082700435672 0.5426639751995364 -0.29251877753487043
Ni 7.0899272407484775 1.7838086388778993 10.49335241558434 -1.1997932060292047 -1.9751453597592243 -0.602429268183627
Ni 2.2853539847885314 1.3663240929110398 7.636081573141932 -0.11114596144891181 0.9781813399175412 0.7503774860625528
P 8.990201725839013 6.4064057606192755 2.76763461938375 -1.0861566169479553 2.837056529627411 1.6352146685992932
P 3.1886341466010357 7.974591539046114 9.034218813752705 -0.19931628793825673 1.893500235982907 -0.6021114798328921
P 4.375176051093903 1.014797960049772 6.691223804426985 -1.0796784654227793 0.3607031478205917 -1.0240973857233653
P 0.18226554834543138 6.402316619084917 11.767870613079221 0.4238841513544506 0.2521959095461076 0.14859227922082796
P 6.1458770308068695 7.075475206284578 6.305390894405192 0.01612981568232706 -1.1607062673300719 -2.0322331059111516
P 7.9848143928820114 3.5569929785181253 10.892453562931777 0.706783403521686 1.8611866114518656 0.5905217181127637
P 0.7520762180309252 7.259495911270328 6.16377589416229 -1.0185864832074651 1.4676167948102403 -0.7125647860901534
P 4.588091489067878 8.128027705980353 2.9138401011162522 -0.425620417319267 0.631523614446422 0.48389447046981177
Ni 4.088357315435022 9.197132826544665 1.1712739089100106 0.14346498529659163 0.3192716201486824 0.5316789369429424
Ni 3.8345597980570294 4.244659615819144 0.2700093764519999 1.4428534718226311 -0.33449152242223035 -0.32474472744811167
Ni 4.5803146514009345 1.7101200678032444 13.13717660509089 1.0073507623926456 0.20595821873480658 0.19090492394610994
Ni 0.9923076816107953 7.692879562335394 8.217297960207626 -1.5547687073373997 -0.001752978135364723 2.335291092414449
Ni 8.254529687237364 7.430707707157582 0.39410548608023216 1.7586718433153905 -0.430982967182761 0.8720598282664143
Ni 3.8637532811116913 3.17205351791377 7.798520386609466 -1.3969374260168073 -1.1499338593049162 -0.7943636618355158
Ni 8.627985942163038 3.5284996909316755 3.976578110889622 -1.197794173321305 -1.5917555689743943 0.14436358585146106
Ni 3.2249229437335813 2.367603612454528 5.302091077537423 0.8449493452028674 0.41352774782079105 0.8610092268792074
Ni 4.029540896105194 8.127570244941122 5.11619104791499 0.23805278527650614 0.38721559228882346 -2.3491567946529477
Ni 2.037998265718091 5.401578584036845 12.80433262091548 0.6485013799513412 1.103395863644377 -1.990898508828423
Ni 3.4866653456908887 4.428409578557185 10.896347583328994 1.9114524495859533 3.8516516322872953 -0.5890407626918629
Ni 9.163784850378612 4.416151489893683 12.746793358119673 -0.6522166240193993 -0.1566848264209753 -0.181839471309732
Ni 6.021251573404669 3.4405644760637957 1.5397522408536752 0.28075135258629713 -0.8508726526658379 -0.041586308082218706
Ni 4.748931056086016 4.5469293314765755 5.9508753936916365 0.39953529019644096 -0.5319812986747097 -1.3402381735525497
Ni 9.264332919613889 0.22469926090700773 1.5332609620663689 -0.4176641385866678 0.14640067088614786 -0.7280649386082816
Ni 0.6030466145766342 0.22196383061119193 6.569217078075899 -2.396744314623924 0.10672726355592586 0.13458362364656176
Ni 4.173277021819802 8.850013257163347 12.528837446368527 0.4591892544136479 -0.6725237110078677 -1.8528971177495637
Ni 6.478889995488606 8.481813136219053 10.824979926832974 0.05722247195757887 3.0084184984445868 -0.9567092860866943
Ni 2.4158610841237147 6.946639240133528 10.769845602071985 -0.13698760510236407 0.26173701626732343 1.5885650870615546
Ni 7.7286455468516735 7.291602207472752 7.7113021719010355 1.5517456042403597 1.8406656086803783 -0.111088368738099
Ni 4.897512534440651 8.38383245036722 7.372761397396253 0.3125330158732682 -0.06750174239639987 1.4478725223037774
Ni 6.649028158324602 5.332996771910352 7.5565841804629885 -1.3188314257419997 -1.505706145482794 0.38790413371541577
Ni 9.079070534664508 0.4010504915309398 3.801978302530178 -2.2568410785366613 1.9306444491333716 0.07419638080775609
Ni 6.140387498336087 2.3614418923342604 4.653907062297955 1.8573888349723302 -0.19979939822226234 -0.12439228493585673
P 6.8205480402178695 8.681667594725976 13.157767953420073 -1.2279539847341367 1.4075308852619373 -0.9300274059201338
P 7.871905539647896 3.188979576365354 6.346505438704656 0.571689415897609 0.7985442755757667 -1.9521134176404251
P 7.041072268946417 8.79416566661874 3.3789790170556784 1.5146358438722558 0.956326705936295 -1.7439815882930674
P 1.3937997630836878 1.4417864925051656 5.023903418016704 -0.664848710961113 0.42218465216484063 -1.0191886355678383
P 4.1641371369747375 2.0512552999162423 1.488811620150299 -0.43706491171078277 1.0301659605149485 2.1754021572338793
P 4.7243775350007065 2.5250542334065176 11.251436310732526 0.7124583424192762 0.25573503304761763 -1.2138008331622065
P 5.29669863883823 5.457099416696288 2.102166045612975 -0.02539478592402078 -0.3810531722318534 -0.9174236011131942
P 2.9194510008015264 5.451572540467199 4.50924574497135 0.7772020624545647 -0.2705286464170244 0.661329642064261
Ni 5.62829254070439 3.583488375035276 9.417292020035786 0.5794086389187376 -0.3542159974343513 0.3502307875343581
Ni 6.036002357935007 6.955536390549612 3.9501518003253344 0.31968865308144295 -0.13329215852864787 0.6208507081136081
Ni 0.04832095605830476 5.457304807366963 8.358119405586553 0.48800360754217886 0.25075737732736814 -0.21226076391406667
Ni 8.343986660256157 0.9080704324090336 12.990874963180753 0.01904467533627688 -0.7398331348878032 0.5830981719551829
Ni 2.045849790901644 0.2732442795151404 10.21666877592934 -0.19152841646272176 -0.6862793700310632 0.24644203778146587
Ni 7.061219226551777 5.335536147475069 0.18697552986160565 -1.6511822476721434 -0.6988986014569706 -0.23584395055064541
Ni 5.714948731850336 4.720204370010162 11.77416957151126 0.6408510624949351 -1.6732014322557118 1.2006023321940613
Ni 5.821079692952157 1.0863672728406382 8.246539056554125 0.6175082740039366 -2.214225043638348 4.069245635488818
Ni 5.041360691430171 7.051071060232487 9.741909174256678 -0.7595812640490079 -1.0025217164351188 0.23566551599125218
Ni 4.440761026616449 0.9943615883175513 3.5893522786830636 -0.1516140967662873 -1.335517885258745 -0.6141658398942648
Ni 1.1150005995207302 6.651315463520762 1.1593201718766915 -0.5203905085133167 -1.1757868158122784 0.49375336554176263
Ni 4.467835251387322 0.5496767823955404 10.07147344285898 0.09790837971271525 -0.25315827345937697 0.5665299831838566
Ni 2.9842144136413693 2.5445756830602746 9.915880673882645 -1.1160032679957426 -2.1767111058532898 -1.2618287831047108
Ni 1.1718844793582917 4.497775609608077 10.48515452704251 -1.164253104141066 0.5221270315884492 0.6579573831579185
Ni 0.17826136386121505 2.029026427785398 9.9595373945287 0.7500931220529146 1.1118249682483368 0.006179389337834519
Ni 2.7963192937315116 4.905476090899118 2.193482737795341 2.559265802331334 1.0496428382926373 3.5618199146662852
Ni 7.1460735813595235 6.846641991333246 12.042477939772484 0.9243326695282016 -1.7379932319201168 1.2113670269097332
Ni 2.2214774862084234 1.1638649072623677 0.32466663470064655 -0.2249645846339803 -0.34951807773804966 -0.6969432775028126
Ni 2.5554893964248095 5.880736346843839 8.804620985350086 -0.6636852867806311 -1.1707266276805515 -0.8465634837675228
Ni 5.919825925849234 7.42146512697718 0.9986495853648829 -0.49402615958717494 -0.03792120052580566 1.2095729111237878
Ni 6.691310628665044 0.9208756071316988 1.1993480128094904 -1.0970035869647883 -0.9075932452863337 -0.540303959607792
Ni 3.6490453427390928 7.004316674835063 0.1647251850697362 -0.420203874289386 -0.8288935772915854 2.1129336063860125
Ni 6.250644944730572 9.175156024782378 5.227703244588513 -1.2526445455022812 0.6992199893521313 1.1990792106813157
Ni 1.6374771219611195 7.8745382746083745 12.89580055531898 -1.021073254185061 1.7620749554596686 -1.0044744692861152
P 4.392363515853619 6.242849435184476 12.103351066590939 -0.9974671847303467 0.6996264807619306 -1.253709496431686
P 0.9180542861917825 1.3207086921419071 12.214699884321877 1.4165230614582185 0.006170904697402275 -1.0175649839214862
P 7.967010756110269 -0.12048590179412996 8.90628189858284 -0.653671611298371 0.4824189143655498 -0.02862100617080232
P 7.846819870006746 2.14430660967186 2.4379471163790436 0.9512356645666328 1.0135201244281513 0.46848456367264474
P 1.4535497763711311 4.508754674549644 0.8627015004447117 -2.3637874000819292 -3.0628001585192606 -1.385551809887685
P 1.3488378780848862 3.3803476657975438 8.686017208974508 -0.16515738266836072 0.24984257882258262 -2.0619974816577775
P 1.8190144670196104 8.565659209552573 1.4131130212848961 0.8735844924410567 1.7175946136591063 0.17161933624362058
P 4.411474184166026 5.064401790304141 8.328686922478742 2.0052686615071655 0.9797376286610675 -0.35017422326480985
