# total energy = -381168.90369098465 ev
CRYSTAL
PRIMVEC
9.27269378213077 0.00000000000000 0.00000000000000
0.00000000000000 9.27269378213077 0.00000000000000
0.00000000000000 0.00000000000000 13.57152464839768
PRIMCOORD
 96 1
Ni 4.336134214048251 8.301091763823202 12.078521133896839 -1.4715647237143947 -1.1476244944454492 1.9046336268919069
Ni 7.671652028942594 0.7020291645673515 1.0045628576793442 0.6050304532519 0.11993913426050955 0.7664620503292413
Ni 2.612980233220063 1.692034820087195 7.724002876915008 -1.255723184427605 0.8669872988395132 0.6540871015692349
Ni 3.628878031927354 0.33147377078560347 6.348460863342515 -0.9025785656805616 -0.3642476706387404 -0.8165833924656647
Ni 9.345391823957687 2.0719370893239257 7.507075621191847 0.7466241896677076 3.5299870864264045 0.92429358876015
Ni 9.437006039726757 4.977053543981703 7.673788457618018 -1.757969160821411 -0.12239145245574405 -0.9642554738650684
Ni 8.856016130493256 1.055946563677597 4.020985020880203 0.537778622082777 0.32857001473147285 0.1033506337742091
Ni 4.367188465931917 2.274675268835565 2.7441211612926604 0.04974416130266271 0.3344583551914498 -0.7664486805928026
Ni 7.595866301667227 2.6924472199752194 5.611961386457354 -0.30441655741372087 -0.877957938918404 0.3238052463529778
Ni 2.332768696142573 4.520512459630461 4.188050219674717 0.49674715806276387 -1.4606149095711103 -0.1276853538648317
Ni 5.688677164931268 4.4470170877493205 9.48015837534665 -0.3565970960720181 0.6532918593614491 0.4187211190962724
Ni 5.028897175597582 1.50171277771268 8.080241231309362 0.409004920249773 -0.9646545090756999 -0.5699626630144894
Ni 1.6785430504572354 2.3629884055749013 10.24285043070174 -1.2189795491496684 2.0200715308479533 -1.001622858769933
Ni 5.755199470996787 6.887200670072959 9.994722414531234 -0.6841330131120217 -1.0226503688641937 0.38283674649483745
Ni 6.083119018209081 6.44702589046184 2.317201697616954 -0.07115270888542585 1.491052400125361 0.27210164733109915
Ni 3.417803700596241 1.0048540202679221 9.994002853484302 1.127853225355793 -0.3731562859822799 -0.8965411012372302
Ni 7.597145933425945 4.0016588722460025 2.2772206233121453 1.4872037158032323 0.37312183319991865 -0.350920357402215
Ni 1.7306926809719383 6.141824443313737 0.09441364205861523 -1.0398363937251769 0.6931313599558901 -0.029401593090568716
Ni 0.6968197651322237 0.31633887979589903 6.4592992281128465 0.0853930208545239 -0.8141069059007141 0.3080662383511662
Ni 5.968406521925762 6.97767434449187 13.654446989998808 0.4723335051050898 1.2423719599316798 -1.1530014424866464
Ni 5.9982367782141335 4.742306025114311 13.37868727326451 -0.5922461570030381 -0.9199219420550158 0.13417276136138828
Ni 0.8511600460826185 3.9655046387152724 0.6614815286650236 0.9383690930166098 -0.31398877448318824 -0.9402069175562968
Ni 5.767133428050915 0.29361614338475406 -0.11823333815857405 -2.784373083190766 -1.8121898698381889 1.4121084773302905
Ni 4.582212964866028 6.141787352538123 7.887580615532321 -0.17181114053945248 -0.33228191636542126 0.007944194547741156
P 4.517647197214201 5.1469292962984445 5.5461938776756 -0.3054758519161707 -0.30228279890016974 -0.18671042624878811
Ni 6.81607910783118 7.51331150784212 7.633738765378322 0.5272170445168468 -0.6580406869003441 0.707137444426995
P 6.038155725469787 1.224607593092947 5.212985185860606 0.40681408324604135 0.6535127171230035 -0.01050449907574965
Ni 6.585661937016839 2.046696816517912 3.1265261306140135 0.5805172986018842 -0.03041332218453472 0.5712867811425516
P 4.3434410968444075 1.3221748783482283 11.91552757499546 1.739493470614727 -1.6541261607918158 0.3314486218308485
P 1.648842611883517 3.6167586209951494 8.252993373275048 -0.7067839177423182 -1.5535263502898664 -0.5445154265859784
P 3.8305962151095807 5.402957647674949 10.375973860730959 0.9803724340315889 -0.27834557135828186 -1.1065344092733589
Ni 4.644340014021169 3.7274745862059517 7.2532745708910245 1.088179818025571 0.4357803885714044 -1.600267205989831
Ni 2.7065231693211156 1.3939548018571746 4.016927290027922 -1.1100244247044884 -1.9531074061225782 -0.5963210984033601
Ni 7.229975072919066 8.485915098712793 12.187201742795766 1.8877754176839876 0.14337679645815954 0.20830949257580253
Ni 3.596868692571601 3.4716409614014268 9.133365186962656 -0.5476794261362568 -0.5739123916908567 2.09956361283701
Ni 8.082033643040958 5.481488092345827 0.29178756814693413 1.0408368099652332 0.6491035323117142 0.188483716099127
Ni 0.16613236578779675 4.470375003692872 10.023968491103666 -0.3040735722520053 -0.622002048109232 -0.4300303734615045
Ni 5.279899726878252 4.430826964193368 2.059818605661112 -2.4062753940428108 -1.3713068699328963 -1.1922729863927595
Ni 2.7513566443457576 -0.5030566260500258 0.3017455141301737 -0.7116116781482648 1.7659339241944427 -2.257462257060428
Ni 6.892430469434675 1.6614627482865238 11.994052456049998 1.8036666628585258 0.3896059468978709 0.6898282637245862
Ni 3.7884889120926415 3.092313599186729 0.46487630890132586 -0.5959894260955543 2.388974440870518 1.5702261795430505
Ni 4.216905915833804 2.7071629852004744 5.128312508747882 0.6499702511873838 0.1284674834464949 0.5233585900027051
Ni 0.460401306823375 1.5735483373850485 0.31752763915436 -0.047873683752827224 -0.8221976533286485 -0.4935001118803758
Ni 6.16777871355034 4.261989753593848 4.10796474423618 -0.08407944424942294 0.7416488479403034 2.276295073496215
Ni 8.141286157085935 2.067152379269589 9.590331887964084 0.4673908163878338 -0.2600202906865328 1.6264590338938507
Ni 0.6776271432902371 5.325818107089633 2.614933989825584 -0.4810814265010489 0.12198598948720926 -0.854677885344541
Ni 1.9296197832891357 7.9840398138661035 7.663677512185368 0.35840252471187306 -0.5750015109899774 0.26691933179921123
Ni 1.9125302084245202 4.624644812169599 11.629779312388042 0.07572644429903734 -0.26615391438809644 -0.2494502284801704
Ni 5.523159578749289 -0.13312343002921942 10.510196104987772 1.5335838457296684 1.1263447591310667 -2.1459859088552915
Ni -0.17493215230245768 6.719466910047985 6.0213869858142415 1.1724037582726583 -0.5395516548227999 1.288206501767291
Ni 2.618358395684239 2.274693814223373 12.37672818803334 -2.09195006215581 0.18705264007955527 0.6197253362599133
Ni 3.381797830167971 7.830298548941891 9.97946790579017 -0.9964667684902904 -0.9598439750609341 -0.9755462162875391
Ni 2.346510828507934 1.756266770758487 1.629003683276439 0.7203811968107787 -1.1172525670218112 -0.17259506989332857
Ni 9.547258370242371 8.0272783855393 2.9397008211106033 -0.7691753354953463 1.287188344915422 -0.7435072413052807
Ni 3.786940372210715 5.777769207958519 12.430471794630098 1.0364589926125118 0.15715045320348417 0.30811380375965
Ni 0.6295027891991533 2.6497371918545367 2.7013035699226937 -0.8408705471478035 1.1469313250331665 0.9465488006139247
P 8.118948237471797 6.939999389160925 1.8849893802609856 0.24441395160784357 0.09404066922719288 -2.1535740056151944
Ni 3.99643834557819 6.199166782414541 3.5337670832871764 -1.8587142386519733 -0.43897858379372784 -1.2905516049606998
P 7.065366210739656 6.388663555031623 11.687837503458216 -0.9685296757603901 -0.8387828113808393 0.131250959728903
Ni 7.062102222485535 3.193923778984046 7.935827369182935 -0.05556925262487204 0.7956168175163266 -0.6677753976896047
P -0.5193682218961164 8.286023636229604 8.137283135127685 2.2830190224836104 -0.15442225563904372 -1.7567311746492518
P 8.89277308912773 0.7344808114223134 11.285673350697355 0.07987723324261727 -0.44456636229415053 -0.10997328129704931
P 2.893887222340334 4.981624982076254 1.6723108728845237 -0.07849089441805192 -0.5059640486753416 0.643388227094492
Ni 1.4652525452831258 6.632489041230788 4.353474151648268 1.126273282463183 -0.1969552439052479 1.0072615451129492
Ni 7.858422629551972 6.512481836728426 3.8680884983706223 1.1119062151082335 -1.7120127486959547 1.6745564036217095
Ni 8.068300783369502 8.47335987116711 5.236830845503495 -1.3230079257171925 0.9753186736577655 0.7373301659602914
Ni 7.14440665357524 5.474320299958226 6.356019963412853 -0.43997308649651323 -1.2959591491295166 -0.01947970599116645
Ni 7.836437072306175 8.144030874481446 9.965923281804958 -0.4264526834125752 0.6427053420948544 0.763886062071949
Ni 2.2080602358310086 5.551459840543542 8.869032210925953 1.4508933114079723 0.8907424922775822 1.3685251934227014
Ni 2.48528596547149 8.309307370621926 2.3437614747654716 0.1662534439460169 0.21162904386733875 2.8753991339613507
Ni 3.7778624048789418 6.862526031595075 0.9078820419612615 1.068676972105953 -1.0798970091914886 0.9926556222743164
Ni 7.577330186553626 0.7189759399458493 7.574322124651248 -1.7253899413338094 -0.3011420004275072 -0.529780434368649
Ni 5.7722334096979795 6.8236827168322565 4.659945957861184 0.6405168190839678 0.32963316588866454 1.3886870130825568
Ni 4.685019322176929 9.294670188304162 4.030417205119099 -0.5998046860765863 -0.2914134602858336 -0.5754524824844669
Ni 7.56797403840474 5.670882865329967 8.966163679567758 0.4539079514100505 -0.16814886119651687 0.04858716488008406
Ni 5.615886517786812 8.561719371375967 6.124177579545506 0.6475624130768396 1.171505414828105 0.022555516703012767
Ni 4.889602767775416 3.3715978668738433 11.928800509049292 -0.6665273842151166 0.9520486473862313 -0.6564576586839403
Ni 7.213070951932526 4.093783086179781 11.318827867750223 0.7590197351185831 0.693564847948883 0.005233480484797438
Ni 1.8724721707603105 0.031155324247217245 11.591791867272539 -0.6664597642019747 -0.07864490349741295 0.6935918445320765
Ni 8.961632114056995 4.302131245503191 4.754430999662858 0.48465680255713306 1.0123921814712953 -0.5137532057024572
Ni 0.954735109718141 0.44116603058943127 9.390422807362478 -1.1148133614526994 -1.4995861486279853 -0.9347651777154353
Ni 0.5509027993239971 6.896250819323022 9.551585009217863 -0.1095917295879145 0.5829552186194153 0.08612887057928392
Ni 5.764843072656689 2.2148756658502666 10.160267818794921 -0.3412995464829993 0.011924005131095592 -1.6076498716071475
Ni -0.1163899266105081 6.196830063550796 11.887094713678385 0.5319152213234645 -0.23492169584669217 -0.5235439665406338
Ni 1.2532880353372529 2.450912089170281 5.242408370886602 -0.8220891527752422 0.9773287621092587 1.0654587222789715
Ni 0.11297757525392725 2.8560268131313133 11.855093719747146 -0.9878348038469051 -0.04400674459825324 0.8853454896317269
Ni 0.14619700116411977 8.13415545547395 0.46759042640695414 -0.17756089853903612 -0.07686415744790634 -0.23397758676586802
Ni 7.0399868475250855 9.04549435772253 3.1672406750066084 -0.4601233361921431 -1.6004374130191084 -0.6825656686249019
P 8.103333020937876 3.2253396659299587 0.2710000429535023 -0.6259183524445027 -0.9888133657100907 -0.5458120339102148
Ni 2.2920986606807157 5.1591877976392055 6.627885148707575 0.7089300175510436 -0.35724989916466865 -1.5938875277157325
P 4.738142585551527 8.429639119410918 2.0229448110834505 0.8883732207144571 0.3397229460244988 -0.4699572915634293
Ni 5.872563957736579 2.335179596557549 0.6064017268767352 1.6687696217366033 1.8065977204623918 0.8996796468662117
P 4.719421016559851 8.275248765913444 8.232717700785104 -0.09521283515842312 1.3368044652806526 -0.20964698044030344
P 1.816641280765818 7.113732582141628 11.487644678423154 0.21955986867864125 -0.09741987011207094 0.5331272393536948
P 1.20578402446833 8.69008127308561 4.720990883637755 0.9976325066636174 0.7102248251030672 -0.6583193944830275
Ni 3.569421518616494 7.181933245803726 5.924608806810169 -0.4032734170826345 -0.04173620339652167 -0.7469769450214361
