# total energy = -381169.926647858 ev
CRYSTAL
PRIMVEC
9.15773743127417 0.00000000000000 0.00000000000000

0.00000000000000 9.15773743127417 0.00000000000000

0.00000000000000 0.00000000000000 13.40327440895163

PRIMCOORD
 96 1
Ni 0.05882564301430137 6.906637462230509 5.226392257967075 -0.8728131614926711 -1.7558896525845633 -0.24982818064487938
Ni 4.597632986127247 0.06421039270176777 12.259264553644659 0.5392518641941938 0.5074848561952421 -1.3526234345907802
Ni 2.8909420673273085 3.6614466327258817 3.384608226174675 1.5241900632195942 -0.15542472876162908 -1.1879838720991023
Ni 1.4124070221898493 2.2221891239992106 10.3144230064052 0.9645205546009968 -1.2270098756533128 -0.1964759902759842
Ni 6.064363707545074 8.78590594541872 1.3312520676739332 0.8167008918801354 1.5970558981413852 -0.7369043912767825
Ni 1.8203292842281207 2.2569152648408304 1.436495535077454 -0.14144718353561445 -0.7192434836619097 -0.022997489336437815
Ni 8.829780666086496 4.190635655582912 12.836973101661783 2.7710771374128087 1.2568608975764741 -0.6399627463527108
Ni 3.9975813900021646 6.398685232783741 11.704851458442123 0.3658700367335118 0.0937979570887675 -0.277967876303889
Ni 3.5269560988651136 6.447349450197341 6.405438148463227 2.0605237253257287 1.8394291651701158 1.0834939825141274
Ni 4.322626127088785 7.0831894847214345 4.465876952703006 1.913999127267207 0.46297006161231874 -1.985190402700052
Ni 7.017858184941868 3.6849087563641283 9.554242874335962 -0.6971731341254316 0.5479769027720175 0.6516751496936326
Ni 4.1324840220533 2.320186073668561 11.009020916685621 0.8041731917267697 -0.4825428415379238 -0.49901024306532765
Ni 0.599904156550307 4.588191358699054 7.763874044321302 -0.863549476802558 -0.16632029262821035 0.5274664415234916
Ni 8.454002062896876 7.334780008809471 12.059113957225787 -1.52545684574716 -1.680901629113447 1.203150809647528
Ni 6.076580129455074 2.4574147710608805 2.29926430643049 0.13144147847315427 -0.5261279252177262 1.6407152867025485
Ni 4.941148879879888 8.285307379235618 9.327727151471144 0.008323432264030827 -0.3274544130697909 2.6533190699640175
Ni 3.0552868256457986 4.388827411936905 7.240569783622718 0.8395633983006058 -0.024087122856190774 -1.4554241093987903
Ni 6.262418097835612 1.192419850434206 5.467075000842965 -0.6030424762875937 -1.1460648632678132 -0.3739286453719302
Ni 4.052720127873314 5.707294362198131 9.140953262311594 0.6596535399134188 2.0396358261331256 -0.39892028232026133
Ni 0.4665491821474401 9.000453421061515 2.6024064825859643 3.057191039862599 4.4044843204897175 -0.5459961248965629
Ni 8.31191060685822 8.553336042250528 0.6912709042235253 -0.6768843019694084 -1.1309038392566588 0.9507605247024272
Ni 7.446943978489893 4.628064148051484 7.174089187778903 0.28487745893952876 -0.8570463855767174 0.14563062548934275
Ni 5.678758851949585 5.103570513309998 2.826281113937406 -0.48353914401292203 0.053972083341081244 -0.3830740593166241
Ni 6.535483516510566 6.0337493908695645 5.570320249910083 -0.5131839634625485 -1.005447631832662 -0.8957193766668832
P 4.287780935658836 4.454873015246442 10.920090127204352 0.5986152937541755 -1.2175279043048064 -0.6616050072128348
Ni 1.761298507892392 6.551930813175004 7.606612796008347 -0.8286853179355212 -1.0703245350117052 0.6074758294685989
P 8.342387557470277 3.1320927705927044 2.5646894246560343 -0.10860031220892265 0.366270357495724 0.7147558802042013
Ni 6.186537084382641 3.4070446832057852 5.227196307325169 1.0994055115380614 1.7508520901606555 -0.6294410208857806
P 5.819751379480593 0.48484542602599306 7.95903825263673 -0.33152241249157743 1.1391434535576317 -0.5810970823647541
P 8.439615257184274 1.9988135893449916 10.34038519239834 -1.0000585996066067 -1.0925902883884409 1.054172350731875
P 2.755334289483767 7.249255897701905 10.190683656444236 0.002215262483763927 1.1067521817111197 -0.4095962739768687
Ni 6.176115579035129 1.3686330366352752 10.073579087348186 0.6427991873602414 -0.6283079357226018 -0.18876808010876522
Ni 1.447334633257871 5.98561632223466 11.465321674725507 0.5551212271262828 -1.0467678307376875 3.315307171547884
Ni 3.809710403882482 1.2014860106222875 8.809865334206677 1.7298513195392724 1.571200627641178 -0.6968052092630516
Ni 6.7088028576415 2.4507937268023126 7.368021680392012 -4.311048631836376 -0.4906706128513808 -0.3727032576052613
Ni 7.880965792584762 0.3716365584895501 7.100264086408988 0.1949436127918578 -0.9415487762961721 0.7222838131501302
Ni 5.717468608631422 7.5372117976554645 7.402065569785135 -0.9644249095633971 0.029396707994562277 -2.2487549590944176
Ni 2.942994647639484 1.2470915436896048 3.368993367854779 -0.3804363645834609 -0.050462784636242125 0.538318296636331
Ni 1.0517478437179284 4.344549750816326 2.2264309880387247 -0.15856198883903017 0.31048024710929756 -0.5655125976629357
Ni 8.168537067560646 5.266349298505091 3.012989067386496 -1.0603563680553996 0.6308492140872167 1.189352984532487
Ni 4.515808600995424 7.455726248813499 0.3608881219110138 -1.1099331505422627 0.11646583099992844 0.21321258630437476
Ni 4.685300007824724 3.3759907951272163 8.81396616908771 0.2998927014014383 0.5499031732604529 -0.19529791080748302
Ni 4.381785111750405 4.842849724870935 4.929884862676514 -0.18495616256184277 -1.2610973042553248 0.23694412559335967
Ni 6.587188102795321 6.3103405385065505 0.3291199303024748 0.7432449887828296 1.2345300952897578 -0.013738689742331176
Ni 2.305689375105195 8.032782765916085 4.807768263811843 -1.9500861027977512 0.37513937785057977 0.37747728195513697
Ni 6.709553792121725 8.172355844124716 4.907408111600124 -0.5015049844627234 -1.2535765703982475 0.1941933648893946
Ni 8.500788944109912 2.486563849726196 8.279604856054691 4.701781236139522 -0.23427274940878365 0.5744176134620493
Ni 0.4468920984669186 1.9492335981750206 12.488260191841732 -0.24606202873422786 0.9007165727711585 -1.1237636286674517
Ni 0.683942882625038 6.865418485456212 9.6799117596016 -0.995416472848905 1.299243733418059 -3.0116640019650776
Ni 0.6800032239251262 0.37528133803991004 8.84209965465721 -0.14892497996989837 -0.20880828658909198 0.026236822209341912
Ni 2.405215666947686 3.7401848602987324 11.760904138522132 -0.7267757874832128 1.944936697386328 1.343149947882706
Ni 7.744112562432554 8.093498565963538 9.664833544702937 -0.22346434593936998 0.6770725067208145 0.010447677695885232
Ni 3.1443732966656515 8.215726889226486 2.6280600528232085 -0.5411799344548421 0.12485379795330756 0.30250597065456936
Ni 2.723657675250865 0.30664958964237904 10.589177111886903 0.9537795140344091 -0.6228703096467982 -0.13282833151835188
Ni 3.590822160634486 0.46653819286236364 0.9889779631349334 0.22156558625476036 0.7296345970882467 0.2921644795192452
Ni 5.5941505145983905 1.7483403092397303 0.0264109151337638 -0.3849975015915821 1.0229609581260768 0.2902268961769002
P 0.9758851457400852 0.15322543336862315 13.383759633021254 0.24593861578248608 1.70907166378976 0.5202017895412783
Ni 7.396860311753917 0.49679077890410733 3.186963186753236 0.07875828914682564 2.260768438615526 -1.0490018622745287
P 5.182675050385397 7.259228673908793 2.4262473270365215 -0.6293574600330387 -1.3961450120224987 0.636723927700439
Ni 8.910606857823874 5.893352116280198 0.9177609854231646 -0.659630142874651 0.38942751233847767 -0.3398211621652599
P 4.438782870346989 3.4279060093759357 1.3350827492968367 -0.5451497177358676 -1.1179279958222812 0.7464293000480822
P 8.108416520454835 7.705219650999442 2.940450628144283 -2.249505206996881 -2.0258102331039436 0.6053909219151123
P 0.34380527825965357 4.17925258779121 5.755768098670406 -1.3147289735378518 1.9521841229773607 -0.3484886080322708
Ni 2.0590165560888765 5.42148137283448 4.957214298887919 -0.995088657195841 0.18705572540334883 -0.8122459414325753
Ni 8.729082183835848 9.147105430406901 4.936091061423446 2.467508015601047 0.8955185735099868 0.7257715145884146
Ni 1.8288459801623786 0.7400129624064165 6.681478916072633 -0.49582567468975897 -0.27169001371497725 -0.9781677130707863
Ni 6.446827459156209 6.093384577884498 9.103611671621778 -0.14563782457819432 -0.6765719129353122 1.1381931738292204
Ni 2.9263275652735166 6.0184926000884085 2.4274131070283826 1.1698262273534692 -2.254149390637111 -0.6468949546961698
Ni 2.9205032441829917 8.464954717023083 8.290917409267152 -1.3344858444498051 -1.804778664975782 -0.9727717388661958
Ni 8.419495707756784 2.3868452453948668 5.508799484730779 -0.9200993481731443 0.165097990185335 1.0788135463193225
Ni 7.560170245727707 0.6501911250601974 12.281635074965312 -0.7989793062306563 -1.5342052813637514 -1.5269064337094929
Ni 4.541102272146414 5.199085716099579 0.30796738807779805 -0.7505600343870041 -0.9273442026610158 -0.4903314843444071
Ni 1.928793527932801 3.0030510905823493 5.366483664121813 1.3446581569971165 -1.049452319548386 1.1004190404042404
Ni 5.16014701597865 0.18467951457872667 3.5275943931733047 -1.245991816072454 0.5160648845547692 -0.000775958934076083
Ni 0.13085308050045916 4.078654840653764 10.378919120518953 -0.7986088102651149 0.8588602988570048 0.15418134327283123
Ni 7.253724873632999 2.8920409958349547 12.097245860667353 -1.1221098951141126 -0.7011663144452247 -1.8076572720751578
Ni 2.542499310765388 8.135688262919588 12.595191430278247 1.9014128059617639 0.45983897218250486 -2.457203805461562
Ni 7.058463593299396 4.028012551926401 0.7087420359475872 -1.691182699324481 0.7508204871372424 1.3103038478869629
Ni 8.154873723115578 1.9471090030602378 0.8609958333607 -0.32069395441750576 -1.1635949017317766 0.7043012605297806
Ni 3.905784228663452 2.1402273728039307 6.256327286581983 0.45747612837728313 0.18727838293711616 1.6758560962697395
Ni 1.4196782658154414 7.410963227602044 0.7972204331932088 -0.3785905696239738 -0.6165626222612156 1.645449458953424
Ni 0.6178688903290535 8.800228646968376 11.244557011050704 0.1605903321229686 1.7629966959429895 -0.9486632758537662
Ni 6.315130035252374 4.99351282326923 11.538142172284681 -0.03621913023303439 0.9504743609205758 0.8487399225935512
Ni 2.186684575464674 4.50540541112304 9.369063347286255 0.05322954874810188 0.0316425666059455 2.096058942117861
Ni 2.7385298410543433 1.6733201231177495 12.693504321893545 0.20203651508289724 -0.6078895199672498 -0.02028574683222958
Ni 7.864976382798509 6.896142694982488 7.479724100099223 2.120483650819129 0.674916122499444 -0.4551960740938548
Ni 0.895187162328599 6.961126000734633 2.8973726306445515 0.9904619570571073 -3.5757390958505386 2.560946275357551
Ni 0.6521334811974622 1.9834652211881998 3.804746910122947 -0.2563083890525844 -0.2044849766233898 -2.0789117409146134
P 5.280699473267438 5.267695485926958 7.249295275973428 -0.17875620439871798 -0.657274755268597 -0.1726603759136252
Ni 4.078013799024303 8.949481453781859 6.025897546682432 0.6810654299302915 0.042999386379661435 0.5613684935875751
P 2.0202518529816564 5.405263019609135 0.2508881256168978 0.07977078957174004 -0.8743182852832878 -0.060607072159095624
Ni 6.008822029221123 7.670850661922808 11.329868662646792 1.2289759982407478 -0.47499973908334325 0.8300143211595898
P 4.590663947841258 2.36813598755219 4.313790741887309 0.0510929620210733 -0.26534067445818177 -1.3901805669089478
P 8.150826003112414 5.87700555472896 10.565600516529111 -1.3247603896319249 -0.3126302035727648 -0.22243693311612012
P 0.49775600444332324 8.034788310442538 6.98506249517868 -0.1184959740560798 2.3823055134907745 -0.06816971499770196
Ni 2.109136853775107 2.5812914870852994 8.14712719291043 -0.873004965788503 -1.0260257130943296 -0.9170567046920786
