# total energy = -340867.74291688803 ev
CRYSTAL
PRIMVEC
9.32696688183411 0.00000000000000 0.00000000000000

0.00000000000000 9.32696688183411 0.00000000000000

0.00000000000000 0.00000000000000 13.65095881582476

PRIMCOORD
 96 1
Ni 0.4669853742065895 0.6490067284140645 9.039964885162941 -0.5700117710848699 -0.9935678496759405 -1.2947849263157571
Ni 2.4145838313933226 1.465807455806552 5.075017181917742 -0.9854076824626513 -0.7004160665427616 -0.07475970951039383
Ni 8.18389109846603 5.428164127661538 7.8684540123830295 -0.6624820105011494 0.36500228941657786 -0.48953444236440846
Ni 8.80796777719363 0.23619237765727996 12.09636062274423 -0.5172177672122898 -0.16367719857840843 -0.8035908368607386
Ni 6.470993636937674 2.631631676899592 0.8870635667441432 0.05869288585551827 -0.38654350592246334 0.3680030239161146
Ni 3.6809620820683784 2.628777625044282 10.1722166890887 0.6851915362835231 1.4279004500572248 -1.449856642613342
Ni 0.8209372371893175 1.2823460179178356 0.725967262658851 -0.8575822034755295 0.040452451588091624 -1.7033399035123051
Ni 1.1915013608239822 5.873676026095316 -0.04543631899719784 0.08432575593227414 -0.2728922615531945 0.6289969913698265
Ni 8.501203837582045 2.9427326560952265 7.59678558362491 0.4303885281318717 -0.6420003456080298 0.7787537232124008
Ni 2.4299826536584104 8.68286517086921 7.20825212566201 -0.17725519437315926 1.4167259214976438 0.5188067089659646
Ni 9.299769412091145 3.8977207916023775 1.6159054005853688 -1.460956352070929 -1.2680248846130935 0.21366252935759977
Ni 0.17464931961127558 7.570754951850451 6.170287562293487 0.6259157813413414 0.6214446329438652 0.781359536266364
Ni 5.19322715974192 7.449308516530218 4.116173278315868 1.6085183902550297 1.792907624569809 0.582810465511435
Ni 5.49640021711725 3.690382318584271 7.485393618566195 0.6938476692966243 -0.22932928936057925 -0.7360492423653388
Ni 4.896918749966292 3.2802102975353598 12.290340081146779 0.33647821383495596 0.10477991002156792 -0.13578304327130164
Ni 4.553108098036761 1.816146984529275 5.752664227430174 1.5210823708285481 0.7474369153769902 1.5305810543476028
Ni 7.517031622809322 0.08334484305184443 5.56232881497491 -0.07283601012511973 0.45050535348640475 -0.38853508243119533
Ni 7.353082199565404 0.5994917268144906 8.392308701548382 0.7857136994700017 0.690417817679469 -0.9417295248484103
Ni 0.19915219421612798 0.8718680723563295 4.45883951141322 -0.9325100631326715 0.22919044978986977 0.651502114450878
Ni 5.7071337060678164 6.096254762942104 7.269094728497773 0.7304642920783936 0.5956898925772645 -0.08629110718876107
Ni 6.581182423273073 4.687612286943379 11.505546705884576 0.6690864031915444 1.012234315737192 0.2684457957460667
Ni 3.2822155954075547 1.6204952009709832 12.293166152101549 -0.4825636674735302 -0.5202758373123234 1.159770385779364
Ni 1.42329514091602 3.4257762691230162 5.763038612654557 0.048326455019529674 -1.62703418967103 0.15826836885801132
Ni 7.60392164595987 6.364405059805379 5.505649770139835 -0.9545202488551754 0.41696916940217216 0.29534030614406553
P 6.882005085002852 2.0913577952960445 6.391433677032512 -0.8887588861886501 -0.6976503308721662 0.8838452509371165
P 1.2887070093077748 7.147870274988509 2.901920647260978 0.7292548451513248 0.4920237844451655 -0.44493274449463366
P 4.004216099066198 9.27503429601179 4.839155911583545 0.342626492824539 -1.8187937483079513 0.5296963592952748
P 6.971301465600034 7.206499588591379 2.7269700666205314 -1.8601304022732095 -1.4745700861996218 -1.9400711417639103
P 1.5412905985027077 8.996969433389712 12.453673924578766 -0.0374314053735807 1.1133992547139921 0.10409136859497556
P 2.3878247635080796 1.9206463210877487 1.9916068175595913 -0.820251328235555 2.0408894960345694 2.365062924360243
P 7.533297852991219 7.927781915802773 7.098211638099484 -0.9535380874475641 -0.8981482978233499 1.23453857993019
P 2.641695474127956 3.8002073532126204 11.635312795632707 -0.542311476956124 0.4534065862935998 -0.0015033240184038625
Ni 2.12092428020236 5.692947389492893 5.638678432891191 -1.3585932790209698 0.22857004259705152 0.09392728357778019
Ni 5.416533400002807 8.825912861408062 6.747273318105158 -0.4462272949363411 -0.22422822068858805 0.21086156957369492
Ni 2.160936967977784 4.013300564775585 2.3175917704503357 3.099853611728132 -1.0535542575319017 -1.2901515413088038
Ni 2.0843066083593964 5.6459488035487535 10.087184597734158 -0.7836979545915536 -1.0377558570470644 -1.9006867264290168
Ni 8.832143275262137 6.174265513653911 1.6886781267156645 0.3841824618894545 0.7601137395137103 1.6310186282400752
Ni 3.4406154733772585 8.429069075984112 11.965256113253496 1.63020076032447 0.39127613551144225 -0.8253395413917398
Ni 0.6486989385080996 7.339446174034479 11.156027950244425 1.163871552431931 0.09216890612577676 1.5228371487361259
Ni 3.3649737722446966 3.609060494641631 4.419784703133026 0.7729173190362818 0.6869671401267072 -0.5620472648221546
Ni 4.181764239973652 3.321985782044946 0.8760689382244067 -0.8431223192964576 -0.3816980049047039 0.8949058796266522
Ni 0.8408801577024672 9.211125919173282 2.455302570559096 0.18848140210628186 -0.7838316519559404 0.7242291098019592
Ni 5.005577913738713 1.4518449864359668 8.291824624217723 1.59881350426244 1.2057877330497426 -0.6165626222612156
Ni 7.04024640453615 0.10529772492061269 2.967090030017259 -0.36838508984588164 0.10969148839057237 -0.4735864036755844
Ni 3.5272536684229263 6.104565090403154 3.4964196487220462 -1.716239899403425 -1.383042927422902 -0.1685995755806903
Ni 7.303080330296395 4.125168205143519 5.7954050530084675 -0.11207721501392957 -0.6009184879660554 -0.3057558450504347
Ni 0.6456723377661123 7.591311586782161 8.657534061608306 -2.708265601403226 0.6629381242019614 1.0814337575509891
Ni 4.338280070640177 1.5102131449671101 3.3465054451901235 -0.6933763860871607 -0.055459723630201255 -1.9473267948850592
Ni 0.9743788995829337 5.145790206355951 3.552662191508663 -1.2629307579196378 2.3150027744790584 1.0799142355826692
Ni 1.4839670602584751 2.752201377336167 8.94535026806936 1.1491324464495436 -1.4566104163974076 0.16681394443517722
Ni 8.517124969990586 7.665945975495201 3.901962696124584 3.060278677648988 1.275275652638236 -0.02517469949341471
Ni 7.351086228660057 7.10874364906359 0.2652971777046485 -0.7062622409108933 0.8813790487848111 0.36435925651594026
Ni 1.9476758710115667 8.449532441247348 4.712133815481926 -0.2722600272858343 -1.1408347252171256 0.17097270379855717
Ni 2.395053162814829 0.7650118112755132 10.260552392100596 0.7504055110870109 -2.265261441389873 -0.8207961449954316
Ni 2.9978736840971627 6.172829160759409 12.054725042737354 0.8700553962418757 -0.7488638776315039 0.5679931979929443
Ni 3.3140671871914877 0.6149409147005541 0.8665358454096606 -0.6544743097053245 -0.15765850318815428 -2.768173590612768
P 3.4150502572484847 2.6528785073780106 7.633930229094752 -0.969583056725569 1.2612500277831054 -0.23481139552107305
P -0.004248433398998997 4.919219527698468 5.4141746100870956 -1.4327091842997777 0.6160741126605712 1.4642327088293559
P 4.279249697462867 5.274399752215001 5.560172420239787 2.0136262894432417 -2.340313485329705 -0.6937144861528698
P 4.133823630377923 9.051522862480262 8.84614864868022 -1.1298373456653574 -2.838483491881924 0.07266811708868776
P 8.370141299442123 8.265996387623852 10.122568311863207 0.15328197138701344 2.3480201099453435 -1.5885285773966644
P 5.3877783612122165 3.4326502436895634 2.7462041376532773 0.3610798144337201 0.2506797300118973 0.29103705078302133
P 8.272711803753992 1.8701221416752842 2.0383610369723293 0.36859412053289425 -0.17127712241285342 0.3144870542758455
P 6.0587043944143995 5.352736946766467 9.369158314649196 -0.3812889423917434 0.2123723497912665 -0.36894584744535813
Ni 2.6985992988640546 7.6242264527867 0.4479490348710089 0.4402723629044869 -0.5260068262588296 0.5603161410636608
Ni 8.501707493791805 2.202059564808051 10.118036338672047 -0.6602634055832758 1.0882101570428742 0.4476390876822033
Ni 7.401862236177402 0.36717097309557395 0.4257695077078483 1.2768980187330075 -0.6542593654810409 1.2929632997259861
Ni 6.492231140449245 2.105357572534019 4.24479308383845 1.1685015950047746 0.5205180352301164 -0.39077399906404314
Ni 6.080538823804205 5.294079652263053 3.889226722894434 -0.49139412128096666 -1.0589903409458084 -0.26520800553505935
Ni 9.03826924259008 3.2212638670596765 3.97849045910765 -1.022823146996632 -0.9516061605321741 -0.3335373860390772
Ni 6.2988085019674855 3.140137909420833 9.75584876396305 -0.6385118728387972 -0.6002302036497792 -0.6124321450326097
Ni 6.273150016170239 8.056195595358027 9.215134649524302 -0.32926601235723296 -1.21145290175532 -0.17723873931292702
Ni 8.103278124003793 6.1018975778847935 10.145965940896641 -0.14002253527394595 -0.7143056800406602 -0.05482748936284106
Ni 1.132928009022196 4.618508789570858 7.676057340254487 0.1911304096933547 2.187952225984748 -0.5257168058222366
Ni 8.47810094070099 2.5209299073875853 13.235587132478488 -0.5283259613103094 0.740198488647022 -1.122114265989487
Ni 3.7729166482170746 7.1179586923088385 6.083672684664938 0.20962486895311638 2.913566903280324 0.7791427311207033
Ni 5.542344855807632 0.5617137802957078 12.865523866963528 -1.0920297878992806 0.20035938449079044 -0.04196374602629547
Ni 1.6451930091829465 3.4581874789177944 0.10960585090743516 1.1372230966064674 -0.21575617866183483 -2.1958704523905603
Ni 3.5606069018692934 4.93037458004798 7.975531322578131 -0.36117417391973927 -0.07582286066758555 -0.21865458325555243
Ni 0.4820036562243023 4.785862555714083 11.611082268459798 -0.4670925684211246 -0.8630049171529975 0.33676797716123286
Ni 1.0279063623202667 2.0413186181596457 11.52419411070262 -0.08929364146051073 1.0223107261365878 0.9365312684769227
Ni 6.269652403602457 4.913884502661745 0.30366179043813385 0.3288116984286337 -0.37620201478713916 -0.4961864004632873
Ni 4.993331606268053 6.614582291553677 1.3095798284156122 -0.41842209979861483 1.318108431533046 0.5767046097240133
Ni 7.043827959805558 7.709446948871559 11.6559804214699 1.3573604350551334 2.6601605183658834 -0.3711513397371092
Ni 3.360170384318276 8.378199798798294 2.692447231531498 0.33888682327644865 0.10828123830660706 0.3990048716142676
Ni 4.923994934724346 0.6229639715827032 10.579520667832028 0.931671112171144 0.16939250379563087 0.6673946173114184
Ni 0.3426345214100709 8.12814381761901 0.34431990431939935 -0.7497694201649088 -0.09490635966159784 -0.03921626518814537
Ni 4.052912192976569 6.792727358339365 9.68920478774819 1.1172906193485983 0.569036037435162 -0.3647379800115977
P 3.3953050684325006 5.287382890066607 0.3614899175888115 -0.11349620684864324 0.5650965931714397 1.0847954749343705
P 2.201565235565138 6.6743308411782385 7.9177339744180495 2.622224662552058 -2.1982415237258977 -0.8664522522716498
P 5.041915776576254 9.123769547680363 1.3618621410788148 3.278615986774437 -1.2662297403858838 0.6343209746859011
P 5.657047894097181 6.621167130147955 12.441061067311002 -3.126141341780068 -2.5677057055685713 1.8368467491549203
P 8.53720592961308 4.898373756794488 13.48159147925925 -1.059395032583395 -0.06985944399529903 -0.5251452495894826
P 6.685364642958734 2.1138824202325592 11.66051239466106 0.5919792764948966 -0.22599662544292046 0.18132679333937157
P 0.7235058761078174 0.7174834536144394 6.650269132105269 0.10102044297913569 0.2254680066329601 -0.33155223728824834
P 9.509961936964562 4.303891543873746 9.518718093440919 -2.1036817487704416 0.40568973983361095 0.5747611128443972
