# total energy = -340892.04834768194 ev
CRYSTAL
PRIMVEC
9.05552983171967 0.00000000000000 0.00000000000000
0.00000000000000 9.05552983171967 0.00000000000000
0.00000000000000 0.00000000000000 13.25368325570276
PRIMCOORD
 96 1
Ni 6.479711394631208 1.9336815754583794 11.18975315538947 0.017736498047814617 0.6142913097285356 1.6123740165556941
Ni 4.682243095894529 0.3549151839654922 6.004342272162257 -0.06369985215180642 -0.5631708369036366 -0.6796317828075585
Ni 2.845618687029899 1.4811133710493645 4.749444181292198 -0.16610354863171392 -0.14744531010057832 -0.3519693674920196
Ni 3.280148276412347 4.097971268520456 4.763930312044206 0.2903279405311387 1.3251653383798274 -0.43038621413902645
Ni 5.057359355362665 4.534891517725701 2.6264160089974675 -1.098478628848418 0.033787123752774074 0.9344494462472295
Ni 7.260841380671219 5.965855365674097 2.8704163493736505 0.0926756705588662 0.6294675032483418 -1.2352124660687631
Ni 4.952278989515131 4.710016405275293 11.509034830253785 0.4472979022927006 -0.6712021639829666 0.0912124557497784
Ni 5.562277576573179 7.840648831936809 12.360106104958053 -1.214833645302095 0.09529793867306169 0.4815704503223255
Ni 1.8072754373279305 6.411079535551713 0.46652458667756197 0.4475228738193131 0.6784591026556961 -0.3141103876627171
Ni 3.0154189231559863 1.9044322147476298 0.305394114620971 0.10002953982077613 -1.2146688375894565 -0.5887484282624247
Ni 0.46212903259428095 0.1778750518987726 4.786607169348187 0.5268059251213573 -1.691818790246583 0.6775728433960008
Ni 8.647587077427481 2.6093418078766883 1.5915681937333783 -0.06439970643230845 -0.5381154365969055 -0.5648466819441627
Ni 6.752862390445153 0.502098329283168 4.697025342465497 0.5509971776555801 0.9811599629298909 0.10716486531397673
Ni 0.8695273496468598 7.442287027903815 2.7936643968733104 -0.6010935800913391 -0.3530011511906437 -0.29079716685807333
Ni 7.404588858046586 3.847694540556465 3.9173913299206613 1.2309009831776028 -0.6263821794547987 -0.31475804854904504
Ni 7.5846218426566185 3.924820486430599 12.468574144440845 0.25104971175680635 -0.013573110698744367 0.21191855008329952
Ni 7.8371533974989305 -0.36216232432983053 6.710061429640398 0.3587830479797434 0.8095056596832768 0.801672022571471
Ni 6.70394441937411 0.6524183100653032 0.17404094065266387 1.3891580391817042 0.3514592606248206 0.4157226985895808
Ni 1.8734351368179412 6.620887101591141 9.16901715136864 -0.05110221799245393 -0.10603975057059803 0.36226535010138905
Ni 0.07643772562211608 4.953438097308003 1.3313593608692174 -0.7202374721440629 0.03130652342276544 -0.07678676724275162
Ni 6.554247459030644 1.956202677652693 6.93977395536351 -0.9925864595992777 -0.6013445197598805 0.7896235760473692
Ni 3.592654604006142 4.416146357663765 0.5547381230328849 -0.38638101220267007 -0.42303928685565206 -0.3527545823974763
Ni 5.748622265336585 5.517362149599396 5.0685664788349944 0.28340884481380224 -0.15690748395474266 -0.7780160737154278
Ni 5.239837332973287 2.8486341783972926 9.29279356369401 -0.2554756087386439 -0.7343140048417869 -0.9849402559079296
P 0.244928532163443 5.4810313647165705 12.370802496559147 0.10740989144524728 0.8308365599505692 1.2561934391958045
P 3.821994947461386 6.3042242858963435 12.720434684537441 0.808722244550033 -0.7416799582885549 -0.4213207615026485
P 2.420171793868158 8.429149591648939 1.4453802511222384 -0.5114608101238546 0.08304508944763762 -0.5112810900128808
P 6.20849828215847 7.602180514612701 5.667659491557452 -0.16612463167763647 0.6581034218174796 0.2235191104367054
P 4.778123043636143 1.1338700317879422 12.429118296282082 0.050918127006105866 -0.008573086380991687 0.7875556377747468
P 4.076953384245022 5.931000632121256 8.388944851189624 -0.42518924331911934 0.8400076849268759 -0.3273533687155523
P 4.864730129034783 1.2269699319325904 3.60676493027843 -1.5626879621844767 -2.5368131297547727 0.40009141981022706
P 0.22329849408489943 5.490195560703963 3.8372861147976614 -0.18918074216615163 -0.05204195619790392 -1.1032791355608549
Ni 1.4477890220043 1.0262812842323965 2.6464957404030454 0.5152591008240224 0.252718614818797 -0.4121108128686064
Ni 1.8941632441451564 6.2511498267242995 5.002483751346853 1.2734892501617745 0.3343058887739856 -2.5512336760554772
Ni 6.003779923772121 5.756410020819942 9.443222210831728 0.5093671608196195 0.17619872808418688 0.12115937982085585
Ni 8.595354782511196 2.4062443892944327 10.007670578288804 -0.2523380915509267 -0.32399525087659686 1.0945502403282892
Ni 2.3550172581672784 5.369494406241556 7.017188772632899 0.2650038599440533 -1.6419023650321143 1.5305008359289705
Ni 0.7363875196821964 9.101803388229486 9.395707846853616 0.21468454286421093 0.8834873533770656 -1.2574147131974152
Ni 1.7033360682140044 1.146004441494569 11.402912172945632 -1.42699156508971 0.18579614196463484 0.2640551228775388
Ni 4.0490351863901495 6.678425936871667 1.592642179547711 0.3767697143651511 1.1288294732261333 0.07687032809549342
Ni 5.414264944741229 7.724520719938466 8.225009881606061 0.698157866636204 1.0627189547503053 0.3372654856229418
Ni 5.253248572357999 2.933267158336197 4.696654971303556 0.7512519182477062 0.1162637422914514 1.2999119631296772
Ni 0.8968596547345548 7.354013725052922 6.681353589601631 -1.086394443990374 0.7781315162473695 1.6400439716671367
Ni 5.074193584948201 4.273132378188574 7.214880945577926 0.7080951803545741 0.8499313717984911 -0.19196319000729523
Ni 8.147930118933049 7.67383692058922 8.957064330359437 -0.36659997292100094 -1.9356848397707567 -0.12797537430142475
Ni 4.68534914255824 0.32376687869095216 10.398893002760078 -0.3080832076320307 -0.6331560078435226 -0.6116471872374692
Ni 8.17973313899997 7.103999607448253 4.7612534974850425 0.1415456567866917 0.5550623488638892 0.43202015019802376
Ni 7.248924303675756 6.253884596673107 7.080832845991192 -0.03638033840124702 -0.9545307903781368 0.041968116901669655
Ni 2.268781449483543 5.213105409500182 2.5352304478169847 -0.25818940812538116 -0.5967077923188175 1.2729639737859237
Ni 2.341569796664039 5.071775758536508 11.589258672814962 -0.8784924712656353 -0.48266599737934934 -0.6801578305143576
Ni 0.9129151087717555 3.3571383893420035 3.907039953998538 0.5615415288303297 0.23100770550426664 -0.7754881650872516
Ni 3.5134730529055873 2.6084181438542435 2.5082196140312187 0.687600402835332 0.27922386019817713 1.129013049991849
Ni 0.9601215847423858 3.0181718041640564 8.093838723783353 0.9802194533934925 1.2130793816151495 -0.5955186571067228
Ni 3.565551403818132 2.5437254401645863 6.965154793815549 0.13121367873306436 -0.49128664916882486 0.27660133497366557
Ni 4.162953749158331 6.850788887883556 6.359037406757696 0.1407918093398027 -0.39493147287584246 -1.3806973100088609
Ni 0.928218953849516 7.512856770324517 11.534468190777691 0.24615767377182768 0.049604293290688765 0.01950361725056641
P 9.170806524023885 5.7926593059360805 8.262173775215013 -0.3164958571757582 -0.1231805240159427 -1.3197372253857207
P 8.563406873970168 1.4692415717020602 7.984548442209991 -0.8853007524367205 -1.0688577206581915 -0.8351053625292519
P 1.5082346822966382 3.210366365069612 10.231233493838952 1.7770187212536943 0.047581606433705154 0.9394844375679754
P 4.094548278319631 6.220089360087189 3.758439618293484 -0.15011102985819952 -1.5593108181821274 0.6639318555737985
P 6.8004944763084785 3.930606969865326 10.290424963277285 0.2392457771433428 0.14023490839506816 0.9307753398297519
P 6.434605801535158 7.943773203383873 10.350264808637254 -1.3283650762640478 -1.3481173191903104 -1.0895980385293365
P 2.591602025327971 8.385909437657041 5.588905361455519 -0.9360067634320203 0.7792504603431613 0.858238863222922
P 6.831337610234427 4.134872551770085 1.6807126385348514 1.9150715343957794 -1.1172481961464371 -1.497230503911615
Ni 5.355068947538081 2.7347880598661654 0.5858483950829715 0.23563980495963935 0.7642182486003871 -0.3934674867358062
Ni 1.359271219853348 0.9136667177311958 6.895189055221289 0.23486770268030516 0.08369069345143651 -0.061317467962558915
Ni 6.968402106741516 0.6611759127722274 9.263396597850264 -2.058078606219346 1.3058805220082865 -2.92434393929117
Ni 2.833774054271491 1.5346858843511577 9.129640086317673 -0.1714038777987048 -0.33204614620553136 -0.45404807653234064
Ni 6.497740954128143 1.8856601018208858 2.57535006629776 1.0221729150071428 0.7025356839889256 -0.6663175821971556
Ni 3.7813808970627134 6.790352283120851 10.609136139774796 1.2075353118684686 0.6253375402403683 -0.6441832121919615
Ni 8.591460904769518 7.501935801588553 0.48772267599266816 0.7859250441498594 -0.5389335616228266 0.4549397351086745
Ni 7.634228033979679 3.9458112041171365 8.21928497577283 0.1896132017178799 0.4193510393707875 0.02460597147413827
Ni 3.2300983641373278 8.506103482460068 12.587791097596602 -0.6623927932214527 -0.01410455772218216 0.2072345143440689
Ni -0.06588169473031408 4.9577123072942175 10.311789674337616 -0.4138833313879969 -0.4923516000982295 -0.4920219846729526
Ni 8.578085887503333 2.3606497975982643 5.719441726651036 1.1278575962311672 -0.6758908277078877 0.20266180737172196
Ni 3.539996699197162 2.5540034662966917 11.16449184992857 0.9588209331130583 1.2598855433354108 0.8703112210064237
Ni 1.175751856335068 3.1414447290418988 12.695212317853958 -1.2375472848495266 0.8063542585384886 -0.6941073507159142
Ni 3.011869155540316 8.383736110545406 7.808301574539017 -0.10773513599514993 0.16484859317869027 0.6481907906894578
Ni 5.802312500523591 7.936646501563637 3.274043943887543 -1.384528767939809 -0.7301182215928845 0.3730593553930994
Ni 3.1064903846631085 8.082014918743099 3.4979917194470436 0.6696021664856985 1.131837663924838 0.3779382807519555
Ni 3.2715817453806535 4.2206374729129665 9.326444817358784 -0.4239589704564441 -0.12390608932805759 -0.07026310719162092
Ni 7.555915813723778 6.846161512241701 11.754532049678108 0.7570510414279865 -2.125324266740882 -0.46283379314477063
Ni 0.7275665282678494 9.534295483444776 0.34598462064260027 0.3982415110856819 -0.35744530300492633 0.1901608466912338
Ni 4.570624637652827 0.18496281494159103 1.5046903479987472 -0.022593826140115927 0.3769121534802864 -0.06112386389451409
Ni 6.015262335345257 5.700709458054672 0.34881809586439394 0.11631490724436096 0.21642646525598214 0.14407099431170672
Ni 8.105595517904334 9.07916456414996 11.055692378061252 1.8843579073620065 0.4028358153245836 2.619618849498095
Ni 0.09908832189016477 4.782596475274257 6.154480236798792 -0.1087355522352063 0.1845098190530435 -0.155416501231513
Ni 7.858941001793068 8.845830732127087 2.552340871056291 1.5930953708317401 0.0631457794205493 -0.0892537893615108
P 8.61102084877423 1.5737423836531583 3.592119422204902 -1.7615291102585275 1.2287266012341034 -0.4072082333606664
P 1.7591271862755917 3.2182265647900237 1.5102042599915568 -0.5361845381227798 0.9138040020827359 1.0202443305258622
P 4.706539081896678 0.8233631651368508 8.076489234561768 0.8118307082720277 1.4311487817911934 0.92022250401457
P 8.514624735843602 1.7238830649485837 12.449714192876675 -1.1584614371599533 0.3822698182477739 -0.4719776644275678
P 6.65154006939482 7.714070638743356 1.1908166354305485 -1.8408612696309523 -0.6387391583582548 0.15030643369845728
P 1.8094306533803013 3.2599906674519357 5.991765047056634 -0.9622973216974332 -0.39750360447839284 0.31605979807960405
P 7.086694490321863 3.8856100431248577 6.047218393862955 -2.064932653026702 1.1951960735768257 0.5116531286403189
P 2.53054058902067 8.555075786708901 10.323320080217801 0.5347539763238404 -0.40616359414623593 -0.413087832069895
