# total energy = -381170.3400936788 ev
CRYSTAL
PRIMVEC
9.23590753951452 0.00000000000000 0.00000000000000
0.00000000000000 9.23590753951452 0.00000000000000
0.00000000000000 0.00000000000000 13.51768426391897
PRIMCOORD
 96 1
Ni 3.302843688415432 3.9877785975840725 13.319177191004059 0.4506884160314884 1.226386640247017 -0.40068637308174865
Ni 0.3477393106543508 8.712139299753062 7.5747557480499905 0.9181705065815476 -1.3130364163267774 -1.1079495444533307
Ni 1.289776027448521 6.040948569441088 9.900974245630847 0.715976897095496 -1.6553692891702976 -0.46753711215771093
Ni 0.07140557258974531 2.553017292302092 4.7381785435606725 1.3642409642250506 -0.14027604604564872 -0.3603861308008051
Ni 3.0110536589471892 2.139387169498457 4.500807405385749 0.41467780226483425 0.9249944714819166 -1.5864966345683
Ni 1.724935050916559 0.910874764481131 5.744961743549893 -1.2490843389548487 -0.05858747062590555 2.255443941078819
Ni 6.094941685393083 2.036379091802154 8.072706936660488 -1.4926254010394358 0.6655704196184861 -1.7975435806799236
Ni 7.945614382661069 7.986437094345608 12.840015532857592 -1.237048233725921 -0.6042190130941981 -1.036946987992524
Ni 0.5387517341167462 7.702968617643829 0.7206806424339507 0.42876076272046154 -1.63657169684782 -0.21406490700234101
Ni 8.7742692503191 1.8565190267920393 6.828823210589637 0.3595908885930194 1.44061944028579 0.8221660287597647
Ni 7.534718088513231 7.321590284252504 4.191387875450663 0.9013385226258736 0.9260982460690567 0.5339985862150545
Ni 8.382325038609425 6.346223024035898 8.487172909103817 -0.0751983397097092 0.7251986728040801 0.28356388233442775
Ni 6.100150737291291 2.0583790237552244 1.9972382388953878 0.12879684176145562 -0.16563509363572765 -0.5099538865610249
Ni 1.9008975629106384 3.959285822573484 5.990537138464494 0.9669438193305088 -1.0279553260168748 0.6323965039696786
Ni 5.404899319310064 8.318597276024963 0.124350413026763 2.493915816170615 -1.1801522918698257 1.4266966595571107
Ni 6.350554664710118 7.0533425833100285 6.355988149163514 1.170313708512849 0.8820295378846165 1.1066611646592102
Ni 3.1378996142131292 8.45685881311038 6.814859441857544 0.7847989009652162 -0.33552073501769314 0.7347091833976767
Ni 2.6728254859608787 8.497164313968147 12.748744446565977 -1.3987063449917716 -0.4029093488749964 1.9197815382769388
Ni 2.716345082670731 3.8787856517494026 10.94382274128906 -0.22049266490555575 -0.3516497793690718 -0.7990677521794044
Ni 0.5045410086980359 4.119741245672011 1.5534658079800647 0.7093365089608429 3.1094551393736385 -0.17577295340067792
Ni 1.507789626840724 4.26393223545007 3.840887952008414 -1.142613157273787 0.214468827308979 -1.4662057733953267
Ni 4.886062972796343 0.684514675371888 3.390464744015255 -0.23977156773982575 -1.3718953954465147 -0.8683826365251431
Ni 5.12996482125003 7.989669662012935 4.6276847627376 1.2141690151349025 -0.9686993685690348 -0.04652873968915857
Ni 2.6678750394760566 1.8190397136662795 12.655986379147388 0.4768445056015659 -0.10281841541982292 0.03845521865240474
P 5.661398945758709 2.6258608957084175 10.914016620214774 0.5340983450177124 0.1605301683089945 0.2783116327965529
Ni 3.78929894281015 1.633361026854975 10.453225182326351 -1.0118023704060963 1.1812421824998947 -1.7294787666912022
P 1.2047133182596972 0.9002756368953445 3.6380544903819825 -0.05702809655858566 0.2367204396183278 -0.48755726403337973
Ni 8.950869039939025 4.1726814681552185 9.670821892852446 3.4707776659457843 0.3077330233814636 0.5227842055564739
P 8.549144002058776 6.925351375499091 6.3373473168121786 0.8524112007975513 0.6973870499084506 -0.26604644227595475
P 3.0055121143746275 6.816367665572043 11.513498141302225 1.0800307065558754 -1.5258255419404885 -0.6038680575126827
P 1.8851226326940793 7.835817912863378 8.961967830127104 0.3968438594072069 1.0373015431184651 -0.8651844413028196
Ni 3.7233360905814226 4.690335618493459 3.9295637482585484 0.40705756671541504 0.100603152936059 -0.5409945579169134
Ni 1.9108908149564916 0.23756324505343884 10.586212092569452 0.6998581371567624 -1.0805932639275648 -1.0406689169288013
Ni 4.74261085562796 6.738601323403758 2.189648978771593 -0.18864081050228157 0.1667542948418354 0.6702385145181166
Ni 7.597716214395638 0.31161859953963084 8.301737126662944 -0.607479943233657 -1.4507578142713726 0.9527369317025076
Ni 6.371363164580087 5.628648417334868 0.0405936611755395 0.06866259547372046 -0.4916206354694759 -1.0641173777597288
Ni 0.06560172824074889 4.573806172040106 7.128713131041441 0.30740855016250923 -1.0987221123177917 1.0043227741995995
Ni 9.081751086835315 8.675380387421734 2.7261924073761734 0.8704328341859525 -0.9395240325566593 -0.21519850638615196
Ni 5.0724528244944596 3.447847438064133 5.824716576628965 0.7718567389822514 1.6183960543800577 -0.44630879890655395
Ni 8.948282985805163 2.180182173460133 2.314186880723061 0.1700504490946039 -1.3693613161707512 1.1306212750192335
Ni 2.496068685911399 2.650631599947769 1.388076563030433 -0.13140162637415434 -0.03490452518666892 1.6088150955598421
Ni 7.299294803255564 6.3200022823000594 2.0539448645064127 0.2333162990327853 -0.05176581971838182 -0.6373402211281991
Ni 4.904784157543981 4.261484719930522 1.7888087408414306 0.12053228775981822 -0.04797781343085931 -0.2222775247201204
Ni 4.380563276887254 3.5074190422191722 9.294651687768566 0.29059816347338985 0.6116456445755725 -0.9974239901972369
Ni 5.993549891530443 7.1140132604719595 8.837416074314206 0.15346811925589052 0.805111130160007 0.1785713420814215
Ni 3.9706552248548563 8.422455057222393 9.262195784797834 -0.23060224253573186 0.3592659011534329 0.1642227866692333
Ni 7.54605054716412 0.6646131416302944 3.778895616465927 -1.1939159213128212 0.478876191319614 -0.6455623519276752
Ni 7.557863273011297 0.210459550549039 5.965921597473174 -0.774457409829892 -1.6967704778249035 -0.018765453532961232
Ni 5.754450715039643 4.951536321921161 7.698577867160836 -0.3340798888061085 -0.12945452995011253 -1.476099635470271
Ni 3.870307088553383 5.869640954887961 9.2928673104162 -0.5112425234654615 0.25989919172763626 0.41549387040822633
Ni 0.6719926318194225 8.19189909528096 4.975224577787339 -1.0879772150964617 -1.0416307666214382 0.3664770741898914
Ni 2.1664299070125588 0.9603034948868583 8.195245264612023 1.2914023829967693 -1.9640747037673592 0.1313455763252383
Ni 1.6427908885359508 6.225491239615018 7.4441480076100435 -0.39641165696579467 0.34504924333341863 2.631653412065126
Ni 7.765883620357648 4.991112186076873 5.6307375796387245 -1.2423056254701186 0.1406516842175126 -0.6284979402462209
Ni 7.580759088003599 2.3867155396795123 9.783964531981203 -1.2401474414765352 -1.3598214950011163 2.7846533334353465
Ni 6.774658306755894 1.0789756719082697 12.24361603414325 0.35601422698535456 -1.407893925028311 -0.4815339406574352
P 7.599544924104583 7.327353490607968 10.402979997686934 -0.9765278634745183 -0.06854766716241098 -0.07068168278627827
Ni 0.254500976039474 6.1621421492430155 2.9942747855722343 0.8794736042319822 0.45533851320899 0.10484084516649042
P 0.8002997076709947 0.6750755777832912 12.34298424064614 -0.6335463013034057 -1.6075141173602316 2.3276937396831654
Ni 8.744252550551058 9.068543738937375 10.742219502557736 -0.6187999962321666 0.9485349778060179 -0.28926890313900505
P 6.749832187070817 8.455972165978771 2.243502632518511 -0.6828322920227272 -0.15595669000569917 0.39267224452802046
P 8.605085894518789 5.872439434897105 13.592166606919124 0.6053713815310864 -0.4193975763380067 0.0830152646509667
P 2.3456804021196915 6.764092428437544 3.233808973311981 0.6886149601427753 -0.6324749226160978 -0.46811946702374213
Ni 7.891427312649036 5.431258599660216 11.40604666844949 1.1525931513046341 1.176726039797096 2.061167015336683
Ni 4.470243939886546 0.17222381658912453 11.868837680337844 1.1009499732070458 -0.5528360306365318 -0.25003618289062746
Ni 4.560026197869669 5.857181715507318 5.815672775886544 -0.5736473109549282 -0.08461397659665428 -0.08565913003171699
Ni 4.238450366323906 6.398175004403665 13.40825844359875 -1.0695691449029192 -0.7754413710097161 -1.2824600862018172
Ni 4.88642317319356 4.743820759526302 11.513606201421391 0.5090434589316136 -0.16164551286036033 0.004577077847721149
Ni 3.647370750399221 2.203142639805781 6.88985593533031 -1.5573542086763887 -0.35365909648961674 1.6391091185576931
Ni 5.895316778074164 0.44693480568473154 9.959492032726335 0.36805778841345 -0.2800052184488919 0.07913469864963792
Ni 7.3234005221462075 3.773468597147865 1.1870662695683742 0.7653490197707207 0.8099023809010631 -0.005944904729525246
Ni 6.789472702579876 4.7510801829163585 9.638339205749613 -2.775699466676168 0.8398698737974309 1.8137883246735602
Ni 0.9781010888724027 4.5109650565872546 12.208172315057144 -1.2847565955454776 0.7291054640576541 0.9912201753793702
Ni 0.8426130948455526 7.0729319433740345 11.769888784040942 -0.8413125197812283 0.5032088545277075 1.7081110996487037
Ni 6.15055108517874 5.516081175250896 3.964588157138663 -1.3188303973007351 -1.0067943756685436 0.04049616034183348
Ni 8.125788468530295 4.092005815086339 3.3715542231613878 0.5341276555937511 1.601090987442707 -0.27142056210367443
Ni 3.458404080474863 8.870128735516799 1.8420546718668909 -0.5768709600985484 -0.2425936105696532 -0.39270412620722045
Ni 0.5036599031109985 2.2678309367828193 11.086934053466232 0.0772487944808347 1.7868336504615872 0.5122110580263178
Ni 2.296120521825747 5.939085744289782 0.8796001340951164 -1.0657112046094097 0.07826643711207165 1.4353785036018247
Ni 2.993570085820757 8.478396949682404 4.507633664708383 -0.6758265501288554 0.6706997704252513 -1.6866274758536308
Ni 5.5898668412345565 2.842322862620303 13.141987226887156 -2.5909883302455956 0.4275723988393152 1.1774426062481465
Ni 7.894179613120075 0.5488927606845343 0.9174950630638182 -0.4537205179895928 0.18313247908954267 -0.3551377379176722
Ni 6.998001024845378 2.7419285467807244 4.7166043869489265 -1.1678755313850016 -0.5797331121376919 0.637781679540992
Ni 1.2320700766329107 0.593354419971722 1.0588256922516728 0.6538384758935385 0.3997247804994277 0.24638135974685954
Ni 5.130103359864344 1.0046820310054576 5.659137995573103 0.612708281512132 -0.7281279306357331 0.3035243846167547
Ni 1.9914925807644033 3.1321641155805278 8.355618488132723 -0.47431711119402187 2.050814468457765 0.8782291903019198
Ni 5.624880167025526 7.11510309757123 11.508659449299616 0.30025445561623126 0.376003782733404 -0.9495809025720291
Ni 7.631510400380645 3.285360115288999 12.486609069287036 1.5283706769598453 0.5812294941775604 -1.6061971983210208
P 7.608900898524592 3.6751708323382393 8.09987712969976 0.26635291777278 -0.5566587468167317 -2.894121650071519
Ni 0.3335197072811572 2.5550214842558354 0.07984072701994649 -0.27543276858686117 -1.1293490931750292 -1.8088050125263557
P 4.607960558422328 0.9178608050056074 0.41364212948354223 -1.081192073853828 2.338209294502508 0.6097193740871371
Ni 2.3520531783781378 6.306305431298211 5.514566486401063 0.34073287534625185 0.2812054094045802 -3.801625678078156
P 5.517161776442546 9.067980348572497 7.44639233316193 -0.013095656841693577 -0.8104531111982106 0.69416674319894
P 3.5609226550672566 4.5175317869057405 7.333898054748164 -0.06576290532842223 0.1199044243678322 0.5345161492814214
P 4.960744521819235 2.7197716043980984 3.789007088129328 0.38808848181208006 1.9754400081815076 -1.0157865518648248
Ni 0.22437529256150382 1.4670500383247738 9.031854095913205 0.49214205519058474 0.1969945817836156 -0.4306718637002454
