# total energy = -381164.12645920867 ev
CRYSTAL
PRIMVEC
9.23566350965007 0.00000000000000 0.00000000000000

0.00000000000000 9.23566350965007 0.00000000000000

0.00000000000000 0.00000000000000 13.51732710155234

PRIMCOORD
 96 1
Ni 0.705339640859253 5.498082939532546 8.86961091137232 -1.0296522541033235 0.28386290163208533 0.5633089051433975
Ni 2.003003029811359 0.4705940066535777 1.4723347252483163 -0.056478908923334986 -0.6396164187568856 3.9100143884969047
Ni 1.6079659876440417 1.7782439187323176 3.5080707942397518 -0.9043947929536941 0.13065137847169112 0.27214021387851844
Ni 7.4325573449107 1.9651737514180423 6.540750578115601 -1.4545285941677144 -0.6007742490787072 -1.946040729083784
Ni 2.782474572252554 1.1061923804397225 5.412554228981524 0.6966008065617293 -0.036053808299763714 -0.3252113826718851
Ni 4.500557377836906 8.219168055368993 0.8922981041023554 0.7692864071519138 -1.4971173753725184 3.338664615326902
Ni 8.59295383543108 2.6625587151581147 3.7064510027438438 0.09021409639225109 -0.8975206915416801 -1.4885789988842042
Ni 4.610988208342006 5.617703255389538 6.227770560525661 0.9918529238673627 -0.9577289856004603 -1.3020809457565383
Ni 4.702439750004755 0.07016333690283844 8.021952464053719 0.1538285879191028 0.2983886060520861 -0.4890844993111834
Ni 7.053932077085404 0.5804485317456539 8.492950069209686 -0.43879397858674757 -0.5667107317360949 0.23614708361336106
Ni 8.093775449718098 5.019666325750273 3.274870286566108 -1.0633840991381298 0.4772659094097006 0.9149833671028177
Ni 4.864350169807791 7.7575049354845405 12.152347212686372 -0.1421051288345875 0.4950468875422054 -0.4414098189430398
Ni 8.042785350594686 8.147563954933597 5.817519609594353 -0.5482309277643526 1.9462261056217127 -1.1706302113120033
Ni 2.4361648916094407 5.550947878381018 13.712112271635414 0.43281050730980297 1.818752353547055 -1.4400764232981265
Ni 0.5888280493936656 1.9995673629260282 5.726007112551379 -0.13919232606316673 0.16431380372114285 0.23224517745579357
Ni 8.737528914525068 0.8743134962372907 13.59451087185674 0.09083861735012742 -2.022674772798755 0.7904658694430063
Ni 5.656363743513176 2.8825706951106507 0.4811503702286658 0.16404923720584652 -1.9193876452726302 0.7290854094529959
Ni 7.260404574097365 2.1850656677428653 12.401864367366237 -0.6641334300616433 0.3250959401399433 -0.7358507532012875
Ni 4.625155716412159 2.4338282687008688 6.157926777585813 0.348759088084838 0.12640982958651778 0.993508714303231
Ni 6.746735432085772 4.026490761643317 10.594583522054673 -0.7265500446256519 -1.75033709819745 -0.32766292953617115
Ni 8.20427092986889 2.8841961719166136 1.0336148410534824 0.1208289930646306 0.26522908858098193 0.4119943418954002
Ni 5.036290520356711 5.281441976819648 9.428065633653656 -0.44891744017399465 -0.24468623143262377 -0.3009201142246882
Ni 5.869901523232872 4.792783012027075 12.78143074931953 0.06326610704849749 -0.9423707579768351 1.415406174244956
Ni 1.9354995640455506 5.77643660689001 6.6672597755042275 0.5555233476607078 1.1264820560398792 -0.07711766821960914
P 2.6168144729993994 1.9583947742840837 7.494384571784776 1.8702762324579594 -0.8187320633775512 -1.2296905078092693
Ni 9.109633803799172 3.596718388412215 9.896238049292897 -0.0016822727984293609 1.932838885681529 0.4747171748459179
P 2.778724892802435 4.599591399372925 3.2132037602398933 -0.4849902746371519 0.2869664802580735 0.4269324512624712
Ni 6.345242661012954 7.237213822621383 7.097786702457188 -0.8370002655591198 0.17939126687955556 1.1618223832123862
P 4.741792912903662 1.1420729337986177 2.0789109495170885 0.23342531380682377 -0.4367329822926608 -0.29910440117218806
P 3.722184879372471 7.851348514037882 10.34532404239121 -0.045103834317173935 0.5168228457667164 -1.5422520629276277
P 3.566120634672699 5.065031905698508 7.916557840948002 -1.5642198254479704 -2.1007046684199886 0.9208513958478205
Ni 5.507207775238746 2.533028532182952 8.281850504698934 1.2003681046960681 0.5300272602721323 0.7971797911280722
Ni 1.64510259126209 1.4101473074911 13.197128894683546 -0.03686087758209136 0.9640947799174882 -1.063408267507846
Ni 1.298137178498389 8.714559818977174 4.174474724197993 -1.106518725544075 0.8721246200660786 0.5786501634861583
Ni 4.490527447091022 4.779206586431817 1.6955191556715812 -0.1584105508628304 -0.40596330520997187 0.16249217713137176
Ni 7.22039567907787 5.816057604035354 9.211477314223679 0.7413086909920652 0.5653403337511296 -1.5416059447031967
Ni 5.089644949379705 4.852011323144346 4.017566339838761 -0.011043402298355175 -0.3997944573950986 0.2052046283982337
Ni 1.0195341482218294 4.40046125497881 11.662033216964094 3.0057234681109266 0.4967512718278218 0.8853148935041076
Ni 9.29246300181531 0.2956308233853874 7.350735829756913 0.593941799537906 0.764128002879426 0.06647767200725971
Ni 1.3505403341633497 1.759781827055501 9.11408539368823 -0.5242319937465939 0.08801297497587424 0.05873428061641497
Ni 8.591152881015383 6.069179438245712 6.818626761661313 -0.3088103156060424 -1.2061890822532195 0.17267066032627035
Ni 1.3111871712644432 3.6829979584196284 7.405008283748731 0.07524307690471559 -0.48608453614259517 1.046638761358991
Ni 2.32493055836503 0.593248238026244 10.904670929783094 -0.6901463091856371 -2.83707452734954 0.5356116963384453
Ni 6.28928377483495 3.1178399914464294 2.654749037958557 2.6502550863267134 1.2412977530308944 -1.2083254118699318
Ni 8.428051060598886 7.807081978066407 8.57205352854532 -1.0249797883283185 -2.487718172000335 -1.023738973942682
Ni 6.177938613626497 6.4432884665362575 2.179587995620044 -0.5191460945832543 -0.5235246832669243 0.808794235438549
Ni 3.4178882327652937 -0.38782398884085717 3.477872944737157 1.3948514900220559 1.209933379787 -1.0668355480218399
Ni 8.370392812305557 2.462846723952773 8.333526813633046 0.8389530184101164 -0.036188534105415095 0.7581491595881718
Ni 8.56871021829669 6.580825969913521 10.78228545622323 1.4050441142843415 -1.6433591520832989 -0.5967579288304625
Ni 4.082560475785365 7.054070612040458 7.993823403213258 -0.30095173879357195 1.6199482293585261 1.596135957430277
Ni 4.115448674115101 0.5835849631280684 13.068011545874445 -1.3852525334797112 2.612487637769952 -0.8378914099148215
Ni 3.488642652143028 3.4063898314958405 13.474828677053157 -0.03998502503336985 0.07797230291042055 -1.1210092058507661
Ni 6.965223527532718 6.930645202751327 0.036169629631773885 -0.4219486248946346 0.7756779125005544 0.13336132120368643
Ni 2.24597486964812 6.391356329718479 10.888883486305179 -1.1312198278351808 1.1297103331691898 -0.164166222399685
Ni 9.083441461630361 6.021366407424862 13.370015900758666 0.2313974847435176 -2.0969282320966918 -0.74992805722996
Ni 6.066953643301183 7.958999409778238 9.738652690786635 -1.156045628629609 0.24791348012066977 -0.687398571237171
P 6.930848387352072 6.404230844874799 5.160104751086359 -0.675577924453159 -0.8482722389285133 -1.1782483899788934
Ni 1.651410549548866 7.5065350109093485 8.581894128185963 -0.3695217745534862 -0.4259760008864728 1.798965914948747
P 6.476823161322911 1.520642787641891 10.450475767542398 -0.38357465310212646 -0.12980188598720227 -0.7840016018749014
Ni 4.8669176843081186 2.4040063107096534 11.701963608842389 0.6180296937250453 0.44394209844659027 -0.640415260509097
P 5.787334690020896 0.5054216943540653 6.224148333234193 0.3099765680000017 -0.43333115569996344 -0.6825751817065987
P 8.966887386111893 0.6334778654074569 2.5907311116618983 0.3775315322318401 -0.1582935656689919 -0.2935130231273396
P 8.29423552968073 4.20689098011418 12.033921991708311 -1.2722553777546732 -0.21870960486320398 0.7919396257750555
Ni 0.3997998739220617 7.919406119623906 12.012700283726826 1.5789476185764484 1.9114640195501789 0.8295461232739197
Ni 3.841435768682652 4.851845081198281 11.385915503781195 0.5210672228653671 -0.47260475648860545 1.5770285471768646
Ni 2.69236220182199 3.8364854529554018 5.3769498219663685 2.5140953764422833 -0.5740933973534114 -0.42811541582697876
Ni 6.407389441850022 0.10376914629975277 -0.0032731192047342297 0.21128760136751998 0.9315011622521828 0.31428419423642
Ni 6.827196533980931 3.930864700001618 4.923564627429555 0.8731507473377479 -0.5642458151353702 1.8949115145081366
Ni 0.6922185334829385 5.62919242099532 2.168165326792687 1.3302486664400057 -0.1358187816052435 -0.49870788133356053
Ni -0.17613241828884316 7.792231030884655 1.2584090476544705 0.5614893354361555 1.3613163343790877 -0.2009417393568217
Ni 3.0678288726720617 2.642895987204167 2.0425353645854685 0.27658410858248494 0.4107838665270667 -0.017041014642686782
Ni 0.09782414959521717 1.956242864648917 11.481333762990314 1.075091360272729 -0.6127900425926608 -0.024025416380319915
Ni 2.417730506923635 4.101124159762553 9.666240469780094 0.5518898646731786 -0.8025096879814179 -0.3954930018062673
Ni 2.130787672352845 8.255667398193793 13.350766930537146 0.47689181389973356 -0.09241264670546664 -2.925915140433032
Ni 3.864746583786346 1.6516506768042925 9.542327417449172 -0.6232140661394622 0.48880861994197755 0.1825771208067049
Ni 2.402667139477468 7.308494674828321 1.6699040424821614 -0.23338906125224967 -0.8119101553597113 3.2150737432464176
Ni 9.088816617886444 9.290985295628069 9.902834160286185 0.8339553080852088 1.4308297078888779 1.5123568180300921
Ni 3.5355875305788746 7.6550444827268604 5.67370924345226 -0.16734796256177634 0.5588750377417601 -0.9112313562595533
Ni 2.4291273158927154 8.95429917652935 7.2533974760707505 0.3244904453454605 1.6334712035456258 -0.4081937372023874
Ni 6.387154102748519 6.3194936307003164 11.319504617027578 -0.046772223158532356 -0.23424138195021596 -0.6755203317423463
Ni 1.3958874427842445 6.420781154171874 4.400308866528251 1.1239356354689416 0.19010273975978872 -0.11128968611562769
Ni 6.932603163449419 8.591642371189906 2.363734199275557 0.3898113780404577 1.8404828032456109 -0.5688108087982332
Ni 6.798187314392697 1.4977937557217094 4.409514052508382 -0.6174684219049366 -1.9658423371907434 -0.5564779982644933
Ni 7.536375440227904 8.522522664281805 11.546677007023654 -1.4613168207341414 1.4302200993293368 0.48153034111300946
Ni 3.9356303024554635 6.561163241959573 3.4822931333697356 -1.3343516328647858 1.4512712635726812 -0.5267599023747702
Ni 4.764558823850812 2.527053057788305 3.9085624193707145 -3.352803368721129 -1.5881753078223035 0.6271283135922038
Ni 8.695358874206738 7.4339888727795875 3.4965003547936706 -1.1937452000629118 -0.4238314437396442 0.4008306119690968
Ni 6.904074198372037 4.411433223419059 7.5224194288558 -1.207749484761804 -0.5156820472940539 -0.4902044718482396
P 0.7497096162638359 7.620429215290788 6.330881204005727 2.018452764297608 0.9193701833166037 -0.15148091362253266
Ni 1.2646209550390761 3.8337424608453397 0.5276796437993516 -1.9300980897115985 -2.3442914961408468 1.0282440609018872
P 4.421186084254836 6.206439871712869 13.627493273955913 0.5214716573926373 0.19733808116596335 -0.45942785278701526
Ni 5.742800319802983 8.304644122637095 4.373449709442449 -0.21737751631534175 -0.46206271930670095 0.9802721610082988
P 2.659261583227838 2.442731448478983 11.77574178450576 0.7120019716081479 2.2942696556967648 -2.150276308700529
P 7.381631895432978 4.812076313434214 1.3171293972698777 -0.3950024353230939 0.728771734867319 -1.1941529770242918
P 8.644405717738005 3.863342762908469 6.452996072620051 -0.05067078688199016 -0.6119564909477719 -0.718214271066447
Ni 0.6719342453639829 4.264447636107136 4.675738522767715 -1.0219001209617302 0.18884315632107476 -0.06458148342581135
