# total energy = -340889.6506906076 ev
CRYSTAL
PRIMVEC
9.07529204982424 0.00000000000000 0.00000000000000
0.00000000000000 9.07529204982424 0.00000000000000
0.00000000000000 0.00000000000000 13.28260725949755
PRIMCOORD
 96 1
Ni 6.55247862565509 1.9407783676086412 10.900557086224739 -1.2666979382715537 0.6504158233652346 1.152664113751886
Ni 4.8420946898219235 0.18029882128976857 5.607132709447745 -2.2647045404451385 -0.08271470269141239 1.2226605975456815
Ni 2.8163262149309203 1.6244318476248112 4.66365630334186 0.5194553982935569 0.4862758262177948 0.5852021056720632
Ni 3.396391638013325 4.657875342494143 5.035794994445793 0.08971684504085839 -1.2965931831690896 -0.9862785151033789
Ni 3.697328312597748 3.193694996673063 2.667612131534884 -1.2846542656396585 -2.18971600275339 0.26783901540000327
Ni 5.239710447468706 4.702489476760036 2.640130333043432 1.4652238690980313 1.211946296451971 -1.740787763946118
Ni 4.9954308193086066 4.641249407999611 11.478457144694483 0.3916661718610093 -0.3578332824719644 0.20573736097325213
Ni 5.717987398230879 7.856080759169271 12.424258640547912 -0.33750665509947037 -0.2264509393715197 0.004128420346076761
Ni 1.7752813471707183 6.554275533422513 0.3425314592835417 1.4609694646970517 0.7375787916359878 0.14520382236456927
Ni 2.965142849123784 1.534613685128972 0.2057777028909678 0.19831098660219393 0.9314227436057637 -0.2518570381494501
Ni 8.349740329455587 0.21780064940753727 6.351463635876966 -0.580745098341974 -0.6664667061805102 0.14821612682833185
Ni 8.710573929620745 2.605888349723936 1.1882088913245428 0.6909752328448359 -0.856977480011995 -0.4565811273668394
Ni 6.579259811623083 1.0515268297368308 4.485482915381032 2.1801391576982323 1.1553529734379586 -0.0992684932850355
Ni 0.9303898353956704 7.745952093726509 2.440891377861694 0.725116397502919 -0.7950740576389791 -0.0528708798571025
Ni 7.952995799817252 3.7280209493119973 3.5791979624149053 -0.18974767041321516 1.0063624303374474 -0.25396431430044003
Ni 7.513370516638163 3.92196900940077 12.293836715212564 0.9470807618579948 -1.0582699178400161 1.1656440709513216
Ni 8.315726135959133 7.281487737014924 9.438965921141262 0.6370414589408576 -0.43702685938399577 -1.1900433257312923
Ni 7.120092748450106 0.6292099429922229 -0.05858373086383666 -0.2731028349021038 0.4153488601899298 1.0302713757445612
Ni 2.0669793747489003 6.3843225447330525 9.130052065104497 -1.5757080285932283 -0.14211335636470362 1.0333153047772077
Ni 0.28814868097293567 4.906229776652084 1.3348882943091849 -0.45762293836779255 0.14388947442851993 -0.2488712160482488
Ni 6.544392540701692 1.9895852866651862 6.833768201119856 0.053893664694662016 0.6554407873836519 -0.6227628375346564
Ni 3.7511175668275993 4.38472721126248 0.6002261837153752 -0.9400433953952392 0.3615313001488419 -0.5196328044116857
Ni 6.212354841274059 5.867747862766227 4.642948302616084 -0.1702363398531649 0.21116855929115247 0.08952118409028453
Ni 5.3647951937231415 3.0650527360508018 8.841288079350596 1.289205889566083 -1.3437377020653762 1.8773421381658055
P 0.23996069681405846 5.705962636655959 12.48368455848658 -1.3218223900495234 -2.501745853737994 -0.9152918994821722
P 3.9033102095531955 6.202853010806933 12.60657489919474 0.8113877071973381 -0.23127869977746618 -0.9360658988047298
P 2.4785257052390812 8.57804744412749 1.027064380812153 0.46131632805897965 0.40423603810622 1.707962232775665
P 6.6388028008253865 8.138122676320497 5.731909803311698 -0.8228607408339442 -0.7070148028062017 0.5450360749761387
P 5.055754283601811 0.8936430715518892 12.22459405418288 -0.2580050600287169 0.4055493576010048 1.060078946024297
P 4.234794316183794 6.090065284880057 8.07922494036195 -0.6887113765113235 0.47976270768962537 1.21875097807863
P 4.564036825750991 1.2195921577413218 3.463798367521039 1.5457423354690736 0.3948957345419005 -0.42466191006073956
P 0.1834161840074932 5.703730114884313 3.4992364742937987 1.2071730434330437 0.3108923949460517 0.25916077089971495
Ni 0.9099885795312017 0.23735336549294556 4.555800998483639 -0.5205576302188002 -1.1083534647599687 -0.08232389501089693
Ni 1.825812571660648 6.706921940735842 4.663350466009728 1.0294457945194722 0.19424427273198805 -0.0915973498930229
Ni 6.035050866263327 5.801480082373723 9.329689425594264 0.22024583900207229 0.9305441976555523 -0.8809581591973086
Ni -0.3949430842250362 2.505370418249356 10.169814594139766 0.7964979345696993 -0.07328569606802862 -1.4371348241712991
Ni 2.382173332679889 5.449912355090069 7.0168558595658315 -0.7239051508036372 -0.5016014008312716 -0.6455332984619528
Ni 0.6247821081451258 0.2761293645730681 8.823250936988215 -0.3363918247687368 -0.5468792988324646 0.9705526197276899
Ni 1.6401139517768584 1.2122502467118044 11.262189312064306 -0.11231607049761301 0.056152121711535545 -0.39952603422506033
Ni 4.1060885285192485 6.831462169484998 1.3291372819242586 0.4635089648349243 1.3328794191946334 1.0135286090685836
Ni 5.299679975383479 8.018165469907442 8.000964161915666 0.6391091401031639 -0.10047485488831083 -0.11140332887535652
Ni 5.420617313306036 3.3298606741599355 4.411100916630688 0.36566486270124116 -1.1139211886557332 1.502227185795258
Ni 0.8522216249252841 7.54133149053426 6.617355163821606 0.007978904440418516 0.2995738846094389 1.3993702038280156
Ni 5.515889726146424 4.532128099941617 7.18684696448066 -0.7348539365056569 -0.5783241476053073 -1.6316449489701643
Ni 0.7846669681619691 7.416437325406672 11.453551821532177 0.8542482540062901 1.565610792258226 -1.4858829401092797
Ni 4.429087237359243 0.020053672190265347 10.191876628395336 0.7363773151287188 2.0057276034214553 -0.711459983061749
Ni 8.309037645935952 7.317398666488101 4.766184411940095 0.4487171512377304 0.300665832122037 -1.1764535028619996
Ni 6.77545854406701 6.301873519141995 7.104189207179245 2.4180669873611 1.747590131579932 -1.0312152277150692
Ni 2.2857392824949043 5.612006141119996 2.5663591014281772 1.66441185898854 0.6478357213428843 -0.639717463111124
Ni 2.3071297451606307 5.401132661908788 11.340715996559002 -0.13579872700058548 -0.7785161532802979 0.6550587214538848
Ni 1.4592343118147917 3.8235020938627424 3.5991617892168 -1.1456997666189108 -1.8687477116285753 1.4401062480947973
Ni 1.671233127203577 1.3599143188518268 2.4713353515818666 -0.24047347890285684 -0.2209238389057034 -0.3582647135824282
Ni 1.4068789536821762 3.7178747731302906 8.362808749582292 -1.2941395794222745 0.07495948422602575 -1.1920295029233858
Ni 4.101396602682091 2.773599741349995 6.845111408284001 -1.6987759382907066 -0.41869052296865306 -1.5472006651821548
Ni 4.248797491361229 6.524662856427067 6.068690250210314 0.584550073910361 2.3993647829659066 -1.233680602805269
Ni 0.7113186451424811 0.4699403877563453 0.25591868983544713 -0.9259192972890312 -0.5986309774834594 -0.0737333251284085
P 0.12407103616544084 5.874971795002934 7.901078778276386 0.5004204931492929 0.07617433046973332 1.1345244667283816
P 8.599828144338668 1.813161614954656 7.718562863210955 -0.2238975768220467 0.5040958851183511 1.9277897532933959
P 1.873784563875764 3.3655628719227555 10.45464716350555 0.6762700654241772 -0.4186172465285565 0.2243043253421621
P 4.1936650939516875 6.256714867370822 3.6682574305200557 -0.58229675909981 0.9748311924983858 0.058937140655840436
P 6.940474574041936 4.160885140133868 10.160052302799281 0.527423246990382 -1.871518332395177 0.29358424268490724
P 6.516649373807704 7.990540281806267 10.34591518546383 -1.2743379713153151 -0.8511462180421986 -0.8087160739024459
P 2.712160016170968 8.49607940899943 5.75159411112755 -0.41619758134347024 0.3480157821609103 -0.44271311113549555
P 7.042399175738488 4.02829512759833 1.3654656748181504 -0.32877210343994995 -0.10703836703844147 -0.04596669653810148
Ni 5.4069499239235235 2.8094743696561544 13.501371440328647 0.5399216365677089 -0.21280146690888513 -0.5025444814708313
Ni 1.7273456561226206 1.159649855701813 6.943203514272562 -0.026104410396535688 0.4981280975706905 -1.100104337377299
Ni 6.83962993206419 0.6454320270036721 8.898682039465397 0.6074364915902314 -0.09753685530590944 0.04325983912989969
Ni 2.911979790025004 1.9851020925383855 8.90323874345541 0.7840013447645853 -1.0342074775741736 0.8682008595316403
Ni 6.785595644956962 1.9589380264097098 2.234266950250017 -1.9521920933971608 0.3116678396594955 0.4044684658320002
Ni 4.236110233488219 6.829483755882483 10.398302307117588 -0.5553842509796822 -0.31269422404148084 0.5298696516483454
Ni 8.32255983065039 7.424977174947804 0.03115910671043899 -0.3109877828733354 0.4739743831426224 0.9744403848178702
Ni 7.938066944880841 4.056791543707953 7.739920654826364 0.008820940725739647 -0.4795364506114322 0.46952894577675913
Ni 3.2411950737169373 8.389372128548175 12.259540280142538 -0.261680194887459 -0.14788394029989368 -0.020781712632041628
Ni 0.10676445478931014 4.848020855337714 10.1592155608995 -0.22035408244516244 0.8023230258919086 0.14121501292015035
Ni 8.892969143305839 2.464522530061646 5.679682406792823 0.19238973602175252 1.3541604400605969 -0.9611251557662028
Ni 3.9558652241044134 2.397319994618411 11.188378149165333 -0.4207461199461012 0.710138693147164 -0.2924658128097479
Ni 1.166047936388846 3.390873860626494 12.712398246229093 0.10136034281705769 0.6839021280481383 -1.550076186957737
Ni 2.851674476315309 8.241109087152344 8.05336398897788 0.9650201199452347 0.986416840453456 -1.4055254247961342
Ni 5.924332306856513 8.12298508967373 3.487122774859683 -0.6825957505318889 -0.8998084591345922 -0.8878086064602387
Ni 3.2393164883237233 8.444413773040168 3.32943141285994 0.4522426478924857 -0.1521177758755832 -0.11336868013184348
Ni 3.6665993747164793 4.511055272487304 9.366602267277155 -0.6875577225228546 -0.710124552079777 0.4872438465580189
Ni 7.28038962671261 6.050351808161679 11.38927788273817 0.319144864762831 1.1740382085522876 -0.07766711296517592
Ni 8.205660997558654 9.058729347204649 2.3857952816191723 -1.0333811250181364 -0.1729311130765086 -0.47380057656891944
Ni 4.911947210457517 0.5789854633636007 1.2857909659164912 0.028859347433853526 -1.3500800993436364 0.6245487257904856
Ni 6.171652157754423 5.733097759002383 0.31031780367121153 -0.4293752563760089 -0.3215884412073171 0.11082200245058976
Ni 8.17640225694164 9.131740069370862 11.075303644019009 0.8039610757159639 0.08951887009743939 -0.04056069503118175
Ni 0.1268725787301034 5.271546570944043 5.776725409054545 -0.2006010681879513 -1.4769555557126628 -0.23624864218823186
Ni 7.440096611011063 6.03447004759103 2.5000659102187597 -0.42387386694180545 0.2523769152086622 -0.23575216216778752
P 8.707805965635576 1.7324822712557562 3.4851171353819037 0.2383258364322347 -0.36099831046350733 0.18213823349707342
P 1.884103170600809 3.2760078928878014 1.4267511200373484 0.6564473742712952 0.22942673417039197 0.34528115683856664
P 4.794231601107863 1.0624262551341737 7.946372651894703 -0.09027580286812195 -0.07423031936948507 0.5508004882637417
P 8.650078034784203 1.8755270198926584 12.237438314603247 -0.28068861766916176 -0.3685151876658428 0.32915416936971703
P 6.583488897580753 7.689413026094997 1.3638048964270482 -0.7384488529457669 1.2073609910741336 -0.40541643156756635
P 1.960045212003778 3.2038411728547693 6.041128589151421 0.3697261772548084 0.8439468720802821 0.06398987258839947
P 7.168336999417861 4.178881443683352 5.580633765053323 -0.5889047513346309 -0.7654323235131463 1.3423626760947205
P 2.3011037514355386 8.469624933534606 10.076013286092808 -0.6453558923438241 -0.05059005424272578 1.2232961742471513
