# total energy = -381169.0963282623 ev
CRYSTAL
PRIMVEC
9.20777765631282 0.00000000000000 0.00000000000000

0.00000000000000 9.20777765631282 0.00000000000000

0.00000000000000 0.00000000000000 13.47651333643812

PRIMCOORD
 96 1
Ni 3.3133727372711657 7.823563201668646 3.4372928500217745 2.1487192486260542 -2.2761014694281703 -0.2692204691285621
Ni 3.3647429286069794 5.402663517886469 10.215897596943726 -0.3448175869385868 0.608891478869203 0.10801975711510428
Ni 3.119438525062005 6.324850069751631 1.451716634950177 -1.138208343337872 -1.4209630995074432 1.194971102050213
Ni 6.9597907910177526 6.863937826005058 6.371722261720614 -0.40737226974235646 -1.9013400437422998 1.1123417599837555
Ni 9.096823898587026 4.383473028806251 13.153737569472606 0.4554529272996672 -0.34196880463588203 0.2203841643521495
Ni 0.6230304609160819 3.1321084270656043 5.594531504797949 0.3457012750951208 0.6116790689166691 1.1636324398379316
Ni 0.9064025794708522 0.6850282691796238 2.2537444512220484 -1.0591057834777502 -1.6765420665931705 -1.6817441796194004
Ni 7.615034661933538 3.77776700148012 6.107677268387904 -0.15430347067299233 1.5628586834343858 -0.8978009417862604
Ni 5.5277051379510596 0.9392669793482112 7.563437038490538 0.9649036489720284 -0.5147099131887716 -0.06919224272494535
Ni 1.6496838537564134 0.6468859711711145 11.577065867567454 -1.989089480644142 0.19970940961161734 2.0766327150724493
Ni 4.221526636045131 3.494554177478157 0.8740934085839126 0.6646522786795908 0.018960857373218957 1.198838041204787
Ni 1.3535064788670461 4.244380340095228 1.7856652344100121 0.7166577252126045 -0.29203206770643897 0.15617266267124716
Ni 6.509954023224271 3.3901471870575093 11.315931452740077 -0.15387358222442532 -0.30381286239145094 -1.0146316123247752
Ni 6.657748061785149 8.19766599854672 4.542083443736046 0.17114959569605365 0.9181867045314638 0.31188741186946933
Ni 0.8714783997401465 7.759421822775425 3.5621392652008437 -1.7220053411322926 -0.18971450318243457 -1.288574426629671
Ni 1.2729384247017177 2.410338362853305 3.3561640421994547 0.9718600256852038 1.5591976896430308 1.2871811458265703
Ni 3.9667290137750775 4.26744582303056 8.27806923349267 1.5567595125151836 0.033106038525349435 -0.9213571318396454
Ni 2.452482361014986 3.079688549081237 9.47181892911637 -1.1884273873944242 0.9715067561108431 1.0242652787597972
Ni 2.214148245127516 0.8354014062515551 9.494486636058562 0.5149474831208745 -0.6511375320226076 -0.541255524887784
Ni 1.9566711595703628 2.191819384401696 0.5524464000229208 0.32188334673991664 -0.34946588434387554 0.7374805754952267
Ni 3.168598849769284 3.8853506751792857 5.240868132678298 -0.9813635943002648 -0.24074138785226282 -0.012920821826726134
Ni 5.462026060195483 5.754152012932536 1.746596633973042 -0.3998965301906016 1.1669494200263064 0.11144678051878226
Ni 7.91533712119617 2.6554033641801875 3.8877723206930552 0.5368147155076111 -0.9367490409146835 0.17494788639622127
Ni 7.1579329575987485 7.426385714077623 2.486146916767427 2.8015624504858585 -2.1998042402273277 -0.11021007989820372
P 1.4137345522722367 6.668438291600687 7.2641640087656985 -0.814064739808869 -0.6300951095300116 -0.36560649865948003
Ni 2.1106252013582822 6.905842421948649 12.719159930749155 1.9113884291172374 0.430591131060981 0.8818894127623264
P 1.2595319004886067 3.861447284480635 11.480075742018828 0.8434550200455281 0.020963232515228414 -0.7770380260728748
Ni 0.230591295687742 4.387082477632858 3.915048520333507 -0.5170979538049739 1.7813158059671514 -1.4944979354718004
P 4.272418022944763 2.3854497399494328 6.741086736236004 -0.5371682421922879 1.377312452697028 -0.1651941494435671
P 3.530565795745654 4.737843558247033 3.2346324269631874 0.14000556599308145 2.05682776453138 -0.7043503686001612
P 7.531980507811108 5.482117430959911 12.053285680572355 -1.140008115550772 -0.0434452156678284 -0.6618042677078344
Ni 6.307916966710483 5.873770251979598 9.952620532264431 0.1642019607336269 -1.6063020993300012 1.6329227872413232
Ni 1.9450417364376988 4.4933954780206165 7.244393989440169 -1.2197071713443122 0.2162349180704663 -0.35044213221421583
Ni 3.582847557065738 6.059721320993177 6.313665382277959 -0.8194524864833436 -0.2242127940696203 0.36207431713650545
Ni 7.818498923978254 6.6719096237630096 0.32287164298430476 0.5645911142899308 -0.848925556241796 0.5298534536984294
Ni 1.1605574988631076 1.6039856534338388 7.142160955315343 0.3898095782682448 -1.4626429957447327 0.8160779135841558
Ni 0.7880936864011979 8.485289348028132 8.269215955312102 0.4961192946707778 0.4593221804470863 0.2614397967418788
Ni 8.055359795446702 1.9306683955746042 7.297869078739661 -0.2691484782400462 -0.9983048501402937 -0.3178819388900074
Ni 2.014891937454634 8.058490439837126 5.538900874757873 1.0663532090687828 0.940584869721006 1.4677489495127303
Ni 8.92692198596318 8.191680943094438 6.147257821260484 0.08183127164519456 -0.754272707351901 0.31196325941272723
Ni 7.479938148709115 0.500719867693256 0.6499991207840626 -0.22181061238603092 -0.7999303572900158 0.8433820007157474
Ni 7.923532043276986 5.045843719599061 2.1620911535813323 0.9918290126079629 0.5758417475030856 -0.49668442314562844
Ni 8.24840085322683 5.182312191688699 8.133129605993648 -0.1942969803467944 -0.5537564855682721 -0.4863316191563948
Ni 5.231279153065982 4.484915114833615 5.887336070745516 1.7028940742241383 1.0596020063878784 1.6710648455286832
Ni 8.476587998178278 6.986898488327779 9.690771593893828 0.0007407348207664662 -0.426640116833033 0.30304667364938775
Ni 7.1757960461794035 1.4209350343702123 9.367335514141484 -1.4224939343296727 1.9683473630007844 2.2601066366618108
Ni 0.3392578040348898 6.371330931171811 11.578251829324769 -0.8770572814810056 -1.3519022401540397 0.9977993712587847
Ni 5.475285259966691 8.479829135900129 1.9730020739552345 -2.8650933811599693 1.8206557412173547 -0.014626748774239324
Ni 4.025621959425528 2.719102769747701 3.2454405163322457 -0.6396166758672017 -1.3710104217384 -0.1255726783972031
Ni 7.872465708602595 0.31469421568096434 3.053683943529954 0.08456769673975113 0.7980899616471675 0.15883478288444258
Ni -0.01620845094254035 0.9392209404601167 5.100806785761767 0.20833083273204123 0.1433873379811208 -1.0706554359885625
Ni 5.184411564985807 6.295716661365447 4.3584794372375235 -0.7668739410556793 -0.525505461142379 -1.19384161643146
Ni 4.632644698951161 4.427771646930754 11.795601420018778 -0.3900666885843734 0.6603060858957531 1.1265859286075952
Ni 2.5720729767291908 4.408803625035831 13.16760448256666 -1.1609494936891298 0.9483151484857281 -1.27433231488836
Ni 6.289013399258892 8.076252242863974 10.436009520923404 3.3017080927072104 3.293039361288619 -2.0527811052658325
Ni 7.6020701110461335 8.632153401049504 8.42210649878504 -1.2951489945233954 -1.641915991878869 -2.9350584974951968
P 4.2271065492821815 1.215702879022668 1.3241290643739627 -0.8089672706813037 0.049238168200521654 -0.9590307351310193
Ni 3.1163539195596757 0.48520384162765656 7.409157962152671 1.3246279778191186 -0.5819077511915075 -0.610191171517233
P 4.384384598790522 6.155095481569688 13.230607780146185 0.03631888903569229 -0.30924817447440933 -0.010315780103711267
Ni 6.019391255022417 8.020186084942523 13.187024606342671 -1.0089404754772688 0.003536809508664877 0.1552432088784423
P 4.0459803557409035 8.701607667628826 9.585251383159056 0.6997918026952012 1.25265791523872 0.9861713001015533
P 0.29048236443208075 0.9628849289406761 13.48675526261517 0.024714214917228403 1.5138107768677993 -0.8177013081201918
P 0.5574664803807422 6.157093569312988 1.8174698190834366 -0.16200058220693392 1.7630368051523055 0.07263315008569426
Ni 5.819333870696692 2.557091922543249 5.004058824764518 0.1704199166188807 -1.5220948712534625 0.17457173400372514
Ni 5.644109862609126 0.8716588721814769 11.683382551066261 -0.3537300589368682 -0.2553516815662699 -0.6741062250036389
Ni 8.129150925284524 2.8548898662935414 1.4369740622045648 0.7375769918637749 -1.3633865866445551 -0.20675243250132783
Ni 8.498244691137918 4.323686928726769 10.543606085511238 -0.02958157031185873 0.06085595494510809 -0.6893711215825096
Ni 0.42672616674781816 8.226827030265758 0.5796839269973731 0.5083541461740729 -2.4199194671888065 0.8999436991608758
Ni 6.620134290211965 4.392726845313241 0.29583392478418236 -0.13325873418755113 0.5993647703256904 -0.963697030258437
Ni 1.771871062759146 7.722719621186512 10.434001304624724 0.8713933983270089 0.19318652089143504 -0.2691950152072654
Ni 9.306577072745446 5.878438595232377 5.819819120577208 -1.3220730726077488 -0.7479066559245571 0.985163427662329
Ni 6.2016868363212945 3.9305056166223458 3.108384588030522 -1.38333860428645 0.9217705652279803 0.38356873956485554
Ni 8.174361113393296 8.284789990376701 12.17167652286282 0.03314254819023969 1.4466975281590697 -1.5915689068848848
Ni 5.994769657669494 1.784319978099892 2.2766681343820485 0.9762931217558928 -0.8417951158446019 0.7732541335504102
Ni 3.0903971944520117 7.310920182736683 8.297179055162923 -0.49585344260390096 -0.331769495505377 0.6587389985189493
Ni 7.502432749432074 5.802851948758871 4.308966454647441 -0.39151550521575795 -0.18898328144336485 -0.00661467710304022
Ni 7.903044738074945 1.8241252007463735 12.185827035507536 1.2923382645474775 -0.7236197583527343 -0.2639756757898551
Ni 2.6924186302081443 1.6103390199908763 5.245867955925359 0.10089291626233592 0.3790960485054826 1.2814190465318123
Ni 1.9096654548259053 5.854599658977058 4.565923300769127 1.937661246770837 -0.5830619194006088 -1.3822697967023034
Ni 3.4515262326650618 2.3029020135960416 12.188293799131637 0.5396349585652255 -0.33466815720941073 -0.8413189475391316
Ni 2.8128839847961435 8.587495679597865 1.1016792856568474 0.26930171598845876 1.4778086477415775 0.8942078251183632
Ni 1.1048688598240326 5.392010119181408 9.493422216965818 0.7479241394260538 0.040660710944155784 -0.7760517509002054
Ni 4.597240794006511 1.8412700826727555 9.566221669154087 -0.1309046321330778 -0.28495253515183827 0.7701037608468866
Ni 4.566146128987503 7.980187498966045 5.895166364832623 0.3133226016540991 1.4181695959227059 -0.09155466958054555
Ni 6.20989096617973 3.3855801293585377 8.168087854501543 0.316293768467281 -0.3806158275841187 0.1343771640627105
Ni 5.351790546542076 7.539042873244799 8.033120250163785 0.4299977204513562 0.9998817077091103 1.1912666566154324
Ni 0.1704212312815508 2.125201113328993 10.322295308885577 0.5671779011805006 -0.150125942256535 -0.7568705499860643
Ni 4.788652075148095 7.194690405853376 11.385066209436024 -4.560340994582443 -1.9990681891234086 1.1366163162604037
P 0.5063421367073532 3.227896937634966 8.286694158788288 -1.2889924880036963 0.9214062399100261 0.8354216082180902
Ni 3.442824882815206 8.963016474229248 12.470060081269672 1.6184788439018511 -0.04304515201593232 -0.526789470061125
P 2.3687560391263762 0.2982564910757135 3.765970917572554 -1.0875203300647012 0.8110498642419453 -0.7279420398771722
Ni 6.028433292644173 2.3024968713808103 13.406691794663356 -1.3449592331773028 -1.1675878249412537 0.4403255847399255
P 8.501080686644539 -0.04566321076762263 10.113853322260088 2.4165006713152444 0.8954910627061611 3.035495557167037
P 7.02729300874187 -0.1095651874427519 6.50710789916227 -0.49627150397792585 0.7429433983820107 -2.4134498003040625
P 5.9059238114247785 5.516720259251718 7.971290023452907 0.22040781850123334 -1.067401190717323 -2.2776562155098
Ni 4.830243606652642 0.5314858150512689 4.414204907387075 -0.5846899419223349 0.13800781883676233 -1.1614832547054126
