# total energy = -381177.25496374245 ev
CRYSTAL
PRIMVEC
9.12481769049780 0.00000000000000 0.00000000000000
0.00000000000000 9.12481769049780 0.00000000000000
0.00000000000000 0.00000000000000 13.35509304075935
PRIMCOORD
 96 1
Ni 0.38585659308194814 4.844639328509069 7.115807304192944 0.9726182440074668 -0.47004110952648726 1.8159447088949308
Ni 4.4098691514886115 6.11256008758149 1.0321391261020807 -0.26486296349081484 0.8002651149216153 -0.20619476022564487
Ni 7.333205167447603 8.495323668192066 13.363239493533285 -2.958408485075047 0.949784533942403 -1.253451871894925
Ni -0.13829664574768105 6.855338477612746 8.741816011884731 0.06894824503493932 0.09397407765531558 -0.4149883915267175
Ni 0.84239128468316 9.300835178189232 7.82991734276109 -0.43957867927157196 -0.7205712013343978 0.7413770823361554
Ni 0.9238056434136075 8.856310571315166 10.186356737511353 1.3183053780352005 -0.7257095510022277 0.9786320543017146
Ni 6.287473713272617 2.0998851148559385 12.548511917912037 0.22483011593864508 -0.36784670084390847 -1.067545172494355
Ni 8.54400456928561 1.2557026285074246 0.6017981354716524 -0.2583259337032454 0.2978926402522741 -0.39682457613349725
Ni 4.668466478009899 6.3288182611366945 8.15668983037522 -0.8345631168725369 -0.07008852928696963 -0.4707335076078216
Ni 0.49347377760062877 3.337894722328615 5.461872092696697 0.4102591043718483 -1.4154390843654203 -0.1665367795143906
Ni 0.49563179692745607 2.1015640812666625 9.884918393064256 -0.025662180652794516 0.25145620316660566 -1.9206629124406278
Ni 1.3857495267989344 1.5323305943090952 11.807918921659956 -1.2032456833541794 -0.355085287413182 2.587965227148556
Ni 6.332824055997063 2.4274204372088533 7.511678384425814 -0.5338767159252097 -1.4784102858813184 2.2861948491084307
Ni 7.055810716980167 7.6390325490879505 4.309421336040071 -0.49450027101011607 -0.4499764775661283 -0.02622190981100645
Ni 2.1545975202836605 7.040690894466202 8.7915243674231 0.4992879222067465 -0.6203948515231122 1.6605955705662432
Ni 8.181721942084671 7.236326980585341 1.504758133421679 -0.13018343769633708 -2.8560464404663524 0.5808780243754126
Ni 3.409460665585723 1.9675113881147843 4.464968449176196 0.525481549882979 -1.2993416924485042 -0.12771106489644457
Ni 8.125348819881124 4.9714469166059745 10.401841126546833 -0.027285575188830426 0.5251336796252569 0.2612114827811566
Ni 4.171784414593995 1.4378522344360745 7.012078204389533 0.7747037215127431 1.31364525355537 -0.4978169940881749
Ni 4.832284325682329 8.783266407631224 -0.08977360399601383 0.07545442158457327 0.44552152711856824 1.5493897024136736
Ni 7.964724658316048 0.08059951253219937 9.328999839729127 -1.0058728922955387 0.8920673817365927 -0.12149362323182301
Ni 8.89685213524368 5.151014199196392 12.794686717957457 -0.08228044336747119 1.841938561855531 0.07576218263297921
Ni 4.201859812907832 8.049968702930089 10.01483754391147 0.5406199481863141 -0.6092794583362411 -2.0410327064806526
Ni 3.4643464425449872 5.294903445558925 9.921378426147571 0.14644489386052198 0.31037714587252996 0.775886943187567
P 7.832506053471537 4.205418491713171 8.433941021208696 1.4203498914034764 -2.565163398762692 1.0810663469092414
Ni 8.452354902821963 -0.1503277175549611 2.959902809406465 1.0254927234089952 1.308578894776056 -0.09703317619661353
P 2.7980248979238174 0.4924581854184898 9.098370991172567 -0.9241539778584924 1.4729505483183276 1.2394781833236523
Ni 9.140968376472474 8.541121126971541 5.491627209918054 -0.4253782194014738 0.06548111242194529 -0.08027652556356497
P 0.008342820594157124 6.8795374934890505 3.5642203069759484 0.39455943424840434 -0.368987499316571 0.4711801082269369
P 5.59149651194029 2.0852945317540494 5.351679884693744 -0.531550124674562 0.32836484069920224 -0.5975284884479
P 2.756525228163097 5.222890386246786 7.429705586867452 -0.1489334646103306 -0.5005585613890541 0.8713782288183574
Ni 5.542779111576947 6.420732547306382 11.09360813710792 0.32847411258355685 0.5226728767895903 1.4395683733134563
Ni 8.682491923717988 2.561099012845298 2.5212144357731554 0.9003851575736687 -1.2661772898813934 -0.45865626472831333
Ni 7.2800804802561085 3.5280741676129006 5.752972931455157 0.4730575277553079 0.9432001958566659 -0.47609168659594137
Ni 6.49164150370712 3.369010349831705 3.362919534184106 -0.6356918868914988 -2.74532753925253 -0.042036508245759864
Ni 1.195159464729417 4.705066120800191 9.478576584807985 -0.0008528349185985312 -0.9239565171357055 -0.7615733547783723
Ni 2.1947832163316403 0.429154764361982 6.073295085614173 -2.297830890685462 1.6833601179562687 -1.6183549167294775
Ni 5.865469155864132 4.76489754881713 9.596769432750737 0.5072467720425071 -0.7434553050214229 -1.2096824401184585
Ni 0.8801406544721003 5.185086267553149 2.072496975281004 -0.40994877222028103 0.2712249011531006 -0.5734963871993607
Ni 3.340312798952755 2.1401529342609646 -0.3844595835304164 0.6173648064475368 0.745375147751955 1.6566484129930374
Ni 1.4473055453138464 5.388560571861483 4.851104261672101 -1.1093657080745667 0.6777168251730328 -0.6155125837301464
Ni 2.130079135796621 2.413057974543204 7.7151435639166985 -1.3811984180149954 -0.2166051569256915 0.5835727975987562
Ni 1.3060898704640427 7.538842053491488 1.764314478256918 1.0328769316882085 0.8960572196222761 0.33829829776283027
Ni 3.5641080717213187 6.172647010487018 5.54074792721267 0.28990705094363617 -0.055707063754316964 0.5930910215018366
Ni 1.0192056098490365 6.522483386686723 10.985752794853806 0.18517033545517786 -0.07531995288923803 0.41812719426601536
Ni 1.8128457323442895 0.933487074727619 1.9699030027683209 -0.10457319332740055 0.2154481605031128 -1.0212707149078475
Ni 5.916741505113359 9.070971901816693 11.408414339118663 1.4945485862040777 0.003440650250432784 -2.2176782922942713
Ni 5.80634033879081 7.950991808054421 2.2224478378752974 1.7416066603029876 -0.3028085894966527 -1.237520031156017
Ni 2.7398633115001516 2.844169099766377 10.525536239411686 1.2832031350154287 0.23829601163556383 -0.10446520699462655
Ni 5.223355751936715 3.9080041917613424 0.763416902138732 -1.0301525907785098 -1.395749319245977 1.842078686977821
Ni 6.713757810064959 7.04690489514937 9.151630725662313 -1.442721574230457 -0.23094651324902807 -1.058693892751312
Ni 6.391788626356293 4.459179664986178 12.341641356548967 0.731084956381528 1.288236583674278 -1.9943350453137973
Ni 2.954652389445973 5.868690216423835 3.230490146056509 0.4218406385618606 0.1341457647781948 -2.2236509649379377
Ni 3.474420241009331 8.453167011574976 7.565700041172603 1.0757701315073085 -1.6090758054203964 -0.771106233969472
Ni 4.335009149132201 4.071840289068672 3.6795288001228856 -1.0842997662448746 -0.4769118685043916 -0.5063561419074376
Ni 4.0584724315050265 8.945825030495612 5.206963929870278 1.890601831389189 -0.5820782153311008 -1.86616992359907
P 7.636085233051735 7.889116420928773 7.262552618417198 0.7460253797414442 -0.6570299862476426 -0.37387670908807225
Ni 1.9292692781835665 6.028703015219788 13.372454646675623 0.3740343177118591 -0.44878605680245287 0.10715098135690579
P 2.874290122167463 3.9631637132440938 1.5754599564663117 1.1623456027057077 0.32274955139495387 -0.7394675240182684
Ni 8.637415325517031 3.066203282767171 11.877071350701648 -0.14843904147241532 -0.8208036011945994 0.34762677425260774
P 2.922624280197924 8.272367878628865 0.4498033137686518 -1.5219107802671146 -0.746766628782843 0.2505228927190589
P 1.5732736502053906 4.360248394197758 11.666221456448815 -0.40516832011250226 0.2632912481283207 0.10206971017925648
P 1.0625576175520228 1.2915449114494013 3.895653751343327 0.6453031847290177 -0.4604501234039425 1.2158816269506352
Ni 8.230165597924527 1.7167249053303433 4.5682695950412215 -0.6172743036162595 -0.56805259047597 0.8188937857663962
Ni 5.123803993561725 4.125266095236002 6.755993852593862 -1.9194457522040749 0.6533242552612812 -1.366705109494827
Ni 4.069768955507615 3.3790750234785993 8.60109398965895 0.012255677438901474 0.33451903322605614 0.11973576000045184
Ni 2.13253371169056 7.841265878223141 4.238158336722289 -1.5307206652492606 0.320352511917687 0.4328529305119643
Ni 5.400085216300311 7.4911831319522975 6.222511400403775 1.8561680751913519 -1.194784954181336 0.023009830631611983
Ni 6.405384604356177 5.425570831437006 2.5408327932897667 -0.10778887205122083 1.825097321928476 -1.2613222757819373
Ni 4.427078557198532 2.0727387829434183 2.252442937795579 -0.5179996396836369 -0.2724742001791695 -0.5642077628085831
Ni 4.9902714150044725 1.2962259428010392 9.49981094749492 -0.8604261006822279 0.5528627701094092 0.8649502138048264
Ni 7.777976144392807 7.410583619420098 10.992056218747981 1.2832141907590224 0.2340323512632034 1.9247391393925304
Ni 6.884364521919882 5.456093345805874 7.2142476598025755 -0.6897645003661863 2.4334707235106796 -0.44136611018929794
Ni 5.852101298300487 8.957395299021687 7.9922213832186335 -0.6960976416730658 -0.033440024826000475 0.9053497006677956
Ni 6.970238178937943 0.45998934748762543 6.114201642240671 0.057741577685842496 0.371798743513121 -1.346178450296385
Ni 0.9296181521289942 3.182736326415842 0.5654786245770624 1.538573585634776 0.14393369740289405 -0.30745405868846404
Ni 0.32458435638971844 8.249218216759264 12.65097175560821 2.3898324179954393 -0.7870810121311734 0.7902519536599875
Ni 3.6994473641335883 8.569189065446471 2.634385896673399 -0.8080871820691954 0.37231476391759105 -0.528639121675354
Ni 3.7258363361977933 4.518618725852785 12.271927751234124 0.20660870783461188 -0.1186211867800344 -0.2353922077252075
Ni 1.8241240067119788 3.3723226585659054 3.369450166032775 -0.09024237852702523 -0.07384233990244701 -0.07548681748440547
Ni 2.809823286886133 3.7364393740742132 5.677704137277006 0.751151645224416 0.5822733620610423 1.5064782477621281
Ni 8.422525874579264 5.978972760119541 5.553634906896721 -0.8417809747772148 1.296412177506535 -1.371140005337729
Ni 8.407917041842476 4.4614791189834735 3.5768682164428207 0.3688098360881261 1.982724457658063 1.3958539631446412
Ni 7.234511141912873 2.4581801968314103 9.99866380498208 -0.32992987119347694 -0.05881218504220194 -0.5039182218899063
Ni 8.588214309828858 2.1318311007469415 7.706729569746434 0.6076514358145148 0.8308558432242789 -0.3612860169072552
Ni 3.4360321339989195 6.9281271464081 11.84943957850081 -0.5476745410402504 0.82187677965412 0.8135626033614698
Ni 1.538252600833877 7.071468903723657 6.61341493001709 -0.28256757985942954 0.03889847683741043 -0.5165258833515878
Ni 3.291294279613575 0.46454719380369397 11.41060429530656 0.6041372520136692 -0.88150066196434 -0.34680942055763503
P 6.528368893941706 6.3804282286315575 0.13293490301430388 -0.27317482579061986 -0.16917653113008285 0.17219577757238086
Ni 6.23597324358715 0.8277979641360361 3.5587983404474044 -0.5604598657303766 0.20005650853839096 -0.14758800632602967
P 4.814965422163013 6.858888031600635 3.794756082394522 0.24417689589637304 0.86666873915783 -0.05464956902408008
Ni 5.825730575871182 5.334213159131744 4.883449914567396 1.5653559959349428 0.5595250126209331 0.3516785757244782
P 5.305643355697088 3.133197692482036 10.784477571550822 -1.7356165041578238 -0.3140551089447494 0.6804799897404668
P 6.204948864258555 1.462087749582177 1.1556426178004917 0.213269150573923 -0.8497166846845237 1.8028325969930048
P 8.416868487760519 0.6944332822198566 11.676704959216645 -1.0465073779874494 0.5844734550361547 -0.907465718569534
Ni 7.713609682103423 3.791325151033477 0.8201659668212018 -0.6807746381627501 -0.1556640984659448 1.2177402774259285
