# total energy = -340858.77204962727 ev
CRYSTAL
PRIMVEC
9.34637624202963 0.00000000000000 0.00000000000000

0.00000000000000 9.34637624202963 0.00000000000000

0.00000000000000 0.00000000000000 13.67936637640217

PRIMCOORD
 96 1
Ni 5.39027001107669 5.7665831483297225 1.3482820332150656 2.5246782941644517 2.667571209007658 3.562435693873413
Ni 5.766358835305505 0.9380864136539661 8.286398832690004 0.39925812527565435 1.5862996880661455 0.033347208001878056
Ni -0.04479998412425705 1.0509065184594042 10.39328134395613 1.3102130879453693 -0.27556029530366094 -1.6342664457534113
Ni 6.0295901692248455 4.745940195387675 13.195909954612345 -0.06586497812392528 0.4785236930762017 -0.5123450125010209
Ni 0.5324181786316583 7.568956990670068 8.249246053416364 1.7815263793160607 -1.6301881619189795 -0.20010715927066827
Ni 1.97187971764077 0.1651672875570162 0.9223686131195196 -0.07895420720771563 3.125552044935501 0.5792739131130862
Ni 3.296812634309987 5.77651834602736 0.5499033788694193 -2.1321564591713664 1.240870949906121 -0.26543863348862673
Ni 9.434138479791338 3.475319069707142 11.163047002787621 -3.68367272100974 -1.6390618102595258 1.2159446189780867
Ni 6.691014506634443 8.682858083430578 9.810294597927419 1.3991922834892547 0.9382580213600422 -0.5661898262356185
Ni 1.2557884269541446 7.032746052653931 11.997679315034834 -1.9833055269725133 -2.6276784865777776 1.8504645970486713
Ni 0.8256345560632851 2.7405350270023843 9.003621969511327 -0.08487494356752479 -0.14927644977204613 -1.9533786575060939
Ni 0.8769041016610178 6.012794731536554 4.8949560105634236 -0.014831922806509941 1.61738843905115 -2.090880226130399
Ni 2.3312478751893657 4.942531868362374 8.15692348583641 2.0612179231792758 -0.627510636632287 1.6668358950490003
Ni 6.901027575558161 4.1043208287412885 10.177804383617511 -0.36171050603918353 -1.2302831470879456 -1.0101100703053378
Ni 0.5636285320387331 2.7788364758875375 0.8769340100642468 2.9433947852750344 1.2785715497806882 0.9797977924750416
Ni 3.116577119351154 2.244588276833304 6.661851009573353 4.084140550322779 -1.7676010274842204 1.499843773164746
Ni 3.2645115588226536 7.9498778912955705 11.909981334304165 1.766162752375797 -0.3233805001107334 -0.02740204616203668
Ni 0.9085761660429404 8.361015625558384 2.8115478572816683 0.3572085044037719 0.16229600196016564 2.7362769990144877
Ni 7.211747845979566 1.5881081723325028 10.938294698897607 -1.0998518550468606 1.6534859561046558 -0.09208508816271882
Ni 3.022683425964075 7.802868743048968 7.851039964999695 1.033994076011787 -1.4841029653907214 0.9523273549689146
Ni 2.191827984262125 0.5640341647575265 8.15755343157942 -0.5601567326676611 0.40147955840700533 0.18469519559097222
Ni 1.8483673586809601 3.956722858806115 3.8221107436979382 -0.06135346340681692 0.6555006940873098 0.48141952656675796
Ni 4.901660166074727 2.751545057941064 10.881552850146564 -0.473039787143495 0.39162889086517066 -2.19275838912414
Ni 6.852398381182988 4.278686819566428 7.532036936159055 -0.6610180243611132 1.1775467359261784 0.17886856160686615
P 5.3309205234191195 5.409308579007158 11.421435979296664 -0.8665003319007658 0.8925983145393982 -2.954317859945441
P 1.7533427537967843 7.695834044993142 6.3095253463475895 -1.365507746752616 0.37449943027373567 -2.040089625841093
P 1.7264251908906734 3.501012257356065 6.444801054152411 -2.774320069830138 1.7374838963838657 -0.6124568276229582
P 8.821633074413194 1.2518255635263005 1.9256852542159606 -0.9582876863174077 -0.05269295951834151 0.5893966033693849
P 4.834655996465731 4.285126472636675 5.81394964730607 0.18408301592827006 -1.0182900350129687 1.32925750617133
P 2.6986913016097946 2.8302135048093744 13.582871418052509 -0.802217867772612 -0.7969095681858211 0.43457197008559995
P 5.739749702807694 3.7186332763511625 2.403943053150282 0.21144623843257135 0.41347735419882986 1.573749619315277
P 1.5715557404204463 4.869648828243675 10.813976682325814 5.394614862349335 1.2384451140734478 3.119215304084196
Ni 8.020302834523884 5.55952353422487 11.484744591831676 0.15284128430516902 0.11046153378737748 2.6247566849452926
Ni 1.2510965461975934 1.4126112700102664 12.440043291543937 -0.8064249638754241 -1.3147659974233743 2.2480504768282255
Ni 5.516427394447065 6.662853875719127 4.068598979634638 0.42874379343959707 0.9765342912324214 -1.323804967697191
Ni 3.4529158064134107 0.8231306619304563 11.571964038110679 0.26678229200071474 1.0262391146567165 0.7952517208674239
Ni 8.362819476128132 1.8379741885588785 13.470742010434138 -0.5971477080697134 -1.4772967411021654 -2.485383867440204
Ni 4.085413110074947 8.926004055306436 9.714401714712 -0.5833933345980985 -0.0053116420209005305 0.7083108959098059
Ni 0.23634835260446352 5.091718722219088 9.490894348106393 -2.9466688280406155 0.7417414076541097 -3.206518654587555
Ni 7.896154921995458 8.372848137585862 7.347433859691185 -1.5536204526655695 -1.381923211996162 0.3464612931895969
Ni 3.689463236826867 7.874461983278415 4.89360172067971 -1.1358483277461278 0.48753978053188296 1.1966371768987263
Ni 8.791509704535974 3.0782850168420093 6.927928314987454 0.6765474874552799 -0.9652013827181056 -2.1622239679807085
Ni 4.380123038392823 0.9112585759575424 0.9351320241975003 -0.1017606635792699 -0.5612371102160335 0.7061552830193839
Ni 1.4586702109829448 8.419944526295545 10.409026248981004 0.7921512275652293 2.140261090556372 -1.9992278546297244
Ni 8.703036909234152 3.3810795604077275 2.9123373068882366 -1.2177366778815029 -1.3424688626552814 -0.20084635142953797
Ni 0.7023708107053163 1.7182284191307224 3.7952445858598773 -0.435253826643973 -0.6251938155736524 -0.12346540224621316
Ni 1.030811810039912 6.514321268183046 1.2794992482515446 -0.20450451700741554 -0.5404183736984693 -0.6081299181128301
Ni 6.060947260735262 6.385191737241788 9.571534880312615 0.4433551155948687 -0.958424211895272 -0.908065556937062
Ni 6.681256890080978 2.6639508219840953 0.9919495785942147 0.7104575099391636 -0.5677620558187447 0.69427498664203
Ni 6.289026874484506 7.363280640214557 11.61045802234162 -0.1144616560857061 0.6385054450808939 2.683667857459204
Ni 7.969953906963045 5.027434348028731 0.7665533093971748 1.2694503042057106 -0.9791442180514428 -0.7301187358135167
Ni 2.9956443601698464 5.898647441337828 6.037620575491836 0.31978661211188797 -1.125211931078204 -0.7115859671166519
Ni 3.5711007310480523 4.329652607943866 12.15306375082316 -0.7064717858185381 0.6685783532068743 -0.20278830564725722
Ni 4.896519659269741 9.19510491335947 3.4638202233031876 0.5182215258864559 1.7946125230760577 -0.09250983440496327
Ni 7.893537936712919 5.456264772076706 5.893686384952216 -0.47519077204822674 1.6488222320803991 -1.706028763198378
Ni 3.4588227160511402 7.872237545788258 2.3446711404135865 -1.126435261962344 -0.653769570328816 -0.71212204212578
P 6.058442431964833 8.078007360003859 1.8876838240006981 0.7388777129530695 0.3245135852739121 0.6697988558775368
P 2.5692253011322097 7.764726182555969 0.24865379125800008 0.16973677450892705 -1.4093106028701794 -1.7465632329773146
P 9.387219672225825 0.2535157760579163 8.290475721905159 -0.3253890459003299 1.435836931295482 0.20860491232903428
P 3.654619947065068 1.6744873794082926 9.314977793501349 0.24199120109896388 1.1625381783324882 -0.01767556290289214
P 7.772231322491249 2.3982987766784065 4.7882157233518825 1.2977607211146296 -0.2984716526841956 0.032716516396414624
P 8.548765626828505 7.68654374724013 4.8685954916674525 -0.09421036203583774 0.5342970912920798 -0.13280184915579066
P 5.560093663161423 0.2351295851728813 11.34781364083565 -0.1209529202370046 -0.3223487164121094 1.8139844998447663
P 7.6967686825940484 2.5918248383221316 8.620257926197054 -1.175300363094163 -0.9291540021762449 1.8103713285722112
Ni 4.056523461830924 2.3892234455736037 4.374250710346327 0.08665003319007658 -0.4226675053385301 0.33690758806289073
Ni 8.092447510937866 6.821377759208898 2.0735047332625487 -1.049583702919928 1.98259050318336 1.2260557392701594
Ni 3.4021275991801447 6.490581473120018 9.813892018053307 0.12278483123942077 -0.686994650930533 0.9803891462021375
Ni 6.440905484631831 8.969296468980431 5.427069497337187 0.5590233903941663 1.6305126351379338 0.2549547032381674
Ni 9.09922978825847 8.713504850364306 0.9764149670295458 -1.4900288439568532 -0.018381330720665116 -2.197235451058887
Ni 4.381581073050238 4.640120526213027 3.7153433519959713 -0.40514260908088934 0.1103103529214939 -0.006555541730330645
Ni 4.7865875846511035 7.757277120876743 0.2571636666142548 -0.002029114614886828 0.5112638636217002 -1.4648510591396449
Ni 4.813720114205423 5.8644957834007 7.613045715580035 -0.24493588554958465 -0.853208499887866 -0.5217256823849724
Ni 7.296388627117671 9.609943812521873 3.3899249706627077 1.66109719279301 0.358188351818538 -1.137120509590332
Ni 8.679054108394888 7.285602909203208 10.247267584754493 -0.4552868340354481 0.9129668508934212 -0.40690227208447344
Ni 4.386553345087061 3.9602557889375425 0.8067773078273932 -1.4404682594199063 -4.780934446731921 0.2428818312340333
Ni 7.097198661612451 5.074100803441999 3.4188426580347584 0.2055661255027105 -0.4829655308976392 0.11303855048593436
Ni 5.292656460038002 8.159320831282734 8.03575239406687 1.2382900765528222 -1.9225382750864697 -2.389316140480653
Ni 8.766386645823603 0.5376409335455244 5.826438274929383 0.3049837427711006 0.8102163125970563 -0.6582114081502535
Ni 6.143821576807653 2.186014538384486 6.19195167470394 -0.4307322846245356 0.3146096958966388 -0.3614215140438549
Ni 2.8288956657920963 2.3974202173335546 2.260296730991741 0.10290943247173244 1.2687846455972536 -1.3565587650894444
Ni 5.372792287939736 2.0637452474338818 12.930133602505737 0.28420382991127185 -0.538154517364957 -0.7352727692106306
Ni 1.0764782032202094 4.63619504828922 13.020280333750781 0.5191229546548027 0.6079612537454496 0.48594081147587925
Ni 2.116131684964698 2.64108958626592 10.935969320546551 2.744327637233106 0.9703926971110578 -2.0140641483116086
Ni 6.805750618521739 9.29381199039122 13.637780442468172 -1.7407893066080147 -0.16351650463082804 0.7309702851805345
Ni 2.0100690100138148 0.6410903617642728 5.410038530973466 0.5134891534077931 -1.8416940499448928 -0.01081457411700073
Ni 0.6128428095520722 5.1711909574241774 6.904222166878059 -1.512664836188814 0.9393581964027564 0.8802012264266261
Ni 5.051753618404321 3.2265465794738266 8.241052085569216 -1.717558103994216 -0.2606918628322607 0.8703513302157396
Ni 8.456498202867003 9.234191457829386 12.094666658880914 0.9411970493837081 -2.312935350427068 -0.03836368737986296
P 2.802987511494964 6.0126638822724265 3.2168394333508106 -0.7408250664874274 -0.006280176581756926 0.5852363013441082
P 7.357551311721 3.452971884669465 12.405091583820434 1.7246594909256876 -1.5539942910652207 -0.9296723365735603
P 8.22112841583069 5.927593167837906 8.035272924977606 -1.1308009951302074 1.7102646556565964 0.27767605609508306
P 2.5465509929342147 0.5849046223857713 3.1519858648615013 0.7059249121761326 -1.4979241875445302 0.9267191674825073
P 9.454420115731013 5.280384668338098 2.90787721625671 0.0032352191078460412 0.7998740501307837 0.1469891963997662
P 8.651706612192362 6.9288050050571055 13.27898428313133 0.0944312197973922 -0.0005229623830055509 -0.22633935349431988
P 4.52829113726455 0.6205535697595517 5.633764602777686 -0.5645983133787825 0.3322343509569375 0.007847778179192934
P 5.90443284808744 7.145631582091432 6.0421900187226685 -0.6158902787845394 -2.558133231388788 2.103187582742842
