# total energy = -340885.0451810315 ev
CRYSTAL
PRIMVEC
9.12193968131453 0.00000000000000 0.00000000000000

0.00000000000000 9.12193968131453 0.00000000000000

0.00000000000000 0.00000000000000 13.35088078339971

PRIMCOORD
 96 1
Ni 6.86726080559449 2.09146010977937 11.97615369358962 -1.8474345519730955 0.9944957608068486 -1.2231447362709515
Ni 4.786984193990215 0.5901265626356117 6.121258535931122 0.1591497430217001 -1.0417575220072899 -1.0434469938945707
Ni 2.8642252385748037 2.0111779177410227 5.045578416148867 0.144933342312002 0.06882560341414598 0.41302972513845
Ni 3.4881385539761047 4.9607389029944695 5.136724838469872 1.1280715120141862 0.010376715248633742 -0.4489459794190848
Ni 3.384969415019883 3.2437070555259786 2.8713741027834674 1.9035301094150832 -0.4063068045923196 1.6451365556986959
Ni 5.438372792020706 4.563286864668957 2.7871703888320094 -3.1063227643922438 0.7889864566840025 -0.014462969502865413
Ni 5.22222842884054 3.1092770289302365 0.7323667940743528 -0.015154082032619063 0.007751361810644716 -0.49685231618206044
Ni 6.077364673884841 8.542842558684812 12.62201622049901 -0.2375336795482425 -1.7507901265744685 -0.3153833408378698
Ni 2.60407663787697 5.450021509124782 11.548258093429228 -1.0074410081136067 -0.7650530857968566 0.9972972348113857
Ni 1.0266287129821405 8.22913904951554 11.931348549758924 0.2864545736186615 -1.562411311484322 -0.41151971625182676
Ni 0.5348439587690964 0.684173761807906 4.934579004082122 0.40291989039795767 -0.267406555848275 0.69086338985732
Ni 9.07535403745116 2.7310905274283788 1.39474003199265 -0.8121263851355756 0.5119619181299893 0.34514745947417974
Ni 1.5841799164553678 1.5119888850053644 2.9242831779182046 0.4258834411726665 -0.3229542112065922 -0.5251974429836568
Ni 2.0420009522709144 6.900856909818695 0.5704633092373771 0.08034877356239711 0.06892947598186194 -0.47577569801741937
Ni 7.42930000344141 4.331899740109847 3.750649737077975 3.1749665908128866 -2.596133364781645 0.6966550568384324
Ni 7.700458785458443 4.448149740716222 12.828928268423862 0.1567316204985107 -0.2060122119011936 -0.7221817403546272
Ni 8.145718910191523 -0.04501312405776952 7.031041585638998 0.05664037420186374 0.20503904935464684 -0.539174216878723
Ni 6.931807651505562 0.9761752640372365 0.6574638099265874 0.29188448638498116 -0.04366221677464093 2.1920893880815733
Ni 1.9562091086030744 6.661734380322815 9.691671513594383 0.4911560371282315 1.3980900515640116 -0.9005985591360552
Ni 0.012746086460082144 5.349579830163954 1.3267651611107778 0.19456283241367137 -0.15203755745695105 0.609357362762028
Ni 6.730249270039897 1.973540794192537 7.255189538785581 -0.8484370466411517 0.00982624206180243 -1.3288911239708467
Ni 3.3694621173872052 4.7642340761690996 0.8587020113058375 2.0999999290434803 -0.2331139532139921 -1.5212109259866124
Ni 6.59079305462321 6.040457305519069 5.084802757219756 -1.1303065719922922 -0.5747531424245972 1.500787368024938
Ni 5.188851251171148 3.00618998743207 9.985818496060894 0.8971499384658227 0.6568479521438236 -0.708960870788979
P 0.43917031773332765 6.105505858118257 12.516170704410182 -0.2468271890350265 -0.502911892112579 -0.3828920252128051
P 4.041220006955208 6.285244559620768 12.894093581852283 0.8177905253998884 1.7241416707490047 -0.3567156239277534
P 2.4948140431450843 8.940878401156498 1.6002764913980867 0.07171758024996036 -0.44424368884740917 0.15199719113731888
P 6.637096020966427 8.002340260667747 5.923878915080474 -1.2286777502740387 1.4061540595190687 0.34431699315308445
P 4.842856075166772 1.3105582106966733 12.97542753354772 0.06096188439535308 -0.3916450888150868 -0.3991938476966222
P 4.117616252645602 6.580740676981321 8.281230798845638 0.7063969667165447 0.957122205254397 -1.0186060235914909
P 4.9558495432702845 1.3583662971042383 4.0684936947151735 -0.47914101494522643 0.6449496580443409 0.13426454974424618
P 0.02455991067424688 5.868791520725334 3.6427207699424997 -0.4927146398646031 0.5672990001393973 -0.5701950907402696
Ni 0.6712251682846206 7.684039293847374 2.4426502304906936 0.7009943076437347 -0.9073803579445793 0.8437460689233856
Ni 1.5568049751638011 6.7624041077782415 4.8605480773776994 1.4529908173669495 0.504199500575751 0.18832842146818532
Ni 6.430155695028243 5.907477667348971 9.33262649053512 -0.4915054500478503 -0.28986282796926205 -0.8412891227424607
Ni 8.86377976610274 2.459028673372736 10.573216686507134 0.8947151037720849 0.8798908942750588 -0.4503621430403211
Ni 2.4433206930648126 5.777745439741952 7.161959665417928 -0.43513941255329575 -0.09003874715665139 0.4099544286472359
Ni 0.9759472155426383 0.00963276841182763 9.390208735421163 0.33552741988591245 0.43080530395431604 -0.2871965939910086
Ni 1.6243164515046498 1.3545624482143404 12.163934297205643 0.3914414574447129 0.5443094812227594 -0.9561094477191664
Ni 4.730254850473968 7.635994037005427 1.6212505675432716 -1.5795765104096988 -0.3416001084425536 0.1532673160989941
Ni 5.573824475872248 8.213166532953883 8.141914149107645 0.556381581895945 0.39295583720671035 0.1990578920705475
Ni 7.260954604729025 1.472946982730154 4.8498945639040505 -0.70352427315444 -0.25274689695357117 1.0320582924416548
Ni 0.8685810720918311 7.654985915635565 7.037196158411214 -0.026434282932128666 0.08957954813204573 0.4031065524874671
Ni 5.290953123172652 4.859348542296114 7.155738502485288 0.11578500288281994 0.3842464823581705 0.030944512097656387
Ni 8.666919183625797 7.361168235195254 9.958155301472155 0.0477196746734662 -1.6721650205713976 -0.6727859635303187
Ni 4.908461066092779 0.313204539063092 10.817537809485874 -0.33489235740507484 0.941974808089997 -0.9573875431006414
Ni 8.474355034787083 7.685252511838636 4.629097099240103 -0.8614751107720325 0.7032607350804081 0.6335221329336896
Ni 7.568190658591492 6.589306178438429 7.253106087738933 0.9224773614870176 -0.6103063569388586 0.8961580068661984
Ni 2.876612832801377 6.018062943349526 2.7845533043080004 -0.15337813064524553 0.5856823877425913 0.46849536230592215
Ni 3.7907224185487696 4.90335277981378 9.387297924436112 -0.6212867672097623 -2.310877696567091 0.2741875833258504
Ni 1.5298587650420787 4.351338593789397 3.907896471655256 -1.4981437597545038 -0.8579249315269288 -0.7377502842168455
Ni 0.43642370166438704 0.2195431979436578 0.7930596204267155 1.2169419498943492 -0.2664040827256896 0.3342284985688308
Ni 1.2460569744845207 3.829591003968085 8.30440782344864 -0.27584645908551203 0.22265753376735847 0.640959048827709
Ni 5.278282748812776 3.3491931671873183 4.952615815616881 0.10458707728447149 -0.6309186338725715 0.3985346168460685
Ni 4.229177576203037 7.2109937405324525 5.883105668634273 -0.0742755707851237 0.19269132642257136 0.6658570976209693
Ni 8.14100286732323 7.505741858830723 0.19637711966839502 0.0971704731054262 -0.2523108378574171 -0.13903960253538633
P 0.35568176386092965 5.939513919870126 8.40766362083281 -0.6782606134916448 -0.38464988844417625 -0.8088271455590135
P 8.596406589096036 1.3958392257366132 8.531039680798388 2.284253923331976 1.2595356161951599 -0.9836171662211318
P 1.9680949961415322 3.459103419643863 10.68879531234541 -1.3065682921039306 0.044360014172613926 -1.0358810086218546
P 4.700991667647129 6.352008036899335 3.856788979627844 -0.7822915611623301 -0.5655599059611034 -0.3462890292777907
P 7.190369034680992 4.098615252075681 10.534258706077935 -1.2663636948605868 -0.11142364059033069 0.13603886803584958
P 6.654911169364437 8.128186541926812 10.264771063429317 -1.2588558165193158 -0.5016787910364263 -0.10973108337925618
P 2.3255382065747385 8.99520867450957 5.902051025371513 0.3243865727777446 -0.21496967820479754 -0.35526269353131074
P 6.956646693537197 4.164913510425267 1.4481033797286267 1.4349097914955222 -0.10465392596666492 -0.043118428456028965
Ni 2.8934428117027235 2.129425623160077 0.8819647821428098 -1.271819061548203 -0.4220530116829828 -2.019390445620529
Ni 1.6442934996314513 1.5580090712152797 7.4889228262571175 -0.24287103260075593 -0.6133567137294081 -0.295425152548388
Ni 6.859415937380311 1.4578684162673214 9.537508906858049 -1.933112708168206 -0.9315276446147441 0.8243848907879543
Ni 3.156136433600273 1.8952563069668698 9.684688668689788 -0.7030915564923956 -1.346288750622004 -1.1268155281198982
Ni 6.471760862382737 2.160805096016788 2.743084966050265 0.5640810074227317 0.990423647620004 -0.7427981310533981
Ni 4.373048810475145 6.863146810751938 10.507530510317048 0.5869998210024342 1.7014138901341858 1.0573823730287402
Ni 6.974124330163202 6.350311356099525 11.54146316048418 0.2545590104616454 0.29308107779624365 0.7771627245761971
Ni 7.681047297598246 3.9628990319704043 7.99828555843379 0.8016475970914387 1.2075291412208817 1.6662383706743173
Ni 3.4901088929694333 8.55575010347907 12.764270134847425 -0.023714312897804322 0.2925403748014252 0.24867195555324914
Ni 0.16432171107369478 4.861318881289441 10.462631410506578 0.03168627535968736 1.0911142180635467 0.40624946899182296
Ni 9.037051012298447 2.615679745282126 6.3666077015235105 -0.7148494683592721 0.09650172917317573 -0.430653094647168
Ni 3.6289630603603804 2.8780449773474537 11.795396071413244 0.5244245693733742 -0.5351247293996977 1.6662316858060984
Ni 0.8742038357746441 3.704647794747628 12.6594125248372 0.7709846207899432 0.04904456413247682 0.32032371556228056
Ni 2.939061632562146 8.755703023542765 7.96251843254101 1.6282708902916085 -0.7652554316156498 0.6614972779903769
Ni 5.536333303360307 8.266511636810291 3.870353304086545 2.5366601491166767 1.1536812421624905 0.6568320113042236
Ni 3.2614857161648536 8.691302128668237 3.8691519446170015 -1.3902505009149346 0.20197326594512957 -0.24170683708932564
Ni 3.4985649311491342 3.166252664820649 7.464397578954049 0.304660812214043 0.4771401824651137 -0.5536001624960659
Ni 5.197252557712146 4.547505908842762 11.844247707732091 0.7736030322493967 0.9393219438481822 -0.03715166934963279
Ni 8.329069899848468 0.3354949111190977 2.873042505569948 -0.9980302563226684 -0.5928511375768887 -0.31031081141096883
Ni 4.4268408893809665 0.9131426601302962 2.0103222797892903 0.5963483520968698 -0.3804109106621642 -0.09106847397274638
Ni 5.9538353653308915 5.968822712395884 0.5143478722685892 0.654589238016634 -0.30275793876437535 -0.16305602005464176
Ni 8.257189014351118 9.341778532720335 11.005211686406422 -0.15101914349476572 0.5622454968758898 1.537202159208546
Ni 9.1074541435508 5.035684760259219 5.863292815423582 -0.6810988542713884 0.9532591227545647 -0.01445448486243317
Ni 7.039537760353748 6.4063383102524085 2.9218138688186954 0.5546746265071674 0.41273276272332143 -1.9037856770693145
P -0.32604366930897016 2.3099396895442217 3.519665802257315 -0.8490942206091764 0.3765701967598353 1.4382535111567747
P 1.789925268281857 3.8799076238162304 1.7096467250194227 -2.2178199600784576 -0.17513814803015643 -0.284502077877981
P 4.745087124562635 1.4390042447941591 8.028592291171911 -0.12441053976830187 0.3474863920200016 2.2549222642473943
P 8.692725151274528 1.6393676521481304 12.933705605363992 0.5466299018258198 0.8246952229395216 -2.3433183335942998
P 6.806554296332451 8.149312954466389 1.8553852203653 0.05819434895254494 1.6163098612749907 -1.677408014137892
P 1.820657083413909 3.939528622243982 5.971047553509185 0.4052161426313022 -2.152336019443035 2.2538529424426152
P 7.093293351500433 4.009685461122169 5.954519510814687 -0.21425362597437936 -0.5553891360756887 0.7172254247906164
P 2.815851591900635 8.875364629628328 10.541174960822108 -0.7093915305684945 -0.3848573764692921 0.4476239181735517
