# total energy = -381169.18754925655 ev
CRYSTAL
PRIMVEC
9.29328656204064 0.00000000000000 0.00000000000000

0.00000000000000 9.29328656204064 0.00000000000000

0.00000000000000 0.00000000000000 13.60166426335850

PRIMCOORD
 96 1
Ni 7.384129326725672 4.760662482502942 4.729665655359117 0.07147872476627688 -0.13522999898130902 -0.4533844748064127
Ni 0.3474518124234153 8.771468279576556 5.642037755729664 -1.1127521080482965 -0.44882822289429797 0.8925180961207662
Ni 2.4336886445752928 1.2321317782604213 0.504998107177007 0.6492737393409915 0.8439013635543272 3.050100451564405
Ni 7.631563074613288 0.49551430850210326 1.2814159341964813 -0.15232989188638926 -0.7423013939226377 0.6239458020991642
Ni 8.914928740276691 7.246913954422925 1.7482493025021242 -0.5423721549907304 1.056723913509135 -1.227434107674925
Ni 6.822796247292517 4.020489401404087 12.06243191800216 0.562975947284011 -0.6795135120621395 0.7516962048739765
Ni 0.9155438989866607 1.7218229135634116 6.733340931971706 -0.5589413722033213 0.27244231849996947 -0.2526137138098165
Ni 8.642384532791242 5.228979059302966 11.185464450470203 0.34851071951945783 0.8817384890067588 -0.6155899739353011
Ni 1.1906186683331357 1.547452982610723 4.433299037757795 -1.0537018388533594 -2.1634187596197583 0.042691368220939385
Ni 0.2968684550618269 6.7608100276339105 9.273042740078566 -0.03796439505891526 -1.2036377765862754 -0.7427184268553984
Ni 6.479762463178802 4.262096258778068 6.993254634039162 0.6351943784297899 -0.7506507943285975 -1.3430910696203127
Ni 1.2616100824219052 7.339781764475167 3.456141579893384 0.23370710671330075 0.30587925800217647 0.7698049986595451
Ni 5.772952279917188 8.77254630078801 8.158835330407648 -2.4413987201085052 0.28529654875481836 -0.525665897979643
Ni 5.612336412696845 6.0774189258625055 7.995629424293923 -1.141037842366867 3.0737137201079707 0.4404106882545641
Ni 0.22557500916812395 2.684486562105549 8.908450390393032 -0.8263774957379509 -2.945665840697398 0.18599591668026677
Ni 4.136162936050366 7.335404626625212 6.177834743052186 0.39971552452804704 -0.2310951230117504 -0.004917234795959273
Ni 7.364734238205806 2.763693241288503 0.5147226019672266 0.07113985336961942 -0.027079629825611427 0.42272329827713
Ni 0.7875270214692341 0.052928053496500885 2.3994828456701307 -0.46052494250593595 0.7175516977817836 -1.2317556178684141
Ni 2.5006839455526384 8.7669238625731 5.15014782888676 1.1945802943696975 0.1036167429514022 -0.2769692598360456
Ni 5.22140503096387 2.546537020184657 8.292594529533329 0.10947962949008241 0.2995229767668454 1.3029512641766334
Ni 1.2827523087672321 3.5371827537930707 11.379587261465524 0.6457413007077007 -0.012873770638874602 0.04694422996002238
Ni 6.247393132392626 7.798368270513186 0.572899503569152 -1.0661999713203703 1.995313864287299 1.6237002402017908
Ni 3.7602959714188313 2.2840667350545187 12.677893743522503 0.35696887758914003 -0.20847841405349898 -0.25952201089387567
Ni 8.837757290794674 3.8111209542243665 6.641079973515223 1.3116853016155217 2.1631541931044613 -0.8607120073537627
P 6.321674369833592 8.804626725115073 2.9899448016996777 -0.2675284261381199 -0.1599547554214987 -0.3242973554980479
Ni 8.20457781493263 6.100940233502075 7.044764532045423 -0.36505756813454543 0.5850334413046827 0.5513257646395925
P 2.6529172685252966 6.341859387689438 -0.17228823482022543 2.3118475166795283 -0.427655959692057 -0.08995107253885154
Ni 7.121789147603813 2.1063047546002722 9.767150974362627 1.281420332083393 -1.0904652716256382 -0.09705605901474898
P 7.380802330228254 4.295895941071674 2.2313803070019644 -0.4174309395299392 0.1503246885309024 0.021200288226698973
P 1.6494839729603243 7.665279117330142 7.2748774529165905 0.7867439405067289 -1.4068194610172093 -1.1251486819404364
P 5.153591920791629 2.1951578649684786 0.9471847508714668 -0.643348117885176 0.1653389025515475 -2.765574205316708
Ni 1.2104691278819788 1.3939557727004979 12.261165128333708 -0.5061941624082766 -0.15253943679403406 -0.9026487567968647
Ni 5.689805247340645 5.654500052665525 11.003324402837368 0.7311422919820246 1.4350961964747155 0.5138984730310698
Ni 8.44260675707894 8.947854853657567 12.761801896247478 -0.13198989477745657 -0.4826708824753558 1.2076525541726233
Ni 4.94229976334664 5.273112875968441 4.364352146656265 1.016690808846649 0.6650076051364805 0.3483698230662194
Ni 6.4650883641022 8.41443880628655 11.444643982919514 -0.4615834656774373 -1.2110623511851206 -0.18143992187846814
Ni 2.830892994564573 4.394349016193605 4.125779547261076 1.0358226445800933 -0.8775087671961274 -0.49718167449702116
Ni 0.6410127868890656 6.306498433296485 13.305637576224377 -1.6284881485087375 0.1479317628186936 -0.6911966048270225
Ni 6.477141756440612 4.497234988883324 9.272349460920164 3.0883646372519262 -1.6160563505032877 1.1305251157610015
Ni 1.5329647492602332 2.839173312662896 2.5805216388757444 -0.2631794051408048 0.3319399596449703 -1.6326597633879238
Ni 5.471347966154008 4.295719368631867 0.5381742099595046 0.7198620910825151 -0.21266596977228536 -0.8425481919605425
Ni 8.838556513416957 -0.002964558331498566 10.442377924114528 -1.0708212721424657 2.3402093556516728 -1.7450169715361175
Ni 2.4510577966805305 4.18611434994317 0.18334631619530425 -1.0158564858708117 -0.5487374350871259 0.661401632952777
Ni 3.4148645194382614 9.20929358400778 12.085282250370462 1.3783457790575488 0.21674399649640091 -0.6202524124079769
Ni 2.7907645842968267 2.1927230239564013 8.102973386424457 -0.13141782432407045 1.0756935126331022 0.040524956697239885
Ni 4.341247178243188 7.8157188360458125 3.3168881899038105 -0.41620143799821224 -0.8139384986436498 0.005296472512248943
Ni 1.8170698049098968 8.243386578544975 10.234884862111285 1.3967163111449366 -0.3598958214279479 0.7171158957959456
Ni 3.041283703237914 6.271750835799704 8.298212321105087 -1.0991286037275907 1.1150982396829698 0.012731588634055494
Ni 8.365295908302336 7.101195225150519 4.344113227739847 -1.303799728219858 1.0774860857571507 1.1873675786713422
Ni 0.9053658918247257 6.1117947919070605 5.729782177041607 0.3788746765232959 0.5640720085616672 -0.5204565858645617
Ni 0.9751817051958322 3.7036905645311893 4.755481475387549 -3.2950414793203127 0.43937941877657233 0.21678539125729765
Ni 1.748364539252314 5.399157718131811 2.1638748046064396 1.551909897732366 -0.07354923414206044 -0.8788200298083834
Ni 8.169951030157822 0.2590187585962239 3.884662446075403 -0.5873345786340336 -0.450665790323669 0.4731860829133721
Ni 2.252246522744014 6.008955285648869 11.08773625168011 -0.5175594668224247 0.03212233445584145 0.12391945906449625
Ni 2.792623241557955 7.696504559317087 1.487750123397412 -0.09290706984338193 0.3015304941151775 0.4548659444479457
Ni 7.149511020653532 7.303900386049098 9.248519616175248 0.7972181005651754 -0.17293548395188282 1.2515186594279541
P 7.66349480635946 9.460007861961286 8.54415728452654 0.771406281708394 0.8986008119797362 0.22136632575976067
Ni 0.557870400955674 9.124975597356725 8.172178630885282 -1.1095243451396182 0.9215203968903871 0.4093679600161466
P 3.1204067428441173 2.983312183263344 10.186055147875571 0.9261586669933469 -1.6558374870559673 1.8074379569755001
Ni 4.151283112869639 4.634441067899766 6.950328015264789 -0.027321570633088425 -1.1127654777847353 -0.9331854919331412
P 4.261743113898454 1.0460801864215457 7.0649086594415245 -0.1865106515331562 -2.1185746067218743 -0.03559898015053224
P 2.889124726555701 6.413947409562272 4.4567487870928115 0.9991617988239502 1.704829343573638 0.40106329680519315
P 8.230366684430775 2.126099454431282 5.155261924340752 0.459779322589163 0.08992510439692256 0.14068356589671255
Ni 3.1891770615058395 9.066734572079291 8.459704545224051 0.2224683005746878 -1.0517683692760724 -0.9290447302918904
Ni 1.9204204419148985 4.316424810520829 6.812801317870804 -0.1367916870414741 -0.48115675982367456 0.6799703970939
Ni 3.8678750536928983 4.493071596618398 12.090967882932249 0.7491148173000454 0.9345150093778422 -0.9995574916004719
Ni 1.7116002986272096 8.643806405596004 13.256480738310707 -2.54931614731779 -2.6804223539387126 0.16567340307283082
Ni 3.12393819164026 2.3320479722505287 5.68953481270915 0.4786725599492402 0.17917992219969786 -0.8166450989415356
Ni 5.67933171367419 2.102336521347765 6.076162473553983 1.203791014334688 1.0956434733924678 -2.547762172567109
Ni 4.203529968479937 7.326464485199187 10.261748035506363 0.24771344829472175 0.4792909102595294 -0.8081213777412405
Ni 1.7449167300329225 4.187898660913853 9.22866079266873 0.6395976497038082 3.1432029252480445 -1.1667082505497777
Ni 3.6857173488160853 3.322247628116272 2.1444378962981974 0.9534352433211128 0.026910965458231073 -1.2025561134863225
Ni 6.655201122056639 6.598893100330778 2.639756116459252 0.28112313410341905 -0.5470469347585803 0.2946270821271248
Ni 8.560287641567236 2.3383395270794454 2.8118175950936197 -0.522186681181791 1.2567115164828035 0.19033413904430446
Ni 8.256164847215226 1.8834610422773754 11.944260347996925 -0.4642165324249102 0.8669371623278682 -0.15362572787967735
Ni 9.039198564755685 5.437724856300209 3.040638749168303 -0.47706819157659774 -2.3554804228781303 0.08028732419684237
Ni 2.829238789602169 0.7835467069445294 2.989006179782808 1.9225930395838051 -0.30196269655658964 -0.08773478161382309
Ni 4.566395625569883 5.881971821568629 1.7922911156331738 -1.5709679428050816 0.5562363145673324 0.06632340581758256
Ni 4.6010595834899135 9.485564399301792 0.732375084559794 -0.4272504967235222 -0.7717667503716064 0.34306897967859623
Ni 4.248732513070561 4.618995626059795 9.448449801782964 -1.2742497824768828 0.39079739610281083 0.4024131259648682
Ni 9.280675316121386 3.8863965733000354 13.199340038131858 -0.40280650474854496 -0.19501663212163833 0.7042639795339419
Ni 7.712442545331257 2.163774437114339 7.377624026311725 -1.2885518009218517 -3.0390948444825208 0.6014936437432351
Ni 6.101023873078826 2.0796516094757025 2.7323153894061463 0.7631335001766405 -0.5175705225660182 1.6115134683276116
Ni 4.574657357095596 7.053121055091452 12.589169809833944 -0.27624729406835646 -0.12431592317196653 0.829238876446146
Ni 6.005033518827889 1.1215974309411612 12.484654724054845 0.2561304687138234 0.3833805348134494 0.9399899164494844
Ni 7.471318938845169 6.455274653763446 13.243735925471153 1.2766067127448335 -2.302369916206396 -1.874738124884055
Ni 1.7413202282326405 1.1467264771116066 9.84680187263099 0.29041690070051923 1.3190682243431542 1.6070083813684066
Ni 5.281476833643516 2.666662038971335 10.933561561198205 -1.4017595299957988 1.3814550141104918 -0.8863489911955768
P 9.429711748604905 7.646581025283198 11.390060795131978 0.5028576418358759 -3.9396458382100925 1.6872363130822234
Ni 6.821829745516731 8.443062128107915 5.955529112006386 0.40968292015340413 0.591922198004716 -0.3484508128157999
P 4.614469795628949 3.010448579275807 4.0110901716345655 0.2142762516821987 -0.0219973302066976 2.1617380294832254
Ni 4.787324920913819 0.38044576679432235 4.509251208076514 0.5766650147353294 1.1624083376228433 0.7157146445730448
P 8.66026481564329 4.496863257431099 8.776446693050486 -1.016482806600901 2.7910849479933026 0.22263028007384883
P 6.229559315972106 6.418519706424647 5.965907854152523 0.15201364619755112 -0.9462143000926415 -1.037897010610619
P 0.34909393611362155 1.627765562864048 0.8391112657659399 -1.1166352451527866 0.5725237388734462 -0.27258501472542085
Ni 4.7090011039299 0.44031869314702665 10.290597184184955 0.4941470014357554 0.3808940209461698 -0.54543048220108
