# total energy = -340892.75008654996 ev
CRYSTAL
PRIMVEC
9.06187735446186 0.00000000000000 0.00000000000000

0.00000000000000 9.06187735446186 0.00000000000000

0.00000000000000 0.00000000000000 13.26297349685972

PRIMCOORD
 96 1
Ni 6.453243609948424 1.7560649181084174 11.532367735449194 0.11543610418383345 0.6289476261891297 -0.5352874802298071
Ni 4.650084116486734 0.31698899233118744 5.9607777106491024 -0.33578350176077654 0.11772412888706178 0.22940282291099204
Ni 2.9341542521092467 1.9574741988091784 4.741021865685341 -0.6439996354262457 -1.743868716864287 0.4878285154168953
Ni 3.399898488179449 4.288714580997444 4.538019506988217 0.49404107198551034 -0.30573990421083475 1.278765153848733
Ni 5.189655465391862 4.603478882497531 2.640233174155449 0.13533412865934114 0.6536993792125129 0.3968834543958906
Ni 7.351991520081636 6.250728780239947 2.491688165965442 0.3924423879054016 -1.0216952040397758 0.35326648903688834
Ni 4.9115555186886475 4.589206426045462 11.360161259930932 -0.508624369116324 0.05012237057768787 1.0726074175086109
Ni 5.572266040832678 7.664345362269818 12.543947796072343 -0.6286727752611883 0.28605630973897833 0.36891525131773883
Ni 1.8385098760772611 6.308915093178829 0.4340186042996018 0.36115900441108767 0.8942031971326728 0.20376455351759745
Ni 2.9078023134663145 1.628636802153495 0.7056710254373263 0.4164562343214957 -1.270834586147747 -1.4102032898877779
Ni 0.5235544811089183 -0.021767535011756416 4.764802949791479 0.09281065347483371 0.3686375721763199 -0.4491691511734845
Ni 8.737180993609831 2.1279824785565697 1.3703307136269502 -0.14639115780445114 0.3518079022134909 0.3795544761991399
Ni 7.064213488622352 0.6371940448495745 4.916981770703568 -0.26426003979949325 0.4581780395403141 -0.5698618757705669
Ni 0.7566477089455627 7.382783778509657 2.2904891208136897 0.295942972725071 -1.3078080780483026 0.9879080802870018
Ni 7.604500725819363 3.9278887581348996 3.7174257560111146 0.17617713081763206 0.20778858707532605 0.3262225975452188
Ni 7.548054293286066 3.641651245784727 12.727109174831815 1.088665499412738 0.4576388792073925 -0.7006433520622192
Ni 7.779576191631416 8.72047995409163 7.047493419162215 -0.20236227385343214 0.9193120763851585 0.07943911726393416
Ni 6.745162919248087 0.6937492199082198 0.5320345857107258 2.143372382491844 -0.06386620252634163 -1.179738858481491
Ni 2.0707567245916048 6.329005274737074 9.301136947636783 -0.8745535412225454 0.43783572843853624 1.1337109696881509
Ni 9.084713042748447 4.686757533160717 1.477097749765543 -0.295881009138884 -0.27509209741799073 0.1888804373169134
Ni 6.120074636033001 2.211297376728206 6.926308936537755 0.6114754375462952 -1.5876382043719108 1.9501074429539897
Ni 3.3376252686628636 4.111002108945674 0.49501500533104664 0.2137275782675803 1.339178621939784 -0.22004477873485975
Ni 6.299046709003398 5.88723876550635 4.625899778849093 -1.8942713098209762 -1.3695790886085122 0.7573228070321344
Ni 5.147708036238447 2.6481795341953345 9.487363053235677 -0.288131189990136 0.2568884299257705 0.05185529410839457
P 0.102189882009107 5.45259489168599 12.713249033788362 -0.4497818450568189 -0.39696084460104536 -1.9931831910975413
P 3.7361756859444335 6.19046729744232 12.753197412850776 1.3135452376423957 -0.7049255243773408 -0.8843813259462445
P 2.464241552567329 8.315332490272215 1.545361776241153 1.2792063551512098 0.8949627010065168 -0.7183184007444791
P 6.292359043694428 7.813168570087177 5.742642017174227 -0.12144785759555211 -0.4783534860469245 0.6512550314370784
P 4.8280956304832126 0.7753070201077572 12.6636325380347 -0.3296822739590451 1.2332951944413921 0.05288039293879926
P 4.196464671992956 6.22664231087512 8.11606453113312 -0.5391369358828844 -0.12053897262803756 0.8746144763674679
P 4.703920728411651 1.0312597391482052 3.823065494636922 0.8769212701237736 0.32540395829866536 -0.8853462609626752
P 0.22360544249993516 5.607435185905999 3.499992358012452 -0.4507506367279914 0.13938310191773412 0.6929259288133035
Ni 1.6625554081853022 1.0410737520609616 2.5973541840348755 -0.49594034589075225 0.01226004831427566 1.0816019076977372
Ni 1.7278643565345502 6.472300737515854 4.815069182134101 1.8223128172048035 1.1616981989296962 -0.7661869422909837
Ni 6.069527485499894 5.650705649117829 9.1616375051804 -0.11935240851910413 0.5543424399787292 1.249800134074951
Ni 8.867798890308325 2.5171810386581166 10.341922532005572 -1.001736758639978 -0.2411126551487525 -0.189011563578139
Ni 2.307371397874138 5.5104731008030505 7.113383233834369 -0.20679048482811485 -1.1065179542131267 -0.7537111784214762
Ni 0.3216241424741929 9.40858453074652 9.061276309972582 0.906579973530471 -1.4139982381538359 0.7705570463342213
Ni 1.4947294440631889 1.1171210247884333 11.37699188429184 -0.20053884749144815 0.12040167571922492 0.013921238066782476
Ni 4.333978657174007 6.873551594176926 1.5621525283427653 -0.6527614407792758 0.05463671350827364 0.3241222633727644
Ni 5.551478094736774 8.006630584560341 8.150879356811346 -0.10265643592066191 0.19993720935170728 -0.10118730757430315
Ni 5.388799276814518 2.77584325895518 4.859553030691284 -0.36804210468416615 1.0443484226629174 -0.9079475433019588
Ni 0.5953535458460852 7.405057872451997 6.7522592752148265 0.5140303706232437 -0.0734186221014671 1.142115134591446
Ni 5.178726841594278 4.534191770095928 7.144007847535811 -0.820219189446039 0.11732097991137214 -0.2377180276449067
Ni 8.088468396762652 7.429080908677037 9.019444872846204 -0.5644435329684732 -0.9244895068210403 0.9397577458340203
Ni 4.636917209042379 0.2513828144126519 10.473345123391649 0.260636584114293 0.12349239882940667 -0.943554236761975
Ni 8.213476991528557 7.159861601543999 4.757680314381113 0.4621012858541203 0.6254581249786325 -0.2976044195878939
Ni 7.202570228374858 6.124922740288148 6.97852528483497 0.30100958861470095 0.1611343775518967 0.1317402406604957
Ni 2.362177630650085 5.2545475673939395 2.6496502768506813 -0.001320775693952564 0.5980859036132667 -0.4796637202179159
Ni 2.09315768481352 5.053845113107947 11.559238013462956 0.47258958697995385 0.30655622946454303 0.04293947967600347
Ni 0.9898741463757597 3.450445638712557 3.7299728310609788 -0.4596638800572213 -0.05623671100554185 1.4049662098585545
Ni 3.745536605001569 2.826644142047435 2.61238149485041 0.26195530292571656 -1.0194632293854637 0.027573795853210577
Ni 1.0771400229684136 3.5067923905976164 8.340407610430008 0.1674538920120213 0.016838925934209707 -0.6292723565184002
Ni 3.443440807704652 2.9056818342220074 7.095557615366518 0.4444920574127893 -0.4163418202308184 0.7701397562911446
Ni 3.9957803414611885 6.9438536368151205 6.00327247718011 0.7384915332582442 0.18229532790022798 -0.5807024180294966
Ni 0.7433784022898385 7.2300186541483935 11.469328787316607 -0.3643461438898177 0.2829776708136546 -0.08337650464512737
P 0.19822403089574364 5.710921822529895 8.261134309450512 -0.13641013533233928 -0.37399446561285915 -1.0349186447085854
P 8.528259416782868 1.6343004753487607 7.808111136470732 -1.7955003249976498 2.4523367071772477 -0.858820446758005
P 1.9591415841978645 3.255995879634138 10.428225131061174 -0.3707247937226519 -0.8416405925446085 -0.6540809309216478
P 4.091790929467333 6.135606693403698 3.975589573066994 0.5441261615673597 1.2619701937785814 -1.7355121173694754
P 6.672051694705041 3.8103833976180828 10.482722353827587 1.996111934708562 0.45922499274758977 -0.2314134255831176
P 6.369883402391225 7.8212608263485714 10.496595181499 0.1424198318615289 -0.07927096711718606 -1.3153761202035477
P 2.2970499198430856 8.576359860495621 5.8228169749264085 1.0466732141413524 -0.4674077856686983 0.022833195844431647
P 6.9063646512010175 3.7928124178970903 1.566967103652597 0.22949563973511444 -0.14716428852504979 0.4039748140250333
Ni 5.287976832061675 2.8272694115681922 0.38464587304026476 0.18602651280788607 -0.44656436656078574 0.20710595918600463
Ni 1.395809993503956 1.2763110200224057 6.7984014472835845 0.42909860567585456 0.09367968634334835 0.2280535079719492
Ni 6.824372787087795 0.8055075379603366 9.166650535598995 0.0191842862379347 0.26398287487870664 -0.4173453217946683
Ni 2.5031260672567455 1.3389467146234881 9.076210283453857 0.7599494460217041 0.7834231036636121 0.5372224924689909
Ni 6.5865166366408605 1.892310240493729 2.7804494110914257 -0.21240731679426 -0.30272631419549156 -0.49560378848694003
Ni 4.131119476135258 6.820032147950943 10.639291654200646 0.2126042632964145 0.026448166889199612 -0.6249009669235819
Ni 8.164642535769698 7.2551200537498115 0.2664626841154386 0.6821866880189283 -0.07935195686676656 -0.5402443100144502
Ni 7.566341161298941 3.969763692271416 8.201172774785306 0.8192462840098085 -0.8869868818898918 0.35534471172215576
Ni 3.0660498734805945 8.621687369811973 12.154056002371696 -0.5651063633634525 -1.0079495723189094 1.258108139720014
Ni -0.1644603829625588 4.892516514875442 10.263657817948689 0.2166429521421624 0.3144369177642004 0.34433679064742634
Ni 8.591592875921608 2.4881649081441317 5.682878937617783 0.11940383058232984 0.4859456965718856 0.4917322213466757
Ni 3.609508767666955 2.4846760854558476 11.719402160486514 0.07158336866494124 -0.004379360014618264 -0.3487801711307606
Ni 1.3091331389236096 3.051088714367981 12.913878086869742 -1.0357126013647906 0.6832315843436749 -0.5665754917098113
Ni 3.020142404029049 8.106628398495952 7.941762043438756 -0.38455604317878933 1.2390480377647692 0.17323964545586293
Ni 5.757255200205724 8.044137693928668 3.514170570942553 0.3896627682777354 0.015170537092851294 -0.08897868132325322
Ni 3.379183037100445 8.316827699995764 3.720330087625647 -1.3780416175535686 -0.18983174548658918 0.33399067152641193
Ni 3.577520341460094 4.425449244746827 9.25548592930752 -0.2727256540683432 -0.2188852112091198 0.07486898139474847
Ni 7.1976949384883735 6.030389238251329 11.537752302829395 0.027996485212925977 -0.229390738726134 -0.292502065364322
Ni 0.7264906881031231 -0.03049774742186679 0.2789562940903391 0.3390176924273581 0.16785138456075607 -0.11917911616603344
Ni 4.798762334270292 0.3782726548670961 1.6229232886341107 -1.5812107035790124 -0.5643496877030861 1.0501362329892883
Ni 6.0448519941227605 5.427276007033875 0.3882352825644963 -0.6269182544639268 0.3523141524259481 -0.01820598148506542
Ni 8.17313351462404 9.111626817772349 11.03017844200824 -0.0075770410163095315 -0.9877779824670408 1.1388058677125548
Ni 0.1542394917674545 5.108986635337054 5.7899377661993965 -0.9623726550200586 -1.720965072793236 0.4701843199725709
Ni 8.173677227250785 8.768580397804383 2.5298595109261104 -1.4527092815707885 1.5702678314142633 0.22467610685928402
P 8.762146465054562 1.6188499748720757 3.5843185616698356 -1.3250779208723438 -0.2694912062914456 0.44672788872184355
P 1.7447013242094362 3.255977755879913 1.842518850511798 1.2986824615979504 -0.8367284999549719 -2.430069925359247
P 4.459911563405379 1.134954798945686 8.172166612336143 0.7300739986185104 -1.3769314152085255 -0.8002592013843444
P 8.634663977836965 1.647159278971292 12.46746011611721 -0.6063324598927751 -0.6244322548172794 0.017007333191273934
P 6.448268639413703 7.732336626244344 1.3445605474946356 -1.294888798883473 0.7147566515351497 0.514692686797591
P 1.8745398994762632 3.563293194393587 5.840880920762317 -1.612193782224088 -0.018141703906033275 1.1452912183265824
P 6.899432315210012 3.9963512397192713 6.040130756147187 1.1888691029175331 1.3609167849478239 -1.5853136700037924
P 2.022583785861953 8.413481681276892 10.118945983777238 1.1445890500532352 -0.2550110103973995 -0.18148363063221004
