# total energy = -340891.0335203456 ev
CRYSTAL
PRIMVEC
9.07385011190426 0.00000000000000 0.00000000000000
0.00000000000000 9.07385011190426 0.00000000000000
0.00000000000000 0.00000000000000 13.28049683760165
PRIMCOORD
 96 1
Ni 6.530214123487809 1.91320318298168 11.30909983076165 0.25422862370542026 0.33497360426497147 -0.39110772825437806
Ni 4.623707442009773 0.17607897198966932 6.312140465036054 0.27230784980463424 -0.29417148264694504 -0.8746291316554872
Ni 2.7597389706253517 1.3048831866322963 5.040188095825205 0.04680821860279036 1.0486596484437618 -1.3315010507898681
Ni 3.49717985640138 4.174914807361715 4.918206511795671 0.30353903990477404 0.22738682092222776 0.44933652998928425
Ni 5.021223748748488 4.652598581288371 2.4328671252099783 0.11970927763789062 -0.1089659230784575 0.33728194068317396
Ni 7.208293880758629 5.968697046861731 2.6012115472244357 -0.32402096190820967 0.8636620911210222 0.21087879596487555
Ni 5.259003995229531 4.589353844865059 11.676797650723564 0.6219531971491675 0.641266809876115 0.1546495411585014
Ni 5.384812929305458 8.083140081263238 12.544465528274875 0.9518750979228445 0.3614698507832872 0.7117338055484258
Ni 1.9635176827617746 6.468312316905338 0.4030123378508519 0.7592105109731505 0.8914917117387807 1.0987002579409206
Ni 2.8231833317547332 1.6635634141899818 0.5516828376970128 0.5656717489486194 -1.1898448365672412 -1.1906686180201171
Ni 0.747131757870734 8.963956875249416 4.48997703664295 -0.18179730521788692 0.6538125077516095 0.35579542610632914
Ni 8.608198427480584 2.1685413297466694 1.4764860282808439 0.6591606594374002 1.7934406142551433 -0.12822888507312755
Ni 7.169711869385327 0.7333875968577658 4.771363485395085 -2.094941540683966 -1.7011410960887736 0.8349199859913233
Ni 0.8866340393980838 7.297244835013682 2.4893491210226304 1.432375969330075 0.9195352481395583 -0.13129929646833519
Ni 7.800262798910767 3.965907740105682 3.8584624642182055 -0.47340822622650724 -1.2235712822854088 -0.04747747675567307
Ni 7.387293725152124 3.4804386026422685 12.770034187054558 0.7308604990755477 0.8011326051282331 0.03140011157783624
Ni 7.9667044345223585 8.669392473741532 6.980308855650464 -1.2043669414428162 1.2873539239590088 -0.007099330048942611
Ni 6.922032052253232 0.881010974382083 0.6065932426418718 -1.0201869949253655 -0.9279275859683116 -1.8191395616831443
Ni 1.7715240847731317 6.466288848293802 9.189997374243445 0.5025750775984507 0.44866264385071114 -0.5404949925726756
Ni 8.895757816575442 4.795384689230583 1.2598660006432962 1.1229316196844596 -0.9641423453259718 0.4686468002821219
Ni 6.367801277398735 2.0223706756515303 6.983775066455875 0.20695734942328228 -0.2287065681749158 -0.23072179883273167
Ni 3.5956674272964473 4.459597785919098 0.14097768958221785 -1.239683614466239 0.70747914403713 1.031609120719378
Ni 6.015363858830897 5.646675174418848 4.796371016755579 0.42902327235322885 -0.2327501421166701 0.15817580914420498
Ni 5.071456583876099 3.392621879671708 9.613911326204928 0.4030661861678349 -2.2131657491358983 -0.03236993169027328
P 0.5072418412005348 5.612294355723306 12.530122493143695 -2.3039442026720516 -0.08830813761878985 -1.126101532772009
P 4.190231466627504 6.3084492227438025 12.484915663683928 -0.20391753415569397 -0.1114328965617113 0.30530101690120326
P 2.470038152865372 8.594986901478812 1.3520073206553702 0.3598667679622254 -0.45817084045146256 0.027444983584830156
P 6.331977716509318 7.870476252346001 5.691728655808952 0.0016699315032551888 -0.8828479200208537 0.9510595440000846
P 4.935775300699948 1.2217032011527422 12.642993024111156 -0.32811672924413815 -0.47931559284987774 1.1816651289699263
P 3.9555816984916605 6.337412952824607 8.082789830642586 0.23683408237805662 -0.07576243974329533 0.8718415416080212
P 4.726187507026255 0.8212161158336848 3.8657405995245377 -0.23681891286940507 0.3341662778723277 -0.19611963537782998
P 0.0914662255515439 5.68134635632322 3.495440399303482 0.8283878412997603 -2.0961479022872416 0.7360435859383839
Ni 1.450046643346806 1.0884355621499917 2.47589623060352 0.06735390396462593 0.4813205390950485 0.7511945826472095
Ni 1.7316263651098178 6.576635941499525 4.710101385257066 0.7853236631204346 -0.1387308130457159 0.11096855533078306
Ni 5.942900090527229 5.564148506159161 9.081668305339091 -1.0748946708808906 1.1446096188785255 0.7911279285070374
Ni 8.813022449759407 2.1548488896802738 10.148039893158105 -0.4112929449530014 0.8038466616252865 -0.0437833157335375
Ni 2.352150690080342 5.429265721807294 6.918965998244991 -1.3505089593509387 0.11510314632444693 -0.9712979825341467
Ni 0.2802122925264273 8.845279987490379 9.170289878829129 1.021861554414311 0.5933357905227912 -0.052670590920838325
Ni 1.5775796089751615 1.4053760784383467 11.494907785017183 0.2061780480550965 -0.5404836797187659 0.2698190219445095
Ni 4.233323181587949 6.908267021384629 1.3504275633223288 0.19322817276264787 -0.19255737194786837 0.4746130451678858
Ni 5.654242765548983 8.04126426223977 8.169045851365684 -1.1696490783456566 -1.3121023345482823 -0.035798240645531894
Ni 5.510621863381384 2.659227931118749 4.635464429812311 -0.7038394904020137 1.4947491322506579 2.119152076491899
Ni 0.6735274065873806 7.390524015850359 6.954079984042829 1.054528705630029 -0.8473867509997663 -0.07517982776694794
Ni 5.014146145533253 4.455496405594373 6.98906058424161 -0.30571625006175096 0.6322260398300854 -0.24224908274604087
Ni 7.907288862915495 7.014140706404312 9.308061777108856 0.3821268649120064 0.21616549828511158 -0.10464081334054236
Ni 4.695554188494677 0.5612203617220547 10.561315663056074 -0.8475569580290436 -0.6058547489254082 -0.7182397249877437
Ni 8.250525397303527 7.259180033106109 4.598358733878904 -1.0136389093942026 0.14732575380357854 0.9106263756857027
Ni 7.086550031606324 6.140328924831161 7.065357146901835 0.7265410457645874 -0.04356580040609271 -0.7661365486690225
Ni 2.442090694015473 5.190714198052796 2.4860026850408636 -0.2904742363010159 0.08261057301338032 0.4475668396833711
Ni 2.442108841716025 5.602503671275566 11.41587545649876 0.018379788058768345 -1.4274199108763803 -0.37182882542010803
Ni 1.159256963553714 3.35461152086579 4.05150772145383 0.03312789290222036 -0.3535793922916169 -0.7238562998435727
Ni 3.4565834502668187 2.7621798363495795 3.0176214250077145 0.32196485071012937 -0.7707010281112533 -0.7872748733095345
Ni 0.9205602581948009 3.4946482521743922 8.233536427431883 0.05032805883059074 -0.42684349109309067 -1.0720985961929923
Ni 3.7278734258169126 2.2672466730483594 6.954930203813684 0.35753734849810037 0.6441204772748261 0.5160885387038531
Ni 4.022873372138042 6.783864534101473 5.7750374899624255 0.3946519939622107 1.586832934861796 1.4315812413429216
Ni 0.8254708442280736 7.436319738193035 11.322101750822045 -1.0674595547590842 -0.17039549113884847 0.06275857128445966
P 0.016118787630182197 5.571171666272741 8.077264763209564 0.3063196879737047 0.0524841859416451 -0.40078896009788395
P 8.398220458245024 1.6560321184609503 8.018047001538717 0.9164550665523378 -0.4419083558460132 -0.19225578154704956
P 2.101412985405255 3.548810064471486 10.446346350519786 -0.11088473736772515 -0.8228954507266215 -0.599174251581439
P 4.073759524485521 5.986908264365545 3.8668693864988652 -1.0387040798929468 0.48223276649667274 -2.1372207610681513
P 6.988597817877537 4.153228305202215 10.417182088347884 0.8975913968786153 -0.30289317879065897 1.1069252169538744
P 6.2212676692925575 7.875212802190041 10.52912345704709 0.2413186005119715 -0.011420326021799687 -1.2697863473888906
P 2.3423690794828778 8.498177992884795 5.930166756435001 0.5757939249842857 -1.2433170974537684 0.3049454333339974
P 6.928084310387285 3.8224320195424975 1.6280828448409959 -0.45176442270448647 0.44625352018858633 0.34607099972971367
Ni 5.062092370391327 2.891101101070154 0.7835650814986939 0.8532432097805435 -0.9629154148974061 -0.38055180711540265
Ni 1.3427302161332477 1.014456460850242 7.129807798026819 -0.5856258234730432 0.5607686552200472 -0.09863317369388173
Ni 6.965178210315333 0.5262533722986872 9.204061842171154 0.07616276050550755 0.7152451611357941 0.781547483907454
Ni 2.6154556773876085 1.7924393096591764 9.171817007830569 0.486556076462375 -0.09681334687632359 0.7839275541038564
Ni 6.264268645750244 1.882851153808656 2.698822584182847 1.4165785972865024 -0.0036417105176453413 -0.8334130624284938
Ni 4.030150600059346 7.141464973476321 10.342704832667986 0.5397740552462511 0.19844262708405178 -0.47282484291921156
Ni 8.504420801874643 7.044910132690029 0.6677137907155851 -0.7840298840096755 0.17210681740300035 -1.1251365977555785
Ni 7.505262852589637 3.747336834658807 8.310775763135778 0.3515677611782268 0.4296115407565311 -0.26722966395077846
Ni 2.8220309527696883 8.335393118934407 12.387303719340489 0.9091886147979117 0.5035433550489908 0.07297125015140336
Ni 0.28316946033135665 4.751185964536473 10.22125497626462 -1.1521977156384287 0.5274250467625949 1.14005208141483
Ni 8.602091726244876 2.279977284985505 5.847177321811241 0.6782608706019609 1.2562222355512107 0.09104944780935287
Ni 3.7257773664031704 2.7592308350098986 11.73691826049687 -0.4473079295950297 0.1858388222771122 -0.7467342328830108
Ni 1.0419411533360683 3.509592883578868 12.675677032805096 0.14291811165418614 -0.3557437469327873 -0.3453510908445536
Ni 2.9810955481069406 8.590322942436979 8.279247762966992 0.9000468003976436 -0.8137844895642888 -0.9059374548504655
Ni 5.635949883392686 7.720122553273652 3.566836175429671 0.04537457148005734 0.8129421961686515 -0.398689654366694
Ni 3.2011999342504494 8.365382194096393 3.579466067628754 -0.4542169980100371 -0.6790154893797983 -0.3086727615869136
Ni 3.302282626324436 4.117568073617766 8.473315643128716 -1.11213555751022 0.11913052231628515 1.8796427612745243
Ni 7.309485459035927 6.360787191135432 11.63084676554117 1.2099372364417422 -0.8119052702637051 -1.0979839486001866
Ni 0.5065803575154187 9.00550603566295 0.27421266272397493 1.1420187182228978 0.770500482064673 -0.15771043947201227
Ni 4.682152111637112 0.2654600267478019 1.5543895698249381 -0.2926751006070766 -0.11104234599151198 0.10530544350773477
Ni 6.5168755635821745 5.746587339807238 0.35022158433045275 -2.0633187715723627 -0.3171288627740667 0.7481953908095696
Ni 8.037825272985186 8.918578550019433 11.496302435804592 -0.5359842491865157 -0.3604403810775083 -0.46970789455678463
Ni 0.13410152584310947 4.970319448700457 5.754372703343996 -0.5632574830801719 -0.30362568608130935 0.8027485434651013
Ni 8.179867325204771 8.779049954326283 2.4793624414089295 -0.5976038217705256 0.67514417934985 0.3811912404716145
P 8.517514367822825 1.6419041335813098 3.563662142603147 1.7415238707811942 0.9318973692493371 0.10762612122111141
P 2.0068543916796706 3.335238850526655 1.418038636498423 -1.0308136214012764 0.6736385413386012 1.155448104254926
P 5.001224982740313 1.3503250288142108 8.524552046096845 -1.1978733632986724 -0.12242564812778915 -0.3337962961274187
P 8.612054813847859 1.6099732544602723 12.533362765077234 0.43140642787342476 0.8335300476223323 -0.6382748171273266
P 6.521013239308004 7.892562003917641 1.396245062905667 -0.7166070744803271 -0.9200435552345446 -0.27193761094940905
P 1.930071470644655 3.2734640778480464 6.133716810135082 -0.9846126973651816 -0.3505547465326801 0.32293775614636
P 6.827192169169093 4.065357139129999 6.053369680711677 1.6313875815437195 -0.840124155900082 -0.8221480310376357
P 2.231613663014737 8.723245775129243 10.245598301784916 0.05027895076021018 0.3739353302401495 0.3534078997107591
