# total energy = -340870.404830514 ev
CRYSTAL
PRIMVEC
9.20997151657860 0.00000000000000 0.00000000000000

0.00000000000000 9.20997151657860 0.00000000000000

0.00000000000000 0.00000000000000 13.47972427270145

PRIMCOORD
 96 1
Ni 5.226364156872502 0.14255378222719864 6.693559601632364 1.0129529390707717 0.40236530344606836 -0.8680715330426275
Ni 8.243523219055676 5.902099772254754 4.658714005050855 -1.0788976213926966 -3.0198912749708766 -0.1556134477336675
Ni 6.6619961080045 6.16281564795655 0.88159597931114 1.3642772167796247 1.147650205477062 -1.3790608028467024
Ni 7.889851100120228 4.072382346860917 0.9012196657728404 1.0221667443595557 1.3166781268444228 -0.2662115070989093
Ni 5.337077225327048 7.715230038819321 10.60184327973121 0.25700670067118964 2.200288121842281 -1.0937251733238327
Ni 6.625635140176652 7.355488548607645 3.860350380971178 -1.0487851182780326 0.27221271898766664 -0.22453443907509715
Ni 1.3674689514121652 9.13600630578052 9.119343625184232 1.526362645390881 1.3928156905389497 0.04647603207435222
Ni 3.633389051137938 8.007351917634836 7.460717078981775 -1.7131247508132108 -0.1608587552930068 1.4031872635812608
Ni 4.6146102141093115 5.093307697346437 0.699481685126562 -0.8088240602352199 -1.6060359901528083 0.9977181243988882
Ni 8.371873383100477 5.218259381875414 10.712875934199845 1.1916986019465283 1.3748321094773355 -1.1454020328728338
Ni 1.8419482676621697 0.176594758212129 3.9127597242904186 -0.7017031607853011 0.945079929377882 -1.9658006853195307
Ni 8.380107097699792 0.1183831327926998 8.751158433021041 -1.5577416739227947 -1.2242086587590917 0.6266889120619401
Ni 2.973669576346524 8.088611496952236 0.6616001509896022 -0.21933361160044806 0.13726991222947327 -0.9091407922791117
Ni 4.823648939233082 4.120918897127572 6.338786891092198 0.2598691098206492 0.3820723575249872 -0.6859885782635218
Ni 6.549818654067524 4.400717833958876 8.047664884270922 0.866712705021888 0.337875865513431 0.7381441772211546
Ni 2.63276247803149 8.063624844035074 11.363892906838135 -0.4772772222636103 -2.3267164633715605 0.36016758703209584
Ni 1.9669920519070223 7.552922709531036 5.411584053476419 0.004128420346076761 -1.768347932952574 0.28514382522703796
Ni 1.1837300182395345 5.676722557534581 3.7902155263344413 1.3959894602812408 -1.8708657864128424 -0.22257320158366828
Ni 2.425049988816335 7.401252897426431 2.774626433386777 0.3109697851512063 -0.312392633640662 1.004781973224205
Ni 2.673074523670418 3.5254942339891975 10.274299850189784 0.38564619091917457 0.29902135454007855 -1.215395688453152
Ni 0.4878291700662315 7.9067606079550625 1.346227993939682 1.4838216867048768 -0.12988518972962793 -0.1521015779256671
Ni 7.724126871372944 1.0146994096923017 6.560258156862069 1.5165361462187625 -1.352637061437535 0.6671683602332252
Ni 4.32171469768044 0.8981923481119961 3.931779236615973 -0.7400611917382093 -0.7932084651851501 -0.3478005808263107
Ni 8.37105369562918 2.452716743465487 8.30355105087218 -0.7721287616967154 0.6306592095635978 0.37014809528357545
P 1.4580121820898662 6.185149829056481 10.821105073317215 0.035880515946693045 0.560244664395777 -1.0526975659585611
P 2.607057447330497 5.9263219975301435 0.4104967226337848 -0.5515499648352565 0.3640054727209473 -0.4000063162955885
P 3.5146817273453546 8.90193487788165 9.632678890565163 1.8560634312926874 -1.1335819003094543 -1.237071887875005
P 4.200981180138584 7.78609156021432 4.19137241678124 0.12250175278136323 1.2589874570011736 -0.41527789774267837
P 1.3184626925945426 2.1769517741895514 8.731235422482744 1.5140046380461603 0.15820974770593396 -0.4121174977368257
P 3.071672884010181 2.549476704964818 12.520803487814577 -0.5927806893502694 -0.361995384269454 0.1533598758128004
P 3.3222577909656166 4.273380766788712 2.3695332010834376 0.573512842259593 -0.13795691099416887 0.6159329590970166
P 6.682202785667695 2.5421271476379133 1.746567959906661 -0.9277550649461893 -1.5007524010219444 -0.12745112636683859
Ni 3.6792270797294258 6.215874294272717 10.17105883168426 -1.8001085131936225 -1.2738309497719094 -0.2783589410947206
Ni 8.100326580811663 8.843359458584512 13.186095916413649 0.12778434133654124 -0.0788135678647933 -0.994790666339448
Ni 1.6453245842384858 4.648604219239145 12.195497160371781 0.4339615901951107 -2.3054794083696555 0.8568252707048469
Ni 8.68246125494913 7.647159138815366 6.161406522303646 -0.3848416927400082 0.7298114889857431 0.9042410409846491
Ni 1.1027467380697629 7.225655579137239 8.013426814894016 -0.11370189510154612 -1.4697145578795332 -0.7354308920550495
Ni 6.465151385262712 0.46337024852104075 3.146019458653928 -0.024621140982789856 1.7507878125816236 -1.2811768486140196
Ni 7.725959655718876 3.2915517456925563 3.6015400483908566 0.01388241440904706 0.6927603497697167 -2.2940164020353784
Ni 0.28063151826282345 6.24921439141983 13.036712940254246 -0.7673315974183882 0.7652680300211401 0.2785965110268234
Ni 5.947974640732593 5.651938523992348 10.06239866589659 1.044191585370079 -1.8573644094922979 0.5865542488245833
Ni 4.9064005339476715 2.4942721352687403 10.489489915336913 -1.4435875217751784 -1.1225025025668411 0.049324814377056984
Ni 7.5753397803752565 8.145197562386452 1.7608296009100604 -2.1605771764059045 -1.5650158389867048 1.1369775562545645
Ni 2.8505690961066548 3.770857087054464 7.635374059171872 -0.8200117014209233 0.4323219977091587 0.058435261318757425
Ni 1.2238394445035348 2.227993436728034 6.592541870268086 -0.9591757453493158 0.4660008780188426 -0.5783380315623782
Ni 0.3615567756115931 4.423494093695013 8.585910359804837 0.3896946499569353 1.0128606364672816 -0.12428172749992146
Ni 0.7035055217131847 5.276816381229378 6.23770192693533 2.5662064953152255 -0.8111251975645708 -0.272099333338254
Ni 6.159656627702003 6.3572657780855595 5.963281613511184 -0.6715644324183918 -0.7648072883346376 -0.5214117506889795
Ni 4.344592267104039 6.679927922685557 12.573860292136427 0.3040517178751344 1.4179932182458417 -0.10780121334639499
Ni 3.7015704708009447 1.5787917494896595 8.483977157264752 -0.6561370421197281 -0.5038007224754356 -0.25439266008711026
Ni 4.799297774355465 3.3658762164044926 3.944450315526194 -0.712052108119793 0.10363139823942154 -1.1127266541269998
Ni 3.7188483774992833 5.813481425638861 4.781716859591894 -0.23681479910434694 -0.6533507376238425 0.17633345388983826
Ni 6.770738242539298 7.661333285088683 7.605111934529335 0.3823173836562577 0.6412881500323536 2.389058773054208
Ni 7.962158587054479 3.691752641088563 6.0236575822536995 0.5613540954098719 -0.40171815678037265 0.8351135900593682
Ni 6.899898884083808 3.3183711829556493 10.707200749707567 1.8969306018206946 0.3139995731164657 0.5754054312966156
Ni 6.445920964587803 2.163127606836563 5.094608145334607 -1.5844785756970068 -1.2850116489790773 -0.1349829159675095
P 1.7450869964753748 0.5401049687974522 1.7183145300673788 0.4459699275098965 0.8651697860148003 -0.3211266710795502
P 2.709555221128903 5.906621868304266 6.989695186065755 0.2707189080509596 0.8463865918700263 -0.4925683440947259
P 0.4448305757152009 3.631657576479469 4.539931159491252 1.4164392434951605 0.8684620836128267 0.5971510505038231
P 6.59777497612416 1.524480547037579 9.31525814079567 0.3976771539417796 -0.17033969820024858 0.24005284642567046
P 4.494779273783041 4.2230759019772375 9.037063581014927 0.044691172259787554 -0.5422772812840789 1.002040663033642
P 8.740474865979426 5.986822300889091 2.2552788985534593 -0.8803302958053226 0.651777993820084 -0.5462959155251689
P 8.119557001486573 5.596835263983734 7.175203354780364 -0.723284743610819 1.4563278521599823 1.1346918455441815
P 9.01566881701693 0.8571563987062832 11.404251002335002 0.6457526135616105 0.45528709114576427 0.4810282046656103
Ni 8.587322248449215 0.9831184171184195 1.8211374158628275 0.9518892389902317 1.0878324619884814 0.4123956910988769
Ni 2.521100782503421 1.051834015133507 10.925585753998433 -0.6536369014056936 2.9117177658867273 0.6981750930273847
Ni 7.223546495643679 6.857818523900062 12.022808351109953 -0.489145434456106 0.896082930653889 0.26004394483561666
Ni 0.16392367930190815 7.96998706290394 10.965175737864891 -1.0390804893957588 -0.8910597664076847 -0.53268989470596
Ni 5.913649076625605 2.3064163447964523 7.465179310215967 -0.5552328130034825 -0.7671228238416918 0.26860031904605997
Ni 6.869505977844727 0.6490165668094636 11.314314708784924 -0.9930001500979285 -0.015917699671520975 -0.5694996073351417
Ni 7.735445926454104 2.034547193502072 13.254464298499883 0.09508119467656528 -0.28998855491384895 -0.84978533313893
Ni 9.128601488624087 1.5784417705693308 4.312231189936687 -0.01991396531510764 -1.512736312856698 0.5853450590078306
Ni 3.6678896047050897 2.154028154908014 1.5392358425180739 -1.3985014280698174 0.8478462071346882 0.1920521501766757
Ni 5.170956967801497 2.31874849675225 13.183534623315136 0.6099962818976075 0.09307907664487196 -0.04016217404118245
Ni 1.741624047158437 2.8530189485489568 2.8553426243805085 -0.9237724261493574 -1.2376598991679912 -0.2098475264868838
Ni 4.113652229544956 4.388929070326748 12.060740540090645 0.7119137827697158 -0.35096509459722136 -1.3375403150054124
Ni 4.778842427459405 6.984906921837362 2.2024928673962854 0.24648420387331096 0.7078537537677293 -0.017355203448995916
Ni 1.2492405461421372 -0.009479823755117233 12.869294997732 -0.256081617753759 0.9854357074871094 0.6083533469775458
Ni 2.6979230270137635 3.3986637152563506 4.916459664915649 -0.8441782713647976 0.34743368440519523 1.3206949613132997
Ni 0.978448961523506 2.5256320885245205 0.35289203434197847 0.586491513907448 -1.0438825387700925 -0.6484085631272188
Ni 4.8011121387582225 0.2603456348439745 1.1924389673727693 0.8320035836754768 -0.1900960548915694 0.9266083529362558
Ni 0.420176402772353 2.833300399379904 10.489436497501705 -1.1126556916797483 -0.31755052369251763 0.8799184050788845
Ni 5.996723020345762 4.67791034883089 2.440112897347856 0.6120935307462685 -0.3101282630865175 1.5644975045893894
Ni 2.8718441304740123 0.4128811842778146 5.852047260664779 1.7575541847711795 1.0415544048575482 1.3176345772204212
Ni 0.007367056272921671 7.668857831875752 3.90796040809612 0.21295804709140745 2.8970395950492622 -2.1471367346302825
Ni 4.737452815144728 6.091254168720893 7.927763027163427 -0.05239908242700653 -0.4143785258568606 -0.19966981462293354
Ni 4.540064704079272 -0.008881175601923199 12.112678332864599 -0.637977854712198 1.8426080771187296 0.931089528636061
Ni 1.011162780602663 4.577604548270333 1.4067706631679329 0.8310692447866654 1.6449277821219994 -0.1289966164770875
P 7.424029157162567 7.288974133801993 9.85920550973947 0.16028617061898848 0.8096624969761154 -0.8920511837866766
P 8.703091591305355 3.778630303074398 12.174576709910546 0.24688503885615543 -0.630977512134965 2.7520291196424216
P 4.218627485700427 2.0457188890378317 5.815853914319827 0.9247802985885814 0.7467422033028107 0.4248699123064877
P 0.8903951861659335 0.12124282897064977 6.361203040939259 -1.3774240385742278 -1.0186391908222716 0.7221899678847433
P 7.561303783675754 9.105401570194923 4.806007238657032 0.2068784165562308 -0.4351676946880699 -0.03262061424849866
P 5.95439399092915 8.30438271130654 13.411557862872428 1.5230186686193126 -1.249281028346687 -0.12791932425250874
P 6.437668830045313 4.635397119982526 4.732205894331272 -1.627785466014758 -0.16432743056789764 -0.6638086997323729
P 6.290631633649269 4.929766231865414 12.374858594048824 -1.041742095388322 -0.1658549229560176 0.28808748123639416
