# total energy = -340875.0131436789 ev
CRYSTAL
PRIMVEC
9.24287480664151 0.00000000000000 0.00000000000000
0.00000000000000 9.24287480664151 0.00000000000000
0.00000000000000 0.00000000000000 13.52788156362138
PRIMCOORD
 96 1
Ni 6.05972112668883 1.2524372596966438 9.06441149346486 0.27013218230955416 -0.48766679302805044 0.6179412477762971
Ni 7.70736522571825 9.181825580218499 1.143102369777767 1.5332999959406626 0.17750690537264913 0.43677052039881553
Ni 9.248975065408468 3.135294035823693 4.961147230393676 0.9002604590703464 -0.2032621599598822 -0.38517773592318827
Ni 2.9156556027102463 7.068691822119964 2.529483673463251 -0.19424607250420095 -2.693326463594891 0.5793237925144152
Ni 3.2564866097825163 9.196946923339048 1.972919347867041 0.2516125262388118 0.8227481265154797 -0.7461199963377795
Ni 8.043639495529865 4.29244649953639 0.8448606810617713 -0.6891124686044842 0.48898396917757725 1.191588301620909
Ni 8.457054798155722 1.3008606806065182 6.349081337040196 0.012195770735243514 -0.450865822149617 0.44216418061056106
Ni 6.109743564933579 3.116789800538034 12.429552717583322 0.6473981195848334 -0.08364852735959143 0.5557904852791654
Ni 5.776935373159986 3.1543620864702038 1.3907069690769371 0.6391968147209637 -0.9802752463320925 -0.034823021216456154
Ni 6.9088917602549484 1.8132024718749375 4.510371303667839 0.5461071965531304 -0.4034634216062536 -0.025449036200723914
Ni 6.858037463281073 8.292929070899252 7.923252900250816 -0.26621510664333503 0.045044184723832106 -0.1592569580235257
Ni 7.9298227356359545 8.143240714030496 5.1946795528584735 -0.2197316183698151 1.8482349363872042 1.1440406337489328
Ni 7.05373685074524 6.051069795905924 4.79184641755457 -0.8776026124615144 -0.8589844831396948 -0.2651529839274079
Ni 3.70610625287487 1.5277270417885886 9.94826878746056 -1.1171993451863726 0.42795497898971463 -0.932527546634168
Ni 2.4571627998405536 1.8673472322662419 4.993303191711763 -1.139465869894057 0.7011642575626956 -0.8431410883495349
Ni 4.743988660580501 1.219625054270025 5.232882202849825 -0.6392292106207957 0.5553935069510629 0.7314312839773531
Ni 1.8648886275779377 4.723608121716925 5.977795057607163 -0.6044820369475977 -1.1058682364442696 0.6549605053131236
Ni 1.3965614059550273 5.899477406834946 8.35469827868673 1.5851205801563797 0.06068240548172129 -0.25288805051712576
Ni 3.45444125869009 8.649916623066092 4.333697449626249 -0.42554482688632517 -0.4939297432186267 0.053978511098984445
Ni 4.960881959887833 3.3090693243380183 3.631979321522493 0.31815190472194244 -0.6206432200884924 0.9817806272330253
Ni 0.16192130162428617 2.0506426817916705 12.794981787275836 -0.8431197481932963 -1.6431105264076022 0.7126177508152759
Ni 4.241730845684037 6.9446062283587375 12.376564240825502 -0.8088325448756521 -0.1419727170217813 -0.058610353444040995
Ni 4.465944501807674 1.6031026855221306 12.098214142897852 -0.11502421345739545 -2.7634031658073184 -0.24088125586423675
Ni 4.417095908658468 4.927847925466781 1.8210284139410553 -3.1129986337505224 1.0616200652591716 -0.517191799070361
P 8.714607503567755 6.6492501651453315 8.116120270886048 -1.5776260715515475 -0.05308762385359889 0.9593289830977284
P 0.9002134851852613 0.2090192942924206 0.524393575678495 -1.5066386845993922 -0.7907553756589673 -1.2048896467155057
P 2.367303571345459 5.702548717026628 0.5682972308267873 1.0709570263893815 0.7595475825975951 0.27811031541902426
P 4.588800793224747 3.546731363249185 9.461563033648835 -1.5116474506678934 -1.2838641656381953 -1.0898844594215036
P 7.502173405867283 2.123421077715387 0.43023825899120566 -0.2805523492016136 -0.27001982510140593 -0.5928007439549274
P 4.772188671497857 6.948414292763179 7.589033321500141 1.2832327027017836 -0.13420052927553017 -0.14160196394592386
P 6.3765946023622835 9.009529151667063 10.954620976469903 -0.48789330721655977 -1.654070882073848 -1.2685326774874475
P 3.7941908494144965 3.450263479294926 5.667249253999923 0.6265696128752564 0.7452676756398132 0.07335511585338335
Ni 8.279231130492985 2.5569303900870097 2.519459775777288 0.6876376838311706 -1.444372736680635 -0.006995971701858919
Ni 7.455783417406382 6.934947424226114 10.069221970962891 -0.18485614664886874 0.9640222748083398 0.26353550292864286
Ni 8.85195662262115 8.86044158165823 12.012975427499311 0.5314238835093428 0.013019037967487254 0.4829647595666908
Ni 2.407824334328641 1.5461850627004075 13.553990026054466 0.997301862797076 0.39676518365047153 -0.5153262066165318
Ni 0.12656545706149716 8.374515926476931 7.080641934907591 0.4878387998295405 0.15607573208206668 0.20472820298244743
Ni 8.266060033948497 7.197250967268932 3.042582456175175 1.3529435369343603 -1.067266979132304 -1.1488437115645311
Ni 2.9544664338613367 8.755645867537948 11.238030624045589 0.0550239216443633 0.22453341063383267 0.08004821160284277
Ni 1.691917469168434 7.600092421160127 12.961482933347696 0.025601245507872038 0.8028354467519528 0.9528153503489267
Ni 1.2280637989332654 0.9781549509544173 7.981003306089141 -0.06775859560221234 2.3517777772155624 0.039489059233557805
Ni 2.9767972193009737 7.223001616372752 6.54838729423886 -0.7391764751404108 -0.24365599039589647 -1.272742601803737
Ni 7.44148469014019 1.4187165767740708 11.42522933958557 0.154254876823244 1.4946228910854389 -0.014549872789716879
Ni 9.0183745828201 4.889739552798064 3.142026545804749 0.7298721670203495 0.43643627698784837 -0.10451174396184582
Ni 0.29954678263324575 6.314306869300317 0.9926228228288639 -0.16725823106144744 -0.552794635875635 0.2459908091766602
Ni 1.8395169363396089 5.576891834554831 11.751832789527363 0.997537632956966 -0.4209101563277913 -0.17397369540841007
Ni 0.11523276830837689 2.4326784245799584 10.187860738623296 -0.44706701722881714 0.10130866364351584 -0.39076140065855286
Ni 4.660516258550137 8.185683994965434 9.478756629292384 0.7171043258317199 1.9505638137651184 1.1452742490457177
Ni 6.7573640713073475 5.833631166987276 7.448451969140355 0.5826669979550352 1.590049384916565 0.39179344146749295
Ni 2.9551596494689414 3.0861311849323734 1.7983020334613455 1.3942241408507021 -0.13764426484975648 0.1554131587974033
Ni 2.351248697873336 8.350595366577188 8.48985498784514 0.08137027284837599 -0.9918670649347499 1.6809900750621956
Ni 6.761680493824032 3.495063693295721 9.931507758356156 -0.9074029836523986 1.2570796984554995 2.3850432241369117
Ni 4.948746065317368 5.358029802921902 5.836618464112314 0.27906290914028065 0.45457258157724295 -1.5344320526625768
Ni 2.0384236013482933 3.7008100856327704 9.494516655059405 0.574032719318805 0.34394598296691087 0.17415572951222913
Ni 0.9714353809980365 8.236214791322427 2.221359503045244 -0.4596646513881696 0.418614418315079 0.5117742275992154
Ni 1.0097101254125793 8.986745465363791 4.70248075857209 -0.4766516728644694 -0.5999309272418055 -0.36399724519083115
P 8.490597190689016 0.32041349670962155 3.53479511477371 -0.4394215848684174 0.4341166277157362 -0.6547579023840143
P 4.7900181769254475 1.1590842245392219 3.083870377764106 0.23124141878162754 -0.23793811407551282 0.09851233184530131
P 1.118544975806504 3.549365582558082 11.694096248001188 0.5152331326820933 1.0473735826424864 -0.32742073161837804
P 1.360920880849382 0.6018793677215853 10.31440123992292 -0.44647617772235365 -0.3562867639204509 -0.6996251952103499
P 6.202033669492674 0.8734544384442464 6.750589044102358 1.4435016469295914 0.05327428594310825 0.5471904023149803
P 7.384872082185814 6.713312530162766 1.0312682065216061 0.4546044632564429 0.7701027324056221 -0.8734065721022958
P 3.8403774946305 8.9406420060207 13.390640700278515 0.4303247647734718 -0.7025328557754482 -1.0454336853072963
P 6.483774978172725 5.239101733281254 11.352179203143672 0.4560941604280919 1.1917687930628313 0.13876500871776104
Ni 7.5129413549720745 4.110574452725243 6.208756936598961 0.27233381794656325 -0.8748330201361773 -0.884560017615954
Ni 0.010368656914811442 6.32959458416669 5.911643802892146 -0.4692183565148757 -0.9910846782427705 -0.23225674742001937
Ni 5.592613964535303 3.793063218692793 7.651857141298656 0.9183700241868635 -1.3218031067758138 -0.6437170711888204
Ni 7.710812818006736 2.7366303613276624 8.210829235771946 2.28689084673419 -1.0821634366281623 -2.2372341029390115
Ni 5.21899848066072 6.045496342420782 9.503877838624497 0.03552750348264849 -3.0400566941751577 0.5551554227983279
Ni 3.155212430948865 4.922570243974218 3.8475592083252836 -0.22408732423534958 -0.32756394206446166 0.565557077747626
Ni 0.7511092780018462 7.366136775030953 10.423706552642539 1.2524604545159332 1.796449062064164 -1.081703723382924
Ni 4.383396387254115 4.444676646966364 11.325556026661747 -0.8651451034244518 0.21071167425939197 1.095895955722906
Ni 9.192048199711975 5.267699187813636 10.114201496734184 -0.322421992852206 -2.3373076086238456 -0.5074030951147133
Ni 4.230371352594089 0.4504394860842809 7.776949284122124 -0.2754173419678934 -0.29516804223225934 -2.0439786764828543
Ni 1.4197055643742533 1.2984298045425178 2.4400644058071164 -0.865969141987644 0.9922277907082782 0.7995578044419456
Ni 6.523066438811756 5.338434908413611 2.3885233632379745 0.6516952042982905 0.1998032548770043 1.5831937954473123
Ni 8.164305225626908 4.118828339893122 12.195777307512126 1.1777380260013783 -0.465385870142663 -2.1912897749984133
Ni 6.496123458862856 7.788804195299639 12.873443626894431 -0.04835448004398769 0.08983614422754206 -0.43272617512611283
Ni 5.407322054059974 0.6730873992222084 1.0893097629151254 0.44344458998488145 -0.07126403765230953 -0.6644777007749395
Ni 5.393864428397676 8.002619617309207 5.699919119155115 0.6365663190766521 -0.31680670354795765 0.20298885169383749
Ni 8.77934459844326 6.378591063312185 12.106777666370462 -1.0353030246311976 0.6521418049174059 1.7606297383727099
Ni 5.1292871381619145 7.1819817381520945 1.5691526822115638 0.3729020038796288 1.4689712519556055 -0.802337938290244
Ni 1.0738649191776946 3.9628640710568517 0.5179180176159911 0.5515473937320953 -0.052254329319026134 -0.4278163965293213
Ni 5.749881478713871 5.25938060052238 13.466992391587564 0.6859829218365671 0.8463899343041358 -0.8340136721269702
Ni 8.577748256877069 0.38356728713735566 9.322833953392568 -0.689530015757877 -1.193543882685383 0.19155541304591525
Ni 3.1647418348347367 2.5137938935444666 7.580131508811021 -0.5010663542634081 -0.11617555345301928 -0.32427113024580284
Ni 3.5958479997666637 4.81369842208122 7.597717926632212 -1.239421104833472 1.6721791616387847 1.8440540655366369
Ni 6.492879209819266 8.42387287773838 3.304712233172354 -2.408928515394942 1.9336780937533729 0.077387376941228
P 2.397453828838876 0.14789431487627597 6.277748526730203 0.9284796018170397 0.02762418947517178 1.5535662023888663
P 1.819441412343379 6.546940784337658 4.733351960297416 0.2144634279923403 0.5049065539451046 -1.2770965078970584
P 0.6066246596275081 3.036044046564248 7.3444354293630205 -0.3878830506694933 0.3707944706183227 -0.342872547397074
P 7.247107033767856 3.918184014428042 3.8950832975202254 -0.5557462623047913 -0.21071373114192096 1.519006462136126
P 3.0725441590233236 6.652549871437529 10.060401495571728 -0.7678381047411614 0.05186892095514938 0.6219249150143934
P 4.953727974817353 6.648843478655537 3.783978397083265 -0.32723432663918484 0.0442689971207044 0.012680166570829774
P 4.161900136312289 3.134952049457275 13.428979220528957 -0.5206213935772003 1.4760248163682772 0.48808562573302394
P 1.4531647710346363 3.4244296443181943 3.199073568873225 -1.034451732374496 0.08285945579939279 1.0305580537470445
