# total energy = -381160.1369538656 ev
CRYSTAL
PRIMVEC
9.37990173037687 0.00000000000000 0.00000000000000
0.00000000000000 9.37990173037687 0.00000000000000
0.00000000000000 0.00000000000000 13.72843431741191
PRIMCOORD
 96 1
Ni 8.946156096672256 3.1027869977230207 2.4371132099443114 2.3938009157248836 0.4710204427206211 0.4555835393402605
Ni 6.47274172992535 2.2849627656717484 11.577902262781496 -0.4075990410411819 2.033765740505594 0.31784362945290423
Ni 0.5698674738380554 2.2968377209731843 0.3066055303441485 -0.27859753946808796 0.20091551410457656 -0.5812996852938633
Ni 3.3492814292920876 2.0929843216318647 0.6051359034852904 -1.052729447637761 -0.5771748644922124 -0.0380888364519215
Ni 1.1284302903859915 0.35663323500466143 8.435175644463282 1.8394659319453222 -1.649111995406676 -2.1242914546009932
Ni 2.8020204560638198 8.01814616167788 12.320569096058449 1.0218044759241305 -1.3816902700497495 2.219647757315816
Ni 7.160401068834418 2.4597572301601063 3.6299355861508626 -1.2124211792058603 -1.73614075209241 -0.5277443777752266
Ni 0.8076695506852891 5.437238123718921 7.540712927190538 1.3327894305839887 -0.8900197551789447 0.09190099717637076
Ni 7.127327536138634 3.960335112634942 13.044167527572142 -0.0897214730265487 0.5294176517125915 -4.054080754822921
Ni 0.15556848037986407 7.734554219668703 3.3437247756423476 2.0699295920206606 1.6106066402426262 1.3189599809000638
Ni 7.309241345866952 8.910231073919887 3.5275764730209636 1.1614259191049159 0.4624941504171648 -0.2550063824117092
Ni 5.981225511323017 5.797182463953762 12.084728356615267 -1.0733288690556677 0.23239635832167718 0.6189192954188503
Ni 9.284160847294098 5.623194670994568 9.698767501521552 3.29768817291454 -1.7811458560481905 -0.9753179023268171
Ni 7.007142858194478 5.812443563697393 7.9221297379435835 -0.7332901915629628 -0.4443650449166218 0.37826506796375503
Ni 6.151714601021991 8.285510874088729 1.7033282053995287 -1.5823193632621588 0.2536575816932986 -0.5576061983316655
Ni 2.942456341350629 4.091419236124334 8.560063405020502 0.44428482649798967 -0.15881858493452647 -0.8193928368900016
Ni 3.434619773156594 6.549581883029113 9.222062147390757 -0.07173994884746354 -0.4506634763308238 0.3614896482776291
Ni 8.601454096378042 5.037016486434817 0.5340990954407676 1.6208072349247118 0.9130810078737823 0.6547797567608853
Ni 4.931061119069081 0.5560461889749699 9.419778277179368 -2.608346876128701 0.4339590190919494 -0.6660735845071496
Ni 7.91592399510991 6.749214326694566 2.22364916352412 -0.3961797434606467 -0.34685415775264133 -0.8518823248772748
Ni 6.9485278537089545 4.722883585135375 3.3928454438276243 -0.45848425792682324 0.749242086906529 -0.2684185420525571
Ni 3.3706769846179765 7.167708012104417 5.210600005639278 0.09039381650322496 0.037127758090232825 -1.6452352860600892
Ni 4.605916213406379 0.31865682779382076 3.14061238851968 1.353558801920856 0.12074826042536625 0.3269677032413595
Ni 2.6420274761454983 2.973925910889585 12.093967559594663 -0.06995920279795693 0.20490740887278905 0.21533914572907428
P 1.4825028122806276 7.930406563028881 0.3249713774849162 -0.7410202132173689 -0.0531956101863729 0.6860405145473798
Ni 3.7664713083931716 2.519479063022858 4.6149368646807805 -0.45286588329878136 -0.10243583526942358 0.25124974358275437
P 5.127757653564433 1.0722259205864615 1.2705020304947368 1.5442724357917663 0.18419871557052794 -1.3303967619820958
Ni 0.3757194585807769 0.6591275545205166 1.9710596719591025 1.5957492635148194 -1.7822195487283434 -1.5442724357917663
P 8.089499072403019 8.528046987223984 8.561751787290849 0.5137593763500442 3.458491392379263 -3.103353397351275
P 5.032429714600377 4.435530302623926 8.53031317142685 1.173188973178115 0.34618309982754575 -0.3474557958923823
P 6.915454321013169 7.837742516091372 11.866089418536465 -0.08712543016459834 -0.006311544040324614 -2.1999893596549405
Ni 8.945180586916058 7.130713680580828 6.744161373755479 -0.3660518137270148 0.06843196752015313 0.424646740552088
Ni 7.703497365795832 8.038162871482987 13.70163577751697 1.1995224688663213 -0.17897937615311757 1.5822553427934427
Ni 8.539790623904393 0.91720616444446 12.209437899043952 -0.0140500503351629 0.3425308477869391 1.4175741284305523
Ni 1.3464754806997226 6.113772899446708 5.234871438765657 -0.6436738766557109 0.12290001666104641 -0.2330321921334632
Ni 6.356984365490102 7.7959550549003 6.642749630677275 0.640703224063161 -1.1698745640929014 -1.6658151670939696
Ni 7.849429873362769 1.316684913529611 1.154926636148627 -2.0244768590045004 -1.1818026829890549 -0.7717775490048838
Ni 7.815343311304776 7.047401395440738 9.796336298954417 -3.060848434109529 1.5107336806043723 2.8983912239811507
Ni 6.893552251006176 0.5546091880648751 10.319952416476633 1.9340568172490302 -2.7344193769804583 -0.11895440174973707
Ni 7.599980772820596 5.0649216934030425 5.832634739670435 -0.03999890899044079 -1.8478767817168371 -0.2133866499883938
Ni 8.319240999889649 9.228303533850138 6.144641217299391 0.34011735324944004 1.043971241829157 -0.6436671917874914
Ni 0.25640804946645074 8.117657536711794 12.211579330556841 -0.020372650119081043 -0.12253774822562122 -0.12494892877027514
Ni 8.35136716253374 3.9494450469912077 7.827101955827589 -0.8534694668587365 -0.02723775267003051 -0.31139581694503143
Ni 7.154472971085203 3.4331940281283018 1.2515255517661938 -2.613854950431124 -0.23296868588537942 2.712582740721341
Ni 4.353784461034656 6.275660619468419 7.003107624568351 0.5565787855084156 -1.6359057811290472 0.11023142005444242
Ni 6.239557378587513 2.59470587306829 9.140789052837185 0.10544531151970873 0.77863622379793 -0.9316299745205633
Ni 5.489812471637205 7.3523044736622865 8.681230158651909 0.4218385816793315 1.7577038229751665 0.6414573286203662
Ni 6.181899124055184 0.40381413955934037 12.854069753783396 1.6156622003886625 0.7171122962515198 1.3149668005802708
Ni 4.760806526907654 3.555817480462957 13.277798362221471 0.44154068809394925 1.0051159595248562 -0.2878144300806656
Ni 8.947441143178022 5.609621953521285 11.880723940859768 -1.4435805797966428 0.33365874210828983 1.0122584841069082
Ni 9.305940978581564 5.307270208508259 3.638186147511955 -0.29067426812696395 -0.5497226818185307 -0.8230556304535697
Ni 4.187929042677632 0.5449628973602962 11.935171455107987 -1.4610730801544516 1.6868866430522884 -0.4583402761497913
Ni 1.0945313263580374 3.357526362712279 4.413526929680712 0.6129317103768477 -0.4508743067900493 -1.2976231670955007
Ni 7.74779864058942 6.842825743683769 4.605518505582698 0.3092309480832287 1.0365001302630923 0.22363069631390517
Ni 3.766855884354751 6.00215207157381 1.1543666560289623 -1.0890833036764471 0.2919243384839811 -0.880523128542419
Ni 2.0632594137722666 4.076786589781332 0.6626403276329872 0.0032411326451169988 0.3013798274699261 0.026660797120637958
P 8.28053952629271 2.915545403941609 9.959525949304595 -2.2008193117554034 -0.04019996925765335 1.0450040539690455
Ni 2.6097324752743725 4.248401267660538 6.284231973460877 0.439118966026334 -0.38406984757099016 -0.7163898162631984
P 1.4122567299327171 7.082876182921015 9.07758352455662 -0.7899935577922782 0.5436780182863475 0.7969820732949694
Ni 1.0644499822413662 6.1452987483946755 1.6511328055019214 -0.6824098597733279 1.8930456649439915 -0.8100754161438177
P 6.275895117005967 0.5882586467128782 4.940643626443448 -0.9637402247915468 0.7927770340746864 0.7020957682380295
P 4.834813949757836 5.571239396575411 3.072670947970792 -0.3576929002393582 0.09484516740635923 -0.8182353262467907
P 0.4576031847221249 3.511731943403914 6.291644909617848 -0.8210673963789473 0.008595712088811002 2.5089814522544853
Ni 6.062661816162723 5.8117963504937595 1.099039307019862 0.8075963584757059 -0.6911107299814355 -0.2705885531206824
Ni 1.7192515261891954 0.7778499058205218 12.556217547520841 -0.6041184829605918 0.15610452843747308 -0.27345661869709675
Ni 5.4091453187206575 3.207738715628051 6.518918985019322 0.040758412864284645 -1.4384892813166645 3.3893595705786077
Ni 4.985614626204272 4.502540318953672 4.99984112281224 -0.646673325603667 2.8302716454950936 -2.2364146923615094
Ni 2.063606470127838 8.721854512056742 10.518657187883546 -0.7763047474512759 1.2655995630010526 -3.2006092310816556
Ni 2.402661769717893 4.855506012471082 10.574325965307317 -1.080644171770158 0.9435897179856008 1.9525795586435661
Ni 8.509906257719262 1.6665927591573928 8.069202841533155 -0.8806025756301028 -0.9620301840789754 -1.830681500884473
Ni 5.4853007390147805 7.23518702350926 4.275185576399282 -0.03299496686878188 0.4849270254993842 -0.459391343122125
Ni 4.321217443019975 3.418083006808702 2.357240534684976 1.0450449345093098 0.2953575325352462 0.12320777770945232
Ni 0.13442336842407626 3.230287998838677 11.778913551967733 -0.13967106547179817 0.03936281806833866 0.12537907432915826
Ni 9.307845098586457 1.0114160191494865 10.008440259656828 0.2319073345004006 -0.43417756286065873 3.6836246413806233
Ni 4.662129963107411 3.884592408006904 10.727233367631085 0.15548437835497095 0.1356647725258825 -0.27248114215770497
Ni 1.25218871080238 1.2428557088079655 6.164176738157448 0.10838588220527141 0.47901194556652993 -0.3988230946207647
Ni 3.1641503133486086 7.819489227768627 2.8365825791279597 -0.2515855296556183 -0.6124241746128097 -0.0552640626796274
Ni 9.351377221456886 1.1332421798564787 3.982962249028034 -0.9771289873936267 0.14447440039771245 2.0187425276238846
Ni 3.5457809858558984 1.8279739644979993 7.651322601681528 -0.2531569879077962 -0.02466947772222203 -0.1805983998137793
Ni 3.8314083664909933 0.18709901927858238 5.299957637297359 0.0770050539011448 -0.07054232899493658 1.911158058273986
Ni 2.4257269475111247 5.0127413013478375 2.957241880088113 1.135710773726999 -0.14667937846883125 2.077813879864744
Ni 3.339723309661627 9.138190820121151 0.6755902196465438 0.051002973410428296 -0.6226111424481406 0.5754247145703252
Ni 2.3394787532009316 0.8815437789341442 3.35533896968203 -0.4345472874952517 -0.1680727565429428 0.4385553802133802
Ni 1.4341494200382083 5.914412472924811 12.978504465098073 1.5774617780595412 0.2298075145485784 0.25647628208901635
Ni 7.4211904702924185 2.2995485125072403 5.867903169317669 1.369121175135487 0.39650755911371066 0.6936247546525409
Ni 7.2066627430419095 4.929766692661816 10.455629877731518 -0.8617378775151159 -2.6967123493479876 -1.1393630257676055
Ni 5.1248405041973335 7.771032656609687 13.201234916212014 -0.9790863682303138 -0.8546215781853087 1.012129928948844
Ni 4.808071850575851 8.005971049528382 10.759125032737629 0.40547762382280494 -1.136230907896527 1.037287144940762
P 3.736765160336578 6.101766625524245 12.317920211874307 0.3305014274262308 -1.4566222434719494 -0.34028833160966554
Ni 6.260221301596252 0.6083241320057945 7.162480592997395 -1.249846413931854 1.153995945189432 1.1266707750119176
P 2.1375951331750165 2.9015318310977345 2.5638262993338055 0.3423393006014233 -0.711552285665239 -1.114846785793796
Ni 2.1998776791477934 7.603338777558284 7.098973031888467 0.819513421628266 -0.23125813095217596 2.526155650040927
P 4.012234107645089 9.04878159900481 7.633530804512679 0.47572016218913554 -0.4963792332003838 -0.4953209671391986
P 1.3249017072452967 8.497402849017199 5.51181490659027 -1.487749046783741 0.7650672268642437 -2.3928832890066207
P 2.901400512476707 1.7357695327340839 10.371076631622723 0.203291727646237 -0.6954893186651054 -0.5986757146784658
Ni 0.7476353671025235 3.416976178431475 9.249985176171837 2.459277914381771 -0.5260914155528358 -0.006638331252124051
