# total energy = -381173.4659027591 ev
CRYSTAL
PRIMVEC
9.14438915751959 0.00000000000000 0.00000000000000

0.00000000000000 9.14438915751959 0.00000000000000

0.00000000000000 0.00000000000000 13.38373786105178

PRIMCOORD
 96 1
Ni 8.67507158846797 4.726734709578808 10.378714250583789 0.7377891078745811 -0.769204903181701 0.42194965333589907
Ni 3.908851406890786 0.5841764935052208 3.157518224527589 -0.31097724135037413 0.24590313455886043 0.981752345098251
Ni 1.423525335092962 3.2377995594778795 10.829411011293015 0.6978243945561853 0.37945240340363684 -1.009072630179759
Ni 1.8420640227645078 5.013036386928783 5.997065923482697 -1.2053177353918596 -0.8815896221337204 0.25597003187655915
Ni 7.445379868462921 5.7594197114891275 8.783037561323562 -1.2728097075962468 0.16394613596907895 -1.2104643125898056
Ni 2.400082076899984 0.06828481093114487 5.266915718396999 0.4137812585924939 0.3968585146952262 0.7922347884179711
Ni 3.6321879156191534 0.4371621504487332 7.687565355190162 0.11447451160151252 -0.9752906486333074 -1.3418178593348438
Ni 1.658508700989744 1.841625092089213 4.020354429438126 0.7630378551390408 0.3234005547153915 -1.2342591010165582
Ni 0.3350293833800261 1.3798974548464917 9.671035467195363 -0.6402460819210845 -0.3850514947579691 -0.5920337838819159
Ni 7.670441572220231 1.8169443859929602 5.703252130512833 -2.3314614342557136 -2.3291530978375112 0.5650765385667816
Ni 4.008479525793594 5.741149222129988 6.552811596934616 0.26779350687404846 -0.013400589676622082 0.38041862397164805
Ni 3.6068671022880956 7.298987343863101 8.520568905203175 -1.1090414919659288 1.7501398945849795 -0.9326818128238452
Ni 4.503639049471254 6.4004139520334205 1.7032009881238035 0.4807001319022302 -1.710025543062597 1.8623346090133797
Ni 6.242380620149224 4.1033708511588465 10.334400541157173 1.2910249450526927 0.7978382506476777 -0.31049361684573623
Ni 8.164220293148528 3.9442493369754823 6.029226739837095 -0.22995638142161687 3.3926220433799643 0.49815869369830984
Ni 7.041810545696735 6.70958574644406 11.193783824755391 0.26257725278043165 -0.592548004514173 -0.4441380165074803
Ni 5.973462426418728 4.090184642121871 7.472086971176784 0.1021445292812499 -2.850634782532478 0.8699468956884695
Ni 4.102822187814728 3.8468158714491483 10.560772635868016 -1.9502426829802735 -1.5464984969088078 -0.11175994088382687
Ni 8.32113800956635 1.0442343653040091 3.6502672872467574 0.26932614146849093 0.7883457377762101 0.08262728518392866
Ni 3.7066415314160013 4.160550716005037 4.836575282193469 -0.4455428672748069 0.5358286974452577 0.5034824199040683
Ni 6.120394469973598 0.35400216181963545 4.468160648762754 0.36508405049710674 1.4632382061265703 0.25417257365650425
Ni 4.214274001783284 2.0417957688016917 5.033985267846126 1.4875916952702701 -2.4888191183739976 -0.22323037555169298
Ni -0.07994207811584417 2.0750539118443267 1.6552468974089607 0.6271514535206554 -0.9806277445755048 -0.624487533535247
Ni 5.47385872965371 9.014392433637909 9.324570110846096 1.3058913206415639 -1.8723724528653563 -0.36887128545368086
P 3.222729606292765 2.1125550514148097 11.789667879585188 1.290345916707797 -0.07856442796846469 -0.2718489078903447
Ni 2.8715210553335986 5.275297465417312 2.971015666156003 -0.4065433460831579 -0.5169837968246128 -0.6840096001602801
P 5.962516592703569 7.155173536980636 8.244355317873719 -0.42482671777337805 0.6446982041551671 -1.3111610536809353
Ni 6.922375680071259 6.340755957749629 2.263257326582679 -0.39637797551438186 -1.5477624512228958 0.29021866864678403
P 5.510628318098703 1.3780045663092837 6.784805662044859 -0.07891692621187699 -0.23079841770693799 -1.2361982270208
P 3.1451120318781687 6.713426389852888 4.613374461611627 1.0568591535354186 0.25611555631548794 0.4308217590145483
P 7.693430566338786 2.8423504542046443 9.486366358832038 0.8026762954662692 -1.180157434076148 -0.8056389776390189
Ni 1.3017769390331202 1.05993528133486 11.68963740756336 0.48127091680403566 -1.7764520501169472 0.6988970587950737
Ni 8.266811194109573 7.96021811741629 3.2014972493142952 0.07069299564018793 -1.5354296406891559 1.255658906848573
Ni 5.88955351232491 6.9643209927291 -0.02103209485786662 1.5970605261270754 0.723346964307322 -0.023311163922114693
Ni 2.1545369416289253 7.261349038456588 6.542880790406075 -1.3983798148902884 0.8758128675509433 0.5525539806197387
Ni 4.4460751202841795 8.611600383942557 1.312752034793299 -0.24463583781066253 0.6337946698687859 -0.9593109853755993
Ni 9.317583797597658 6.825399433998356 9.772256538673926 0.8680548208720792 2.007036037820234 1.0312363107609916
Ni 1.6278658532207393 2.8372113075480696 13.196833902634358 1.3567721666518309 -0.8517432281962491 2.2105056858052317
Ni 2.8416554806354277 2.236031737008624 8.642013707545939 -0.49119846033039277 1.3655848798474546 2.4127118936967737
Ni 0.5601834454669294 3.2838598472166076 8.135358772370093 -0.742453860340102 -0.6064689854706393 -0.0644056199695794
Ni 0.4589075076539536 5.571200751289358 7.917284296300129 0.6612478809837322 0.6887779680832009 -0.920040469910751
Ni 0.0839061707770986 6.389623572932429 12.21498987506785 0.8756843123928788 -0.5334334577402039 -1.7958373966220942
Ni 0.9455481184752714 0.9598042210332776 7.375496618322579 0.3113464517643348 -0.28716291253959575 -0.17254570471263186
Ni 2.2926903716779035 7.289477179231717 11.17480555968234 -3.5409862657503854 1.4486178851102343 -0.2706955110121919
Ni 8.701270263149617 8.632614190022286 12.148632701352373 -0.5101284644656762 0.6241003253991574 -0.23281956190202485
Ni 1.5456486511046181 5.546776088087027 0.5065333148012322 0.825909554962597 -0.011216437541109715 0.8946724234596074
Ni 3.834681267155066 9.024067197272528 12.512108450247117 0.26871139070262756 0.8096077324787798 0.06945963745371908
Ni 3.5488276648694526 0.38399850128148755 10.269341870689443 -2.159241231203301 0.8732085971588768 -0.43129561332717337
Ni 5.654076349418421 4.244487063266063 1.9784909921573268 -0.31461792342675493 -0.789691196060511 -0.8497143706916785
Ni 6.03647641149071 3.557825743712992 4.803824652744144 1.0192464853889671 -0.4852234736938804 -0.04817758814649122
Ni 3.5974392371583304 6.690291085509235 13.126395588077548 -0.5670922834452299 2.3067209940862403 -0.4320214357496043
Ni 8.158066119305335 2.747413406894048 11.703663985955744 0.38126888778708534 -0.40161376999202447 0.8254827518378236
Ni 8.704059301815551 8.081481860855494 7.7843834033321775 0.6931763542612126 -0.542193463321021 1.146642075927522
Ni 5.336601449733459 5.539268544661675 3.9284350305201805 -0.4255975345011315 0.8574942717474136 0.14396840729557142
Ni 6.222500718314007 1.5747278083428857 10.90132248692878 -0.05019436146620388 -0.8370802268674359 -0.9844008384646916
Ni 3.5984634087340175 2.991952659367556 2.8254406499389195 0.588127249738658 -0.4091769270512631 -0.6953947020687701
P 5.287230893151884 5.43230662572582 11.941747299746794 -0.2783625406391464 -1.0509502442501515 -0.11110868045307316
Ni 2.211908838645558 0.7237921113662739 1.4231193242183144 -0.6972271272918187 0.45302606302572945 0.25758442755153055
P 0.41522201775635087 2.5101530881191754 5.584311061897064 2.34598611023445 -0.5343528842306797 0.4926138526206807
Ni 5.570304601160631 3.1508912857695477 12.487803578541584 0.7744296419157503 0.3849249964824339 0.715441079196684
P 1.7065350323782291 8.535857409287031 8.904481449227418 -0.25173773896276647 -0.0965796335989627 0.06411894196709603
P 7.10279447639548 2.7576276894837166 0.7701239874603402 -0.9447991649126697 0.3778300373088654 -0.1433225461814564
P 0.42756419968229115 4.298777301166565 12.530122896712333 -1.202851276129238 1.137120252480016 -1.6625712062353755
Ni 2.23109376691156 5.426920580564393 9.725480245271124 -0.2274683248924405 -0.4072280308550083 -1.6735238485921373
Ni 6.809186432179661 8.976946160401837 1.8260366520439064 0.05615623547659361 0.04252013275039774 -0.6654693752642474
Ni 6.273590420040485 5.76933222923953 6.233850734025999 0.2782524974238434 1.7606485074257874 -0.8922977525798438
Ni 4.018355465987722 2.0312888657618267 0.579423240067343 0.3126263469180229 -0.19808292975178787 -0.234469438800622
Ni 0.05489102426231129 8.787922493964029 5.658296484973596 -0.22522349472232178 0.36563915166962835 -1.5614119236855302
Ni 2.550406688799318 2.5546131077708916 6.366764429138648 -1.5830022482617963 0.3343326282468629 -0.11378031374796532
Ni 0.9006766013154665 4.051101523242513 3.99776230180515 -0.15439731593837927 -0.009486085113564307 0.4795403072661741
Ni 7.820912494344664 8.751372370856684 9.95620232586192 -0.44683098995861104 -0.07561974351784397 0.0081352275126247
Ni 6.846971047811273 8.18998003715488 6.246738835979338 -1.0088314607032303 1.2311560366112022 0.9792707163269782
Ni 1.1527691191596696 8.836278023358984 3.3940625376383875 0.4882434914671269 -0.10338457233593808 -0.5705936117302689
Ni 8.38268889238735 7.073815907436966 0.7437012752465118 0.5815850777447661 1.7947511055364511 0.8026847801067015
Ni 4.312841371554129 7.159023324778532 10.696470797452065 2.652952173542902 -1.3311943181827266 0.3740078353492978
Ni 7.365512774337439 0.9819153538012434 7.923065379069323 0.6917128823418087 0.4837484318102508 0.6681944875048944
Ni 4.4710850243869045 8.307622602522903 5.6348612446684925 0.0429757322305776 -0.9167569140634728 0.07272930934392635
Ni 9.374187565932527 5.532026188519313 2.3463971975558255 -1.0282209209734356 0.5788198562948031 -0.33102978912587505
Ni 4.003651288365353 4.555707200828077 0.21077633915428434 0.47955521966450954 -1.6771298207758407 1.812590190600401
Ni 2.7002100705217402 5.0641443774334 11.917295203377257 -1.6364580540880915 -0.6167983924211056 -1.1593497533021775
Ni 1.029374733067473 6.50526351709442 4.2318037956278625 0.002542563916195621 1.1244565409694183 0.7122544539385863
Ni 5.3487543428056785 2.0924282510747383 8.810018995709484 -0.561314500421188 1.7316534057450175 -0.3260451914270901
Ni 1.6859510125847257 8.173035484210695 13.271367989055008 -0.9947330736286353 -0.2457151869177704 0.45826854237159137
Ni 7.753792678580864 4.883743869887316 0.16438593897017867 -1.1730984703468375 -0.9191236145234364 0.11991548011142573
Ni 5.385843984868073 7.763632041218718 3.310454473944927 -0.6864176953811404 0.36591374548725364 0.6344677846764105
Ni 6.763519353170885 0.8132260653353639 12.985946001933437 -0.08112781782026673 -0.07454245129326517 1.0517889381013628
Ni 4.732075032794892 5.446827915566817 8.867850855496268 0.4301890105265559 -1.3584287284186476 0.8432357049458702
Ni 2.3031058308270813 7.327197784139848 2.0752688049874397 0.189539411057151 0.602909293143839 -0.22387443689359507
P -0.21231076764000179 0.06021763089479273 0.8756822426741592 0.4556161923504089 -0.6554397589423873 -0.06734079133850338
Ni 7.877552840235805 3.6712436013313052 2.7223596097237945 -0.07293859714125503 1.3477540223136206 1.2816023661872122
P 7.580040141887679 5.517193989449984 4.285325904846599 -0.18245499340654384 -0.946557285254357 -1.0793948727440896
Ni 8.363531397288554 6.624606938829211 5.8788070262914465 2.2200370223344343 -1.2119480962241835 0.08322943754430182
P 5.786432236797883 8.434290679901672 11.5534445345307 1.127797432417193 2.0588746197580803 0.018470805110677866
P 1.6383910450387411 3.3879138504286357 1.9881675846697593 0.3770998440110603 0.6173442376222464 0.33275834178120756
P 2.5644158928524714 4.217428816011964 7.917859478372547 0.5163145386717302 1.1487071859866667 0.0043510778798441195
Ni 6.28624625451148 1.964736002120282 2.723911412548742 -1.6739730203144136 0.15106619468261728 -0.29048657759619007
