# total energy = -340866.3254685554 ev
CRYSTAL
PRIMVEC
9.31480316817880 0.00000000000000 0.00000000000000
0.00000000000000 9.31480316817880 0.00000000000000
0.00000000000000 0.00000000000000 13.63315599136271
PRIMCOORD
 96 1
Ni 5.785778217685302 5.439491094661644 0.5370906198846517 0.7558459653762918 -0.5360580398472446 0.7322131564487002
Ni 4.042345136071035 6.9660382990303 0.543743252315884 -0.16007765415260816 -0.844874526100874 -0.6083674880449329
Ni 4.94902944801629 0.8637579729700501 12.902310202814684 -0.8782975816460099 1.097061179675601 1.418739866603879
Ni 1.2096576001814157 5.222577273006493 11.934600889315274 0.3755612958793468 -1.062528178895738 -1.6240229136485322
Ni 9.214147416942765 3.266850512114407 4.0510237381939405 -1.3541799804446226 0.474947288578853 1.9104237512111224
Ni 5.4512463762749395 1.0911919333368147 4.729355650178873 1.1336924577453895 1.862922620306366 1.1373508804335832
Ni 2.24685161948315 4.203379453448725 3.9270986652054796 0.7585145133473905 -1.8315842152044004 0.15782742466585079
Ni 1.8808543729303857 8.938485131630678 10.236182525549193 0.19251803406950072 0.6916964272815764 0.055128565543027634
Ni 8.965898597389733 2.5775271323769484 12.793953891861452 0.6650801102456287 1.0315116759095655 0.006071917225692769
Ni 3.4235161868006267 4.390905071070639 1.565481218700867 0.6847403076787174 0.3795133385485593 0.5119369784293248
Ni 4.196216369803222 2.6697343690568274 3.016213377025996 -0.2080734653055965 -0.19908000355773456 1.3477002862575498
Ni 0.20781419042850519 8.461520634793299 8.436906267389865 -0.8491001341464472 0.3914833664262419 0.5065677436976115
Ni 5.433315380153234 3.233354479878742 9.95099026510354 -0.6050721051231128 3.0996592363291393 -0.6851766238851877
Ni 4.419995201402114 5.277422834130963 3.851407506044248 -0.8584872317883021 1.0518444739296464 0.39756582517489597
Ni 5.885642222579229 2.8024609995701724 0.8071705436509001 -1.8945407614322791 1.6610527127083201 -1.2521226115605402
Ni 6.813471137743328 6.639358836700768 6.2544422934088875 -0.7233459358660576 -0.30450886001721106 -0.06135320629650078
Ni 0.2406777475282407 1.0931666716109973 3.058543568597674 -0.6047013520472554 -0.9919927918793368 1.3940220521422249
Ni 3.912608557378505 9.43570932538479 8.660694413791937 -0.6064967533847814 -2.4115070747553955 0.03320682576927185
Ni 2.79089201402048 8.68976125711546 12.946835893495912 1.122138948579835 1.570121535644386 -0.3665783756544461
Ni 7.257088639195923 1.2093222672669317 13.312108448361265 0.44018263140415803 -0.7520990967393498 1.0486190250138134
Ni 8.709173306942803 1.5179589558365971 6.221763169412118 -0.0366616170870917 -0.536308979515786 -0.06010647837359325
Ni 7.952410752181371 6.345746925660615 8.385781970135849 -0.12957614312964136 -0.2250275766614318 0.6284370051012983
Ni 5.290733687875336 4.907485425833013 7.788581062369331 0.1793485865670782 0.4006758315587874 0.8976561886782799
Ni 6.058394562357494 3.606207421572065 4.745183363742511 1.3576867080463004 0.29597022641858056 -0.2620427204332003
P 0.30550970914210346 6.8984314575490835 10.278145713875574 -0.5747757681324165 1.6471265895455312 -0.723511000689012
P 8.023063534302482 5.131897664048151 5.17824067282982 1.135195010432845 -2.9787903911655085 1.720842688282759
P 3.200510483865685 7.044608663854502 11.58619185412719 0.38680832954807576 -0.23733570460482353 0.7880786001577524
P 4.15156120335779 2.872843652399061 12.992615356685183 -0.3004272337486697 0.7780420418573568 -0.26183600373903293
P 5.614665283266737 4.249385266355274 2.50087934292912 1.320749725810635 0.12403721558928316 -0.6555978817868063
P 7.508029436868005 8.816377376742656 2.3056801904474336 -0.36706791369635494 -0.8834045638552721 0.14781194941137768
P 7.518760090131489 1.789401635308095 4.3876951898947745 -0.25654081677836466 -0.10073607896949749 -0.4512625433674034
P 1.670479543107669 5.393205837659693 1.014796575055167 0.15613641011667304 -0.4712384722686981 0.8739979258293915
Ni 5.678127037332806 1.0305059906184175 2.1395739627381754 0.36989689850471785 -1.5772265221202837 0.8418714776084921
Ni 9.205764094080669 7.02005484267174 5.441974421189461 -1.3992812436586353 1.5559930666628041 0.052818429352612266
Ni 1.5768750859507739 0.33426264359845775 5.439819907213903 -1.54058495963785 -1.0035051633943104 -0.9836693596153058
Ni 1.1798874892177935 6.7778699599889585 7.142996272444383 2.3561687071944064 -0.2870528693242927 1.5329184442315278
Ni 1.4386899807738864 6.965730910525356 13.26536117712158 1.2262174616590042 2.2061741483094135 0.32319949444817886
Ni 2.3249469293451672 6.8642554446812705 9.603440054768658 -0.002453603746815129 -2.1325243840337467 -1.705922833748133
Ni 6.975818842369413 7.820662176001937 10.07370255071795 -0.13436276588500728 -0.23162785558676885 -0.8868464996572855
Ni 7.864059844018056 2.6584168831929977 1.906228828273315 0.33552099212800923 -2.8367122589141145 0.1856537028494996
Ni 9.329054828972565 4.822487846814537 7.070018515449516 1.504754837313118 -0.702402757955487 -1.3029448364187302
Ni 6.037957884180339 8.458651675413826 0.6647201900978418 2.035676841485378 -0.7709889916653173 -1.5822157478047592
Ni 2.04833453410871 3.433762470298744 13.421964442626493 -0.963223175945812 -0.18925684681972565 -0.9493237922559007
Ni 2.9508364994260967 7.1652260502337075 2.5935308957206904 -0.35322817959978525 -1.1449376916419054 0.7341995907511097
Ni 1.4445955659900744 2.740862206140125 6.169317101586844 1.032120513138158 0.5778829463028305 -0.012625659183810513
Ni 1.557313999272549 1.08034018763199 11.957886965785224 -0.6211839230833108 1.3742754656429172 0.653187729683417
Ni 0.8827499251739703 3.2048698117539747 2.0085864059785568 1.5063946869093863 1.0553154631973825 -1.2781450037662312
Ni 6.336935121852234 1.7056242955062129 7.018894218195499 -1.7771187371666683 2.003975910837671 -1.7002607503663492
Ni 4.732888755025088 8.973946587337345 11.058425352225825 0.06621773347765371 -1.0387061367754757 -1.2911663557265636
Ni 6.169976589651996 3.8811524670392834 12.055431584687305 0.375541755495321 0.4873978556373799 1.0182548108996594
Ni 6.793444310906097 1.574704736809809 10.998848802566178 -0.31517945235717976 -0.925218928787897 -0.13327364658588658
Ni 3.8194698403806147 0.09932560927011697 3.724360111029814 -1.6915354546782095 -1.193025548288068 -1.1520120819901838
Ni 7.568081972970155 6.424410438516618 3.7431871912174466 -1.2187203819510108 1.3099660049315698 -1.1520717315835256
Ni 2.2994709426475746 6.379904308922067 4.821406398165326 1.058297428643842 1.8231425121949503 0.9257166943599218
Ni 1.4864097174655746 1.5103301320320894 8.441514300523066 -0.11130382718301476 -0.4104653068453834 -0.18164458169010653
Ni 3.5695629858615243 2.8855490439367264 7.987502410201788 0.0691539332878422 0.7016579093696625 0.3842279704154093
P 0.9990033262632957 8.097032386355712 3.8236363518430765 1.0365965466316405 -0.2277768572717948 -0.8104960486210041
P 7.323400723035105 4.517325579831051 10.108808180943138 -1.834556410458847 1.2878388340152271 -0.3668565690164972
P 0.2922743053034894 1.305711850574679 0.9056000688550908 0.5278983868545876 -0.21373529157706414 -1.2565132844290683
P 4.896652309734549 7.18627750542075 4.856634983792492 -0.39111698422575863 0.8599373339712675 -0.024527809938035175
P 4.084243120775157 8.848569336533105 1.2586497389875064 -1.4316894847860118 2.6461171528989396 1.4938826704853045
P 8.879056687341595 2.726647816487281 8.06799255596141 0.7710548119062463 0.17287763413075385 -0.051293250957337465
P 5.56018299946629 7.150955771761784 8.106492500465428 1.1875488414442128 -0.6194160325496106 1.1178110106284427
P 5.376867672881785 1.3999403995446416 9.207274955156482 1.0262059474259357 -0.5229436139524735 -0.23181811722070397
Ni 8.560788492283699 2.8885297809543613 10.267048057366795 0.6517383988314002 -3.0108332785336662 0.2986961099901759
Ni 8.838984404060776 8.533393656131004 13.514819989607709 -0.022366026400025996 0.18730075153461936 1.1257282085929903
Ni 8.263459974774683 5.935439160380081 11.527474129320748 -1.1954840371308895 -0.1962008822377266 0.12685848708816216
Ni 6.06238129811858 6.807081182761774 12.14475588978294 -0.7840818202935335 -0.0142415975206787 0.5265637272035641
Ni 3.263683479033171 4.547840875049082 10.59260788035408 -0.42841829177937824 -0.7437954619696608 -1.2530003861798034
Ni 3.6229926969026183 5.191288849124514 12.86048301061473 0.31991336749773935 -0.5089012769267945 -0.9613956358187701
Ni 6.839170679717244 8.436743258334214 4.473243273781195 0.031818944282809715 1.3560846536665032 0.15666142938220762
Ni 3.479200080211306 0.9083199913836821 6.5122993324422005 1.6718006952534434 1.1871801452508846 -0.9991851958627179
Ni 0.5599975838651708 5.682328013567034 3.6840465743466293 -0.8113771656743767 -1.3376117916732964 -1.0360077640077063
Ni 1.8968478899906296 9.093865363478043 1.7814449304316478 -1.1700013194787529 -0.10510644012305123 -0.3558355353156452
Ni 7.284707030624941 3.9075599340548868 7.140460783018757 -0.8602340392760798 0.13004459812562766 -0.6468023949823635
Ni 0.1920740360147604 4.769291005852946 9.454662155415354 1.5040277293391064 1.0264445457993032 0.1894219116426802
Ni 4.663279230860148 6.684023317949381 10.0237919723183 0.7342127033772323 -0.5249210493938185 -0.1632372828275124
Ni 8.078104706293734 4.775531923983617 2.328924350303073 -0.4708155257986666 0.8451792018254862 -0.7424721151725471
Ni 5.591210608859226 7.205223815089088 2.6523985888583304 -0.7255593985776085 -0.04594458505091442 0.07274782128668762
Ni 3.596613174296555 5.000018680624196 6.19297018130209 -0.2558512469105077 -1.8124536650225367 -1.4863485668917886
Ni 9.1493257016124 7.1819461219419996 2.0844554778805287 0.2913435262798466 1.59190726406091 -0.2709341093855592
Ni 3.4275681261839734 1.6256939694177146 10.345206707890437 -0.7727651097291337 1.3498715828772558 0.8847371666237666
Ni 7.210095457152284 0.4972586585258781 8.582071886069926 1.9122554051032226 -1.0337752751327616 1.8860756613840612
Ni 9.063331438653652 5.764633614466459 0.1901160643863019 -2.2477391162353935 -1.1648418867650003 0.6140365134052521
Ni 5.693543036595883 8.759668854982165 6.645563427099037 -1.68878128897184 -0.2554995199980438 0.05435132105737091
Ni 3.669836842095376 7.0936324729914055 6.990646146071507 0.6952139535165317 1.1750512231978345 0.4097032318683783
Ni 8.890066784700482 8.959322346344578 11.242240883741102 0.41779115108283527 -0.024598001054338285 -1.2943023302523837
Ni 2.8913801107274737 1.8523976492151588 1.2276780184136504 0.8338162114041833 -0.9577359275789957 -0.2022506879762323
P 6.8369351269540175 8.84199308548795 11.968888679821248 -0.4686015488664833 -0.07300056072744203 1.13717707385988
P 4.409571936643573 3.015919029245504 5.935262179119659 0.2894231693286822 -1.3660080834278023 0.44030732990748045
P 2.3765229945534196 4.8356310341016675 7.884898921692591 -1.2182791806485342 0.48996175970981426 1.4409688532054088
P 7.8265118723990454 8.832054190494775 6.726790373790206 1.2245475301557491 -0.7334064054258531 -0.49011242635506563
P 7.588267151461448 4.218991063578584 0.1657056911725135 0.12314915655737502 -0.9929713537425221 -0.5657661084346386
P 1.2710421531383207 3.141249706033844 11.143987408317015 1.098234888268728 0.20277339324892174 0.26999231429758014
P 2.2136443461460686 1.767008848463118 3.9045764025962986 0.2684295977961506 1.2557962037573858 -0.08779443120716493
P 2.2691698879026863 8.713905226958298 7.4802806381944675 -1.903865895487947 -0.12136866761818452 0.009081907696610166
