# total energy = -381165.46497194265 ev
CRYSTAL
PRIMVEC
9.28590944114564 0.00000000000000 0.00000000000000

0.00000000000000 9.28590944114564 0.00000000000000

0.00000000000000 0.00000000000000 13.59086710122739

PRIMCOORD
 96 1
Ni 4.02924902384172 7.92067657776604 10.125998385908279 1.064404055762212 -0.9879196502512276 -0.7210823366428614
Ni 5.721791762141437 0.13657344367047192 8.537375190257302 -0.51270702382613 -0.4854546158680801 -0.2731496289796393
Ni 8.09237304581433 6.873095974932089 10.597655733787303 0.7019155339064234 -1.9722089028387195 1.600117053565212
Ni 0.3600769298306174 5.110203185689492 8.947479957925138 -1.1307405742059171 0.6318218624131312 -0.4527800084531944
Ni 8.126080897572864 2.8940094346164296 4.866644920619455 -0.2260573034775268 0.9553869677308449 -0.3102755872976592
Ni 6.4414404683217725 7.241133715041657 2.490186584776321 0.8449231199506223 -0.727200019504825 1.244014123520793
Ni 1.172262510702225 7.364060586000189 3.8720107170022557 0.1095415930762694 0.23819882393606717 0.02692150698119234
Ni 8.10366471185796 0.649086936499138 0.5153299092028709 -1.6809242548212666 -0.20297471062645045 -1.2933404805597466
Ni 6.499598119992212 4.594621628337129 5.469413740156729 -0.8700672233164176 0.22361089881956328 -0.21574229470476394
Ni 4.822525707045035 2.0010113684833915 1.9408572462542502 -1.135616928461612 1.3418993633050567 -0.05157041587812409
Ni 4.8410046670999884 0.38186631664918486 6.473262351845552 -1.9679971787502173 -0.1672680012534603 -0.30719412015885805
Ni 4.0840080326075805 6.514065567110614 0.8278592676438473 0.404508060820684 -1.6010555062190812 -0.3720206297159399
Ni 5.046139695529127 1.040384022913052 10.894412046223584 0.4955454244451788 -0.4027738517383967 0.3086074555666169
Ni 5.840985697450677 2.4686869183365046 9.227139053651277 0.46281759519485455 1.52111810916249 0.307642006329554
Ni 5.63522851307999 1.8679814279068745 4.944792349832759 -0.4718511661520326 0.6049615476871775 -0.12171705209653877
Ni 3.8879174801048366 4.006312827190596 5.629446177187417 0.60611828699944 -0.19092163611665827 1.1710606139812025
Ni 8.415652701770693 4.064321904307831 6.736544817444598 1.3654067023983774 0.9281695267757886 1.7789750736491168
Ni 6.878871810687958 7.573652851025497 0.2871314671614265 0.1541862283688377 -0.029692127747794027 -1.2031585229570116
Ni 6.979586785942245 2.219230243504203 7.069819826467871 0.03296617051337548 -1.059904882340278 -0.12007437428679321
Ni 9.334567741528543 7.006051628232003 13.296801284555892 0.004718231411275745 -1.0306472710267411 -0.45457283868755904
Ni 8.770049440714066 4.541153361002243 12.87760468282283 0.3108204040575357 0.2537812517553565 -0.8923885125214372
Ni 5.583431709468667 0.34485453826374013 0.6412552003632848 0.6124635124911776 -0.21588859047464107 -2.5745175862840823
Ni 3.0791518997298315 8.607053869937884 4.848202175611846 -0.22605653214657842 -0.3896568547404644 0.8045845682325756
Ni 5.815384444751427 4.5029325571900864 1.5751270546741576 0.13986235554699786 0.0007880431189341268 -0.36736667588369637
P 3.6777494886858566 4.308773473879016 1.861948372455767 0.11057903320184827 -0.39240793512304034 -1.3198531821382946
Ni 2.094891914290217 0.5360049868723958 3.0273523103456363 0.6177227040075878 -0.4910215684328963 -0.9014128275072346
P 5.855536717755256 6.816349781517102 10.957840380168994 -0.7061439701654741 -1.2992702157806204 0.35807805149291877
Ni 3.00283100893 1.753606879667243 5.483779042269801 -0.17818027729058988 -0.7175907785498351 0.9436233994370136
P 1.429055054099056 4.653791444151283 7.178288536217578 0.5744302118675397 -0.2729128303784848 -0.6889134652198007
P 3.214633320434242 0.10471905946317862 1.0021567189641936 -1.1952107288648448 2.152947427774789 -2.184570968217341
P 9.649452935228787 3.6551475847794457 3.026033711185936 -0.7670040388756404 0.037626552103522296 3.0545122074788558
Ni 5.966131900797718 3.3794024999393177 11.559603535699258 1.1697125845937404 -1.1119877190784462 -0.01930178565240547
Ni 7.048868957283959 2.5748898661498245 2.995005772930849 -0.6035443556246767 0.8943924303253434 -1.6939744031370052
Ni 0.07710369297703429 8.805205894366356 11.85737944100691 0.16824373490316832 0.6803792024965444 -0.6929310710196259
Ni 2.340104928446582 2.5789942381821307 1.140881707883275 4.232411955869079 -0.3541941430574803 2.226747858695707
Ni 3.9994412541048345 1.4114396836346101 12.846468099425712 -1.692532785594472 -0.7008986626061348 0.8213229640331791
Ni 0.11018846020306196 8.743631027972185 5.343915600836781 0.6503569451028413 0.7765852548061722 0.8507356128673413
Ni 4.819424213246867 8.113554205555712 12.557838815049779 0.27125215484661025 -0.28893723083119915 -0.7062164752746225
Ni 0.30456204802532294 2.0474873459080367 6.474947744433479 0.3692260976899383 -0.9753233016434559 1.8115818039405447
Ni 6.4180956916493335 0.45595208901422923 2.627305111338866 1.0706857750058656 -1.4525341894455046 1.0940380765785611
Ni 5.7846109404187045 5.389746207545939 12.660001463606864 1.6011002434140877 1.300824704751934 0.7450223923982265
Ni 1.318784877891731 7.6683691286941045 9.83620000551681 1.0075353675996261 -1.3874243443200491 1.692002624122615
Ni 2.515933626255904 5.9848244367729055 8.887489267704522 1.4515623124505388 -1.0821063581379815 -0.32216848208050325
Ni 9.693839582998978 3.3603385275811166 1.0760233438632596 -2.949106490947831 -0.917995157345948 -1.6559477873815867
Ni 8.838644454747204 8.22905234885396 1.59980807373449 -0.04490328827059364 1.5391626253690265 1.312188209393869
Ni 1.3871291723663344 4.198503297671691 10.813233696124882 -0.08969550488461972 1.0163434528095592 -0.69435469084003
Ni 5.603247840502472 8.406961090408162 4.5132278451362815 -0.740018511425732 -0.7187084370940461 -0.6173997734505303
Ni 8.193877323382521 4.057116038477356 10.536605521284141 -0.6590871258869875 -0.03480965148001747 -0.4733763445473073
Ni 0.8564617263178518 7.034865805644325 6.9824979185941185 0.5231840120980538 0.5841806063860843 0.7565324499203552
Ni -0.12699038498870693 6.236779021280977 2.1947618717731463 0.11570298469197492 -2.8031053694929464 0.6033980598547994
Ni 1.845128804441929 7.546723713256971 1.5251131457013025 -0.16257110999842325 2.217858012405245 0.5138784184264118
Ni 6.14261989818689 7.048794670007356 8.572724790828758 -0.7647116432970379 -1.2424730042859182 0.2588177857379994
Ni 0.42672654580771857 0.23324440530469154 9.083157311321587 1.697206794031374 2.0563765359265744 0.007446943196348466
Ni 5.1208076944245455 3.6757065885792786 3.6818742897192287 2.6205331337822484 0.7120670205181285 -0.32660337792340527
Ni 3.16469369873799 7.956408757812 7.672316568854588 0.17428685577345465 0.5278883595522585 -0.7207095266844749
Ni 1.4124982773262005 1.844580935776983 10.817759648451911 0.6252943457072586 -0.6988137550526481 -0.9284688031837623
P 7.888463757449138 7.40503001904665 4.44986729833077 -1.2398211684853682 0.7994274495116683 -0.9598028374103534
Ni 7.4865881628469815 0.6146120686096799 4.736335751548516 0.8478240956475012 -0.27726210848611604 -0.2634912799542688
P 2.660180945599448 0.06721234209736754 10.539309578152483 -1.3608915881368433 1.1593232709396162 0.8538610458702005
Ni 7.444847999305766 5.006108139349777 3.370277236599618 0.1912615359545803 -0.04723810705135735 -0.36060673145204347
P 1.6552412395355214 0.29739796878793756 6.822166475275104 0.6614862222467833 -0.7681602639672706 -0.2948741651409244
P 4.793730101451862 6.419702154005869 6.3846636314051874 -0.388920233684756 0.6980491089724816 -0.7486206512724463
P 6.901594431418849 1.528237854273409 12.284839573671084 -0.9071857254352699 -1.2744148472998376 0.025850642514516773
Ni -0.09235394227263767 1.857367633262245 12.513070516396041 -0.04344393011624775 2.0324706758432542 0.11103283290981525
Ni 0.7942247745709586 1.809062331651255 4.414734988043377 1.2513620792454319 -0.048770484535483744 -1.7144311283294604
Ni 1.6150796806221166 5.34066088953062 0.826315020881466 0.6257157495153933 -0.7123889226339215 -1.9158361804759458
Ni 9.126897659785334 2.451740133361484 8.734524336451637 0.27919866338719657 1.7502638217573536 -0.3126137485125326
Ni 2.59918180559895 5.854840274537104 2.797475904443925 -0.30289832099698155 -0.28451184806999386 1.8869531788930085
Ni 2.070339969372982 3.477210985496518 12.769584482505612 -1.015530727100277 0.017746011129511373 -0.7775296209973126
Ni 2.485308696476388 7.6447179170056785 12.932199330989206 -0.03503076635188805 1.0698352540801124 -0.9116419614344106
Ni 5.400239285366089 4.719387109391581 7.550881943564814 0.21431533245025028 -0.994654654982216 0.8566782036040214
Ni 7.191667674733748 2.8041775453844577 0.31112254314031035 -0.4114294705308656 1.3586979229196343 0.9969110551165606
Ni 3.6844446294896867 5.823973911108628 11.745838952369677 -0.7959646877740485 -0.16185042978231481 -0.511409388060629
Ni 1.2789390399038882 0.7906729141583859 0.49636158171329586 -1.2521915171252629 -1.9054198702386282 -0.3142050042590524
Ni 4.283014360716985 3.644180925570953 13.100753447237196 0.0248265721253766 0.9166206455959247 2.045900318985599
Ni 7.719710922736235 6.464813102722938 6.7968605145003504 -1.3500294486113589 -1.2157669557496416 1.3850100784516017
Ni 4.316842929299999 8.315420593814325 2.149680637966719 1.3082572497705791 -1.2093849634826976 3.55425187251104
Ni 6.760745754979884 8.41250477842465 6.4870027122442036 0.8001213902548995 1.03083727555036 0.9063061510437941
Ni 4.632359564851367 5.851358058446348 3.805809610457644 0.7700963046477188 1.5783233547288882 1.1641507742352468
Ni 8.638867396143045 7.61861522518936 8.58820533068183 -1.282811813114281 -0.33609563368455664 -0.6778451232207809
Ni 3.7082072720930164 3.1693552253448174 10.794627519108747 -0.6180548905360259 -0.6190118551326564 0.5774702842454441
Ni 3.131691576107183 3.059382198243904 3.557980755573902 -2.867572695938397 -1.220176654781563 -0.8568844060775566
Ni 2.6107891925681423 3.4295464116462275 8.758947207225773 -0.5718971610330409 0.0968529418650074 -1.0516863510852275
Ni 1.5210784179908112 4.207222766762948 4.830642520604851 -0.8266232932001698 -0.4857536351657376 0.12644376814824676
Ni 8.832794331714732 1.1936479604542647 2.577099912628759 0.7983468148529799 0.04744328108362797 0.2075510171432232
Ni 7.9928559528952645 1.5897848629388531 10.485082652005289 -0.36701649163312916 -0.9646023156815257 -0.24315359683818125
Ni 6.679726193934924 8.668285157677765 10.438180451331137 0.7583659035846682 1.1977910879975115 1.18245651452297
Ni 5.0442546558853305 4.852287047234043 9.930656277717308 0.4968260909298153 1.2298211198498628 -0.2758528868434153
P 4.693934431245537 2.3670062084863814 7.428346937990362 -0.4686604271288767 1.391278685069133 -1.8826229269487706
Ni 9.027714859610981 5.852091645302799 5.271449291101679 1.717163696769275 -1.2162387531797376 -2.714621368417925
P 1.4661151192142927 6.14865573941087 11.759008229329446 -0.9419274997918293 -0.13302759201335154 -0.10379286351795028
Ni 2.567665428500199 5.997156124688975 5.852988664167779 1.427011105473736 1.0661701465236992 -0.4989441657140826
P 7.538282821452976 5.532712071368085 0.7490107522576039 0.10886385028295445 0.31936855073786286 0.06534175863060361
P 7.505791423848812 4.958731428696322 8.488203513282931 -1.114024804113133 0.2849643622263802 1.0948639149139658
P 7.730668296035153 0.3161322913562136 8.472410966868127 0.6228610536754177 1.0088281182691206 -0.4615233018634632
Ni 3.7464280759051722 1.1343481419060562 8.896215236932482 -2.328474326602932 0.030329247111160668 0.1962610460517007
