# total energy = -340878.0119142367 ev
CRYSTAL
PRIMVEC
9.14521357640028 0.00000000000000 0.00000000000000
0.00000000000000 9.14521357640028 0.00000000000000
0.00000000000000 0.00000000000000 13.38494448141670
PRIMCOORD
 96 1
Ni 8.693174767315623 6.5330661870888775 12.640955850457164 -0.6919118857264922 0.4286178093846941 -0.5014399355527428
Ni 3.572065532258904 3.530491391566397 8.268041226098607 -0.7472088585265841 -1.7939129259058717 0.2607520266462348
Ni 0.11044217115553402 0.054694778539303796 6.158934587189072 -0.5764374721055557 0.7610604196976958 1.5753961537797643
Ni 1.1699837473284551 5.067893237544688 4.768092104147423 -3.0924634899116485 1.3449240090639933 1.7235207493355542
Ni 2.468247404796328 8.690358041549391 11.254516787728633 -0.704923724605128 0.4779374815554285 -0.9508672254836205
Ni 6.112532688275805 8.789803093439035 8.384449734558977 -0.6897562728360701 1.6120451724613658 0.0985915218226689
Ni 4.436791197278696 4.570439347758303 4.753997501060029 -0.5298873922601584 -0.008628879319591592 1.6831608574612689
Ni 6.973847188650128 7.552455703272699 10.819117744327865 -0.796021509153913 0.062120166369512377 0.5800524431503237
Ni 5.587954095169144 8.128329799050778 2.7605375743240903 -0.7709488824560012 -1.865622278625716 0.9550882055435035
Ni 0.9770105967009618 0.08694903212672175 8.688622280022017 -0.7383686345271349 0.014810325539955139 0.7924793003286094
Ni 2.7838853044578276 5.166615817565719 6.470629985299199 -0.8932531745145778 -0.5490783633663124 1.0405017952233178
Ni 5.02877915929087 3.8513237725110785 11.813900234475318 -0.8346942431337624 0.5657424542855547 1.475278682230872
Ni 3.340444709267457 7.029184875700361 5.0210670007237805 0.09015316124732861 -0.15738108115705152 -0.40518297540052156
Ni 5.4304003565306695 8.25338144881526 13.041914934237628 -0.3146904285359032 -1.3127366256981714 0.6047386330430939
Ni 7.478260585930352 0.19575603910367673 2.096884975552415 -1.2834461042641703 1.3472012351339444 -1.5894726864774884
Ni 1.3586403571713328 2.5759231488600265 3.5083142487640813 0.41429959298980906 -0.6526701666170501 -0.13378735299751152
Ni 4.892817269789002 9.077703560473967 5.917885049051568 0.5152755558842546 -0.5710353272533778 -0.3330077387878523
Ni 3.1030624017541713 4.339888514749483 12.983435866340963 -1.98278307881014 -0.8358131872295541 0.20486087190556979
Ni 0.8081716645705045 8.665336737340262 12.946118822545149 1.1129251432910512 0.26744409395442975 0.380880394099415
Ni 1.8512289933614978 2.1920345206485536 12.9681368386321 -0.7300788837145168 -0.8110791748179838 -1.1100552779424238
Ni 1.95003388030427 1.6680778020617106 6.9495300658825565 -0.2203826216902527 1.310544503142859 -0.98985209138725
Ni 7.152014238577848 2.789701660260827 1.8290930040200521 0.3825462118376121 -0.3341120275956246 -0.3680184505350823
Ni 7.643112204963156 -0.02439028447578431 12.88635485214798 0.5505613756697422 -0.12563901285876425 -0.17187978899385883
Ni 2.772023962513661 8.715982929851284 6.772902155391384 -0.2968757689519855 -1.4409842798243764 0.12291415772843349
P 8.164508263762515 1.6833045825837134 3.4379765824873085 -0.001280666484636504 1.9257971483433993 1.5734891665650386
P 7.208522512959501 7.318118751863813 0.9595048289680986 -0.0688824247940104 0.861520105077355 -0.054297070780667776
P 4.343528309733121 6.917210881279099 7.0150225980328695 0.17174403474694294 0.5532972865436664 -0.8279808356693289
P 1.438834734587213 5.591676197074523 11.93212955494886 0.13629494991071367 -0.626708966666598 0.17474811168058935
P 4.370881643391565 6.139236711773851 3.235930465519948 0.8716276258250021 0.7693936221537395 1.3766251968220162
P 7.180410126578339 4.630788611821183 5.0672457564269955 -0.6380845554933914 2.1218324515375393 0.6588886367229362
P 5.501440375206295 2.0624011189071805 8.071161240252493 -0.11325683714432754 -0.050620907480661205 -0.45206498466404077
P 3.0187526782512633 1.8829171582316113 10.870287957573968 -1.6383791823702043 0.06491058463045596 0.276620104026743
Ni 7.192664712704155 3.4742026023093846 6.841794877930934 -0.8440605148400108 -0.46717895748734384 2.259263057714593
Ni 6.977679033117826 4.856117527906241 11.25759506660173 1.1041322275897694 1.8773159129135604 0.15622871272016317
Ni 0.9252303977126263 7.157080686871655 7.309384158424435 1.0892164868202014 -1.2337541363556817 0.03778596049952202
Ni 1.549967369364015 6.255481520912094 0.7091198568625104 -0.1963762314733263 0.11861964411813765 -0.6433375763622147
Ni 5.952354273355159 1.6688642904250093 0.045075842951890994 1.1599853300036471 -0.22455063702501324 -0.26460713872626684
Ni 2.5756579376677515 7.510341994982115 2.635910262467248 -0.26685993931618557 0.1721577252455938 0.21820155487853388
Ni 3.390990304429684 5.94254145924098 8.751960199865433 0.283186444390351 0.36244404177109835 -0.5435934289923412
Ni 8.698414974666438 6.775816734942353 5.4580326192016795 -1.1769625812879343 -0.3213840385059949 -1.3957439199293382
Ni 5.924241886973996 4.51213861152541 3.0716037817435784 0.9802001701197829 0.8611794339084845 -0.9307596561004678
Ni 5.054541225795664 4.820890165401283 7.164572445792751 1.2934559230916887 -0.12681400700347192 -1.2940593610036422
Ni 0.4261614632174216 1.3141580385773264 11.253700120160698 -0.5581517864224903 -0.3469402897085444 -0.9730260209688468
Ni 2.926468328553048 0.30627503005283524 4.337886627508483 0.08367449550152041 0.6553716247086132 -0.4557622310099699
Ni 3.8234948877492445 5.82623263360805 1.3048408950362957 0.39131521627949384 0.21130971285470704 -0.6710864643407087
Ni 4.522317234180659 0.6466406725692555 1.7252655658084006 -1.1331949492836806 1.268749164373628 -0.40147338775941827
Ni 8.465614419130043 4.106017969230461 3.4855737608085184 0.1825976896319952 0.043684842482460254 -0.23978185215247091
Ni 3.41755714972483 0.887166189971678 8.754690960624513 0.5416882415498284 1.326516195980767 0.25739879390328574
Ni 6.222138072393643 2.688107483192402 4.748696935299938 0.22118634853847072 -0.6494467745837461 -1.5001458777861971
Ni 5.54983684518974 4.320345193442865 9.554253321180957 -0.5130633787242842 0.18177622217196437 -1.4400196019182618
Ni 0.5888328633454535 3.5236233362078244 1.3775252231040267 0.9933984139776117 -0.5113281412007322 0.913801945200207
Ni 0.19844198831647683 4.516766089569935 6.788602657974073 1.0156888499446959 0.5105483256119143 1.4385569013298065
Ni 5.080422180076305 2.2510302931094777 10.320059784088892 0.0888796938515437 -2.981795753650736 -1.03443219199047
Ni 6.875700757081279 1.097123831161011 6.362011369720895 0.5736478251755605 0.054787380153524995 1.313963299016421
Ni 4.211956122724081 2.4035633095217785 6.06075614737288 0.3423894371130684 -0.4248650272104812 0.3852728667401559
Ni 7.446197467305643 5.929372351762491 7.206467583480046 -0.37044068682332976 -0.9980482540447974 -0.6257525162905997
P 8.997884136812683 8.287419933561743 10.692509579221133 1.6114715593460829 1.118865677145202 0.9128488372583182
P 7.284071121903804 8.06529184221104 6.820204857837035 0.6448118469148959 0.3727338537328806 -1.8323295780108573
P 2.8387840212587774 2.70359947490668 1.3219762816213265 0.5017255851139617 0.47122227431878205 1.3281719864166353
P 8.848606816415897 1.5049546283854585 0.5458448726417146 0.8661735446889665 0.18194257254649956 -0.4039113077769495
P 7.62498639175318 5.00331888483246 9.125814699795379 -0.621980193732361 0.42065690266640454 -0.9145992442905216
P 1.4117923381886777 4.615598412153287 8.65944356174364 0.50628492234987 1.0563395335865229 -0.992159142253872
P 9.051987220036807 2.157090659762925 7.553351934198318 -0.8878124631149806 -0.5603876177315446 -0.008154510786334342
P 6.068535065998716 0.39131911420193954 11.353631697409963 -0.3029186327119557 1.2918716093237042 -0.020298602348036012
Ni 2.8130036643269305 4.479023793345127 10.374107996031857 -0.17175483338022032 -1.21161693813701 2.278558158498779
Ni 7.3125401716125085 2.3820903481610207 11.504064972796526 0.14401365871121005 -0.1651797512658639 0.08287539663899275
Ni 2.5440063536517448 4.76591828689212 3.3495551709827835 2.474109580077965 -0.17287660568948937 -4.545698819189235
Ni 7.882597911587589 5.205199473434986 1.4523202664537265 0.24819527302714675 -0.30613533987704056 -1.4327631774661647
Ni 3.4456603908924657 6.554740343147224 12.309986000318105 0.5304427505429962 0.7339180549549489 -0.6091984685866605
Ni 1.3483062658861298 2.56056833534865 9.187158048568614 0.03182768603355808 -0.6367547809383743 1.258534428624155
Ni 0.10872561457656711 8.091657492808597 1.8161223476750932 1.469252273531134 -2.131767965483696 -0.6269581065629267
Ni 1.2486234384447914 6.597018665281289 9.828698435554013 0.06335995231388443 0.6760782611283453 0.627618622965061
Ni 8.956502045604237 2.6488653719492112 5.3885509449110085 0.11575389253456839 -1.4070894268491445 -0.39790932455724376
Ni 5.736234587291516 6.483791776606866 8.725444567766036 0.5831506224596731 0.9680347384018425 0.6829127675516755
Ni 0.39109962907729806 0.14770891627695173 3.8080705706150644 1.197426762679557 0.518979487098403 -0.9849726518077616
Ni 8.261767609619271 7.540301714495677 8.742964967840543 -0.35289753573324384 -0.07265166202845552 0.5855612887836948
Ni -0.0063540943583708055 4.546570340453543 10.514435810471385 1.5272563608497438 -0.5682878464152277 -1.3225641533115546
Ni 4.898834820289589 3.528662348861052 0.8996539790424254 -0.14857710971217636 0.42483623085507477 1.3892899367738782
Ni 3.9843226128302875 2.728099501944785 3.2123998311156763 0.16016558588072416 -0.7383287824281349 0.19640579915968112
Ni 7.528101999651021 6.810815467109142 3.0903295209609074 0.6244762206813373 -0.724292616050043 0.7192424552206451
Ni 4.488617122334665 8.311435264282931 10.031265829692398 2.0971349487908593 -0.5011059492520918 2.009419450450746
Ni 5.89449250737155 5.890294854362781 0.11643137149418836 -0.5855389201861916 -0.3535061158515202 -0.9888213361298905
Ni 5.8170965652948485 6.665772380575232 5.3123237611230225 0.9119355814154294 -0.3496432904620043 -0.4737167586058616
Ni 7.529867025861679 1.6129321644955392 9.117328856163928 0.26899806870511095 0.2857876294586239 -0.4633876087657116
Ni 3.98459696923609 0.8559590633330703 12.704802244172663 -1.7766425688611984 0.5818555577973334 -1.0749340087592585
Ni 1.9087158055905118 0.7022545450679956 1.8665838068728746 -0.10914358630690234 0.13949211669177267 -0.7199957884469019
Ni 9.013001174772365 4.034904788846622 12.699862914346877 -0.3117940808247146 -0.5090306034158072 0.13299648166509997
Ni 7.351370748246998 8.659794737943065 4.473823824933829 -1.3027077807072596 0.9322609232363429 1.1632411179367836
P 1.3337562311651052 7.842267519934718 4.985583572240075 1.6825995856411602 -0.5930403707695593 0.7156845626660577
P 3.146986862323047 8.148046879414403 0.5036241653528681 -0.18847111769363672 0.43359315111209845 0.06249246210726656
P 5.1184296874933874 0.8740629280305816 3.917518657060243 -0.32814218316543486 -0.22644888248899064 0.3318060051702673
P 5.153154063254376 6.283374422168616 10.88121008608894 -0.5376158712526676 -1.2038028414092299 0.8747067789709579
P 6.817006776666738 3.970110951009752 13.200700533138152 0.3714506161450829 -1.5815279777091151 0.8235325700899883
P 0.5873513387541235 5.900272282320442 2.6146147182489083 -0.2710441526008622 -0.3699287801839177 0.21210418373154438
P 2.3051242311200757 3.2420239212928075 5.360121219620468 0.30208790928054424 -0.0713681673303416 -0.1482922314819059
P 2.7977860290184546 7.939526865791473 8.936324046478864 -2.2140077854212192 1.1347746350659746 -0.6649109316576162
