# total energy = -381170.62938415934 ev
CRYSTAL
PRIMVEC
9.21795226570181 0.00000000000000 0.00000000000000
0.00000000000000 9.21795226570181 0.00000000000000
0.00000000000000 0.00000000000000 13.49140490574322
PRIMCOORD
 96 1
Ni 4.092678556910305 0.9994933292354049 8.319636865783997 -0.608045843039456 -0.0418498461562505 -1.6607274681584172
Ni 2.637495765162544 3.014795762939286 12.21216326316422 0.6190725331672629 1.1587072346221723 -1.8135666955810574
Ni 4.531406987541954 7.9367858172471655 11.279920425335817 -1.201819492430614 0.01797123976644002 0.3614940191530032
Ni 5.194150090328459 8.726856492516388 5.721259323986753 0.4707754165893505 -0.3905886225261144 1.4514257868726745
Ni 3.3447339227795765 8.03431175056123 3.7890336836659535 -0.13716732521333797 0.06033273545178641 -0.3942110497700501
Ni 2.064517080014258 2.8547813322777706 9.860017501695136 -1.1144024991675259 -0.14305540856299878 -0.9662393370643166
Ni 0.8833849262646477 6.091748176950096 7.174917466455672 1.150619572518031 1.4685135955928967 -0.3017796340115061
Ni 1.071172124835609 4.5665826927902025 5.067465930902954 0.42124722795223585 0.5099708558418894 0.7179661596113829
Ni 4.252398013104329 6.839572977703407 7.856233820946762 0.11865049735607308 -0.045875936596508085 -2.325016192851002
Ni 6.532098967152944 0.25292124817371847 3.386949378053529 0.3094867728477767 0.524635914053232 1.8381430993688408
Ni 3.25665639037732 7.475805250224198 0.9484055950564634 0.24251313504070493 -0.16771228787973053 -0.08587561691789726
Ni 2.3899015715126626 8.041326612116238 8.87939516401744 0.19738616079507942 -0.2003313594663324 0.3861136174738963
Ni 0.7030227881175504 6.968707268799505 4.36865205971841 -0.9113601685279337 -0.26716127260668826 0.48447451134299785
Ni 3.309180281494856 0.8654818196783931 10.464378704798786 -0.42982699920144685 -1.6020993741025633 1.0113213170046194
Ni 3.566978748129489 4.776337193032311 6.208097168470901 -1.6092696665987574 2.8137844464733477 -0.11031138136275839
Ni 1.7863838110269952 6.092033933465478 2.5405662333499377 1.164928790051852 0.3131223127178349 -0.720723667751862
Ni 0.42613117727938093 4.199099814009631 12.221850409035651 -0.7534507256712378 -0.6474189455204399 -0.11007818230602977
Ni 9.12671281910405 1.5060382335335536 5.6953292247039125 -0.7115931662055035 -0.014616207251278053 -0.1449323138707375
Ni 5.108773417894163 6.580447125965066 5.004825337345703 -1.658579825687795 1.1075127140262282 1.0062665281895313
Ni 1.6154829789246572 2.4134165673429253 0.5233252643175175 0.8696514759352378 -0.5889317479178244 1.6057547114669637
Ni 4.49819470609294 2.796081413247151 10.188183049344852 0.8479760478443331 1.1491406739796595 0.37343756466812456
Ni 4.461682397788875 0.8861834965249643 4.1931422515615315 -0.9597087350346505 2.0767679550987332 0.3130438940714157
Ni 2.5347709068589594 7.328530029377431 6.104442218799511 0.6009835368760359 0.06461285088437904 -0.07639698800350068
Ni 8.15951919405886 0.10757165752253851 12.044586424592415 -0.37497611279983806 1.4939572324769819 -0.08910517959878847
P 2.175657928593432 7.801687511136494 11.380229258391612 1.2475437339406064 -0.9819865725962442 -1.0375134020189551
Ni 8.202345799557644 5.109603033583979 7.585015859631731 -2.3033163392800655 -0.05822443085953198 0.08928669948197526
P 3.204114063355565 5.930830386981891 4.171515092323209 -0.11986945736483873 -0.5405127331844884 0.5469371486535936
Ni 8.264732899431895 3.964530586689879 3.8969252041266773 0.6850917774808652 -1.213948414483664 -3.3441536634659306
P 3.2176828888601308 0.21275586544882538 6.341297498242313 -0.3447096006058128 -0.438730986559296 -0.13128566962158036
P 4.696205535348081 3.9468505545446635 12.344257438682543 0.01603288509314658 0.7533365686908767 -1.025458270626634
P 3.8462366072740584 3.0485334676585176 7.974108383541618 0.9828880013645911 1.1315522714739352 0.73269266718828
Ni 9.026983795235916 4.416744881257111 1.137839119874106 -1.3142402068268912 0.6872723300719519 -1.233561303618585
Ni 6.245909208022345 3.1619142786001984 8.307750316539337 -1.0888339066698023 0.7597159898546594 -0.8112758642098222
Ni 7.393074130045208 7.518382971016037 4.697450880678018 -0.021451485005556603 0.4740384036113385 -0.14763094374882318
Ni 4.220513116759022 5.033766941582581 2.214357656932981 0.4304404644157297 1.115684708314059 0.3692893468277059
Ni 4.814647001997646 -0.14918978949982253 1.9966204101644092 -3.597817930027449 3.1940588315576472 0.9271901935816548
Ni 3.3066914344254044 6.05986328060479 12.48477036986209 0.12049294988145055 0.8684934510713945 -0.547747817480347
Ni 7.437882595247444 7.216190847024077 13.156912096619012 0.879071483697557 -0.883024554808034 0.22651495984023567
Ni 6.166441242889969 6.0215442536873445 8.854624683109922 1.0045341188794572 -0.20177709077392347 1.2467598045867303
Ni 3.6564850631086525 2.9120801225878106 1.5751489076761682 -0.08215163109909078 -0.8607030084926984 -0.11301798166064407
Ni 9.485825797369577 1.7510514005928925 2.308675742913085 -1.6788267488622892 0.18465405794039166 -0.09735225009892912
Ni 6.9496168899816 7.8077529236242675 10.845659014296228 -0.19715219040740242 -0.7385686663530829 -1.2719735848481963
Ni 5.646779192740601 2.7240338995625843 3.0033894689995106 -0.046257231195326785 0.13242826786645578 0.41156753877062663
Ni 5.237529772953788 6.127311036186925 0.21888303821573069 0.7776180669460607 -0.36487759091325545 0.927848138880628
Ni 9.434020906516547 9.086411932483152 0.5309365273739846 -1.1839058453749869 -0.5224337641955906 0.03994285894152476
Ni 2.8236154361969725 2.4339818184982818 6.190342470913603 0.578077835922456 0.133768326834118 -2.2288271098222388
Ni 0.06937891654898852 8.359788421580726 6.464905627049018 -0.2227899455801647 -0.2610836989540407 1.0175259031534347
Ni 1.1583462979311758 3.855242546484629 2.5905118632625643 3.0037946265193303 -0.6752328824089145 2.277294461295007
Ni 5.471297038440049 7.2453472295450965 2.8127152078279853 0.9568478685470875 -2.9450863140448442 0.5713708562159256
Ni 5.120046973323567 3.2980542132991966 6.021807887117665 1.4659959713773656 -2.7725460086488507 -0.6188185081749278
Ni 5.455626519854614 8.70449374069976 13.528910850137821 -0.03690972854215579 -0.583750203716885 -4.071903641936955
Ni 7.845749322217894 3.4800718956450845 6.000477545937255 -1.3768185437797449 -0.6525056160147278 0.934508838730255
Ni 2.471084075737328 1.3397740313420827 3.0339608071692736 1.0716915905625608 0.6129296534943186 -0.21235615184135043
Ni 6.790210844159285 5.199118566515253 1.9552152128808449 0.3382985548731464 0.0814558905836468 -0.3917381627495254
Ni 5.992682845633817 5.308268337438865 6.633669737852472 0.8708408682576486 0.25840743767345825 0.6276314784808674
Ni 6.975676040593969 7.76426262557363 7.1903925644563955 -0.8518064773340168 -0.2714089921394487 -0.7396503294530358
P 7.927844403701359 5.669860944821735 10.721308840344742 -0.8391656486415546 -0.495639783931198 0.11913283630913031
Ni 7.205894394518235 1.3843704836458106 9.724617768550498 -0.06738501431287751 -1.899402974620587 -0.9536807836730156
P 3.0748599388820494 0.6897673729846936 0.7412726803941765 -0.5622149007482704 -0.6236961479822032 0.39272315237061395
Ni 4.389883768811253 1.7283936743087747 12.841092152228988 1.2564232958184234 -1.4348573409910321 -0.5580304303532776
P 6.914118556409535 8.144457060312623 1.525715795900806 1.5702958564387213 -1.0329998304193178 0.7819125805563567
P 0.3238662947860396 1.8956995050885717 11.090379972273709 -0.7306694661106642 1.2872073710788154 -0.49809287345738085
P 6.545077843722528 1.8665062507591161 4.968587724014489 0.17463292625896376 0.0475497247545052 -0.28283446036757093
Ni 8.905804596809954 2.1291533602031247 13.184002736072385 -2.656041096880871 0.06857157842181094 -0.3834831218295847
Ni 3.004149028253299 4.932221981148958 8.386715903281768 -2.036014427330455 -1.1599277372928347 -0.4005462479594586
Ni 2.2919884842100178 4.752444261165577 0.6314140489533754 0.6443673031783096 -0.9993947407703626 -0.06303470776398176
Ni 3.320131208600442 3.7704097332247684 4.089177578699276 0.23948231863418112 -1.3344930435386566 -0.8075421081990027
Ni 6.691726243825877 2.6207836179887822 11.564548663379137 -1.6778253041809685 -0.6398426758350786 2.6909361089858432
Ni 7.793031854106068 3.556709949479974 9.938402357454697 1.7635757083749113 2.4063075328323267 0.2818978074859145
Ni 6.9278072152915176 1.0172655409017106 1.0925098403777065 1.2014387120524277 1.3790505184340573 -0.3868713215755273
Ni 1.556847585558801 0.4591839881569081 12.153542618521737 0.601251702935758 0.431568921593218 1.3040707224930574
Ni 5.336604322222176 8.470873962447245 8.942426598744117 1.2525869527914686 0.06594288254971224 0.9931505596328638
Ni 1.4265702684011776 -0.0990478172072725 4.766729321549017 0.5951473898102331 1.6092904925343638 -0.17415881483602264
Ni 8.663999277084574 2.516676066868836 8.030974851897742 -0.9397042668882655 -1.1675240615828537 0.20041029233338387
Ni 1.1227281309816917 3.8665990634830156 7.523657483212853 1.0870986691462503 -0.9389979848498602 -1.259841834581669
Ni 0.3862616908171893 5.058959604696695 9.340247601506091 0.38113133376795655 0.6639097440866114 1.2458761164301961
Ni 1.5266956642100014 1.4167900212134439 7.574776558428965 -0.8534630391008332 -2.0734594595507905 1.9218967848477289
Ni 1.643182925012442 8.637700459717369 2.15467141702669 0.3393393374328349 -0.8330261114027202 0.6127103383946608
Ni 3.802331501378512 6.0170182392017875 9.923454526314613 1.452688198524866 2.24815974871258 2.4271710065448975
Ni 8.474155553398077 7.422055371476154 8.896232675339885 0.7100016533486676 -1.114302740364868 0.11345224098458526
Ni 5.745899831769534 5.839074891688112 11.384681529260297 0.2256343570074953 -1.63257234588044 0.23039604006219677
Ni 5.81665683215883 3.2847158365973583 0.5660006954017129 -0.4463039138105475 -0.16828410122280052 0.5347447203524596
Ni 8.873237572008575 6.772042260552289 2.096645330295244 -1.341039843518239 0.5811834714309733 -0.6237812514968418
Ni 0.48202607348320764 -0.05380703005112014 9.977743655261039 0.044579329272271616 1.3297447302203937 -0.5819671436745332
Ni 0.7874914922691023 6.247061452035981 13.35145789767635 -0.0890738121402208 1.651840707191749 0.12287379140880128
Ni 6.530928287235091 1.0574465941451892 6.999880539241991 0.3280534801063705 0.17793036606331294 0.5399285785462443
Ni 7.430369964278545 4.537887207874637 12.993356128757188 -0.4164927439863859 1.1223780611738348 -1.3729829720837388
Ni 9.251874172841132 7.258298452258353 11.273363696000628 1.0149478580136133 -0.6342728950567851 0.4239039488487925
P 5.846421599519049 0.4073523652427637 11.088450654897278 -0.963960825442785 1.2650156654731246 0.842433263649233
Ni 2.052340165278163 4.995632273707318 10.958123560798265 0.013156334876299924 0.32718598989975267 -0.9784721316850827
P 8.12596584838181 5.6137512703337675 5.1318468738184 0.323299767471469 0.38504609544133045 1.455229733999797
Ni 8.690436363733415 9.03484670838496 3.031450758809971 0.2774408001558254 -1.4392251310414246 0.27094645068073336
P 7.51063989124441 3.017312263865065 1.9409541191728876 1.009923922436461 -0.012502503342384919 -0.24131937184291985
P 1.3003211963152215 2.5073659352386657 4.391195483396375 -0.39549814401258987 -0.07165921620819916 -0.33401946788181835
P 8.256621101575906 0.27508673581521154 8.168060548483133 0.9067211270940255 -0.5722817980659692 -0.9971326842090633
Ni 6.063402974214676 4.813070732186993 4.209466322951501 0.09614023206869894 -0.8403046473420044 -0.2805801171157555
