# total energy = -340874.4199145579 ev
CRYSTAL
PRIMVEC
9.19229297109537 0.00000000000000 0.00000000000000
0.00000000000000 9.19229297109537 0.00000000000000
0.00000000000000 0.00000000000000 13.45384993440711
PRIMCOORD
 96 1
Ni 7.513182664641166 2.9278555755965265 4.389560666987184 -0.8039155671900089 0.4537675691774443 -0.763260255562492
Ni 2.4775894956389592 9.165910954986199 5.286717416973151 1.2601627082561975 -0.603443311270438 1.5879297674704007
Ni 7.368716590439643 5.506845253503046 7.000912731050097 -0.5799205455581496 -0.7004484624425936 1.8296422609866814
Ni 5.232253081923265 0.48174692523104334 1.6365397434325688 0.8246062627701412 -0.15244687708022778 -0.24861719105591373
Ni 8.109872777174198 6.5464751886038135 5.040901718114664 1.3481517719726717 0.29277845895416027 -0.2272086434731506
Ni 3.859678300323443 2.453432150067465 2.048981376830934 0.30325339034355514 0.8650386597535746 -1.6630792562200454
Ni 8.7725175908014 3.996450425421715 11.521392790287239 -1.1344668740175687 0.4540650458132051 -0.16711450639473152
Ni 3.5165575856555766 0.7812474527069732 9.651832100393808 -1.4002515779917046 1.1322888925296435 0.2034611633445657
Ni 4.18230939426115 7.676594054376495 0.8398308541764129 -1.3252458139087755 -1.643333698162002 1.115578264643182
Ni 7.750114012474215 1.9712780062638124 8.381909491345732 0.3455835185703338 1.0136741335075123 -0.34625509071606175
Ni 3.204580359114126 2.7389263809500592 11.777648176118916 -0.47690158409174643 -1.20983310676371 -0.6245507826730147
Ni 1.8144391059058105 9.26638271567738 7.691646433894502 -1.627006164646572 1.164717445371994 0.4607519709150774
Ni 5.081931517185578 2.914352097421289 13.363937331537358 0.7316161462946497 -1.0315553846633074 -0.017156714284944644
Ni 1.6031542550835929 3.1194597274581013 0.17781387414987218 0.8079727679785181 -1.1213241659880238 0.7393333124332493
Ni 0.9325581081537512 8.388417634673214 3.968414851502956 -2.0535092416811085 -1.3747570332650259 -2.0981399930166056
Ni 0.5480638026629252 5.036926051463342 6.471368640762701 0.022675330110328688 0.0873869113561011 0.3432546133268411
Ni 6.251375011708202 7.832697571307663 5.737299711804257 -0.5547018802006769 0.31846043710129673 1.3237859415337976
Ni 8.590648077052538 9.08851184931193 9.451275574539814 1.1419595828501883 -1.2796534699909574 -0.8006127280690212
Ni 6.741802219063736 8.895455315182359 7.855178242665975 -0.31389775743127873 -1.7258283144228084 0.029170708026685244
Ni 7.414567747102738 8.637878077640947 3.8356119584510204 -0.2851962757315282 -0.09987115986604089 -0.7303779030121744
Ni 2.880037268266651 3.9494042706900157 8.030751035822572 0.016376898696126636 0.8330407666907396 0.7149122032764074
Ni 7.135443775155092 6.957389062932932 9.408209682605854 -0.7104783358747698 -0.447996471021622 -0.7985525031058828
Ni 8.564045581586821 2.391623173042075 0.41425343431622713 0.5473549529173025 0.5631268710395786 -0.34192663854403693
Ni 0.5870749742271807 3.669535723022701 2.425244903316921 -0.716704776400456 -0.015770118350063162 0.08596354864601323
P 4.026527607579222 2.91177825542737 9.682964557768821 0.02410820590211332 0.9034720240291085 0.4510383431717393
P 1.884236185405184 5.994836503257193 8.437124836720274 -0.9314466548651635 -0.37507638582312824 -0.15411937968664424
P 0.789507647048885 6.861504256366626 11.963096249468608 -0.5109147078123976 1.0446862656183105 2.1561116844353836
P 1.8251113578877376 8.694217640429258 9.902746764088105 -0.45380947815897327 -0.5685225881338531 0.16759376002399523
P 5.504059988773912 6.780906232785629 7.779110180994277 0.8445667650524682 0.12964324892215093 -0.33328876036338084
P 2.3804821141255412 7.298910318647435 2.774600750215056 0.9408183258880507 -0.4223029229102598 -1.1871881156706845
P 3.538637473046265 4.401839731756743 0.21804210528553764 -0.5389271338649234 -0.5151454580642935 0.7585034576037969
P 3.714761803772986 0.8834850528518409 6.734270973543673 0.2847288491768064 0.6100646732416977 -0.13709096344944777
Ni 5.323495780607682 3.538922434124163 3.626431223458831 -0.8908911020403044 0.3310038209839461 1.1305392568283883
Ni 2.1097782824151436 3.1385705042629475 5.841043009515566 -2.636148471722002 -0.7202523845423984 0.9655819059859756
Ni 6.244021177439862 3.1422658059827877 11.223900778795848 0.2804536188402202 0.6568199271193655 -0.941090862823147
Ni 7.658761006275773 8.061392624760174 11.401168630751295 0.8193103044785245 1.3104506578774722 0.23986515589489657
Ni 8.77719646785463 2.8083925379073578 6.148853369714719 0.6456986203952235 1.3097425760668542 2.314285950917692
Ni 5.743555986308046 5.382262108704547 5.421268684122384 -0.6383074701374749 -0.9996461946595364 -0.63967324013675
Ni -0.13875306420430553 5.01604116214126 0.25339382507201075 0.2742454331469793 -0.06816945788738583 0.38467894190989876
Ni 5.703348897445902 3.922948851909666 8.599055348079816 -0.0694750640726868 0.31515374132556695 0.06212659412741558
Ni 0.13920164809467422 6.291030563000221 2.5927321556954785 -0.16516483886752845 0.14652819760294764 -0.8862253211335189
Ni 8.01891503956768 1.409665683190756 11.243489554828136 -1.4893778406364155 0.3102550184723689 1.1547670190275015
Ni 1.0056552207810416 1.5887867013818253 9.602120180739837 0.1977368592662788 -0.2900482045071908 -0.20915435707460106
Ni 4.4955827340923955 4.695505910970029 11.841971245234793 0.46281322431948035 1.1235278585075619 -0.4789384120161171
Ni 1.8742993168500908 7.116709882356498 6.5098337901325305 -0.45031946272784384 -0.5643905682433505 0.97485613219905
Ni 6.024647108922473 8.187584420804871 13.27483276016646 1.5316364921953107 1.8640438783950029 -1.6818837905210584
Ni 5.3618552186099055 4.7666358729305385 1.5055799050941356 -1.740729657014673 0.33225466267191167 0.2815823331280247
Ni 6.450195113445584 6.87798603742054 1.6621963519655205 0.051741908458981856 0.7446084447892595 0.8623994223585149
Ni 4.263458955412272 3.209139736360496 6.2457612784736085 2.1833730912544977 0.5071249017526621 0.8545750412180895
Ni 3.5500910699192034 8.667183107200277 12.048635130448645 -1.316960691081848 -1.177376014676269 -0.49389246222278815
Ni 3.9731295784982446 5.746580250650901 3.5455739772198758 0.5665325542870179 1.5283177122347227 -1.3220540464443555
Ni 1.9631704039829687 7.4718633083459345 0.23152352195797027 -1.6755840735552756 1.2291377206295928 -0.4579034457226888
Ni 8.448139961224962 1.3626746822160694 2.9349704102511445 0.42174499352426076 -0.4289379117282742 -1.581444416856373
Ni 3.5856192817281167 1.8024155868770761 4.317488495011043 0.44998367665497985 -0.43612183107122304 0.5961406069614378
Ni 2.8763235819611404 0.2462881827102281 2.0309663213320706 0.1366757302889001 -1.177779677872591 -0.008970836040042616
Ni 4.380440074035876 8.791122791500298 3.857690007383141 1.2240885882414596 -0.7848698634124677 -0.08494796289730532
P 7.244032330419953 4.212726691253568 0.9124334214491576 1.0490525130068062 0.7247888389601711 -0.05382578757120407
P 3.6072671313555396 1.095684536811183 -0.035703784602069834 0.03505287783907511 0.3295277506590518 0.89321383663621
P 6.067418847485699 1.289127147239843 3.6742734307500786 -0.1811460447871332 -0.8084556211522077 -1.7518221673834085
P 6.550869104579147 0.7165438226677081 9.723474073065251 0.2328496438090119 0.08216320106331655 1.56201896114191
P 0.7513991586410682 2.250328439868775 11.636234862368038 1.507044147567927 1.298423551509609 1.607889498421779
P 1.9305285721243786 1.9983585009569713 2.8234246943811265 -1.873691943007728 -0.1323804453476559 0.28290799391798377
P 5.77520505054041 6.999747148318566 3.781944595189965 0.6618556897710601 -0.23198215360239402 -0.2560101410858752
P 7.171495947655624 4.81197226119485 10.007094914667986 -0.021748447420685126 -0.16140280072193494 0.4413020897205819
Ni 8.18307100502268 7.194274449301805 0.10426817763221291 1.7849084084144164 0.84489072405079 0.46923069781004995
Ni 0.7777387545316917 0.4135447085386159 1.1885735751424247 -0.324875339488705 0.7892646500460536 -0.9389961850776474
Ni 4.897221584950571 5.88060388019138 9.92050535461686 0.3810454589223696 0.682465909822244 -1.1741963313967068
Ni 5.269573790835085 1.5237236526926952 8.16356771731376 -0.7928577667139506 0.7813947603796736 -0.692127344171408
Ni 5.020435078116592 8.40905433208874 10.029791604907931 1.4622411323206235 -2.0895067428216403 0.20964183823398086
Ni 0.7552240716898881 0.1619203998374243 12.023194540797327 0.5683061012476729 -1.3173389003568732 -0.11874999904841485
Ni 7.863620444406029 0.6852505001680746 6.11963199002019 0.18993458961304063 -0.2768826136595103 -0.7851634833934864
Ni 8.930937565527094 7.230271468045324 7.72994979891043 0.24702105021338744 -0.12271901099849188 0.33197646930986047
Ni 1.5291930669297726 5.9448028533539805 4.438196169150128 0.9872470496642353 -0.14180790930914286 -0.07015383530726628
Ni 3.771432289103374 8.113090079666597 7.872062646146083 1.1272248477431746 -0.35339530130526875 0.3837769989209197
Ni 1.8321986156638495 4.924210156715374 12.283458685534532 0.4703977215349576 0.9854300510601544 0.022863020641102558
Ni 8.891750821169682 4.396204856248628 8.72872275004559 -0.2585699313932514 -0.5753514381302285 -0.9728630130284213
Ni 0.0619330729786683 6.092256422727015 10.22121283014208 -0.49027569140580723 0.470288449650603 -0.7525516108957362
Ni 2.2062697803085882 5.529063025286265 1.3609649157486803 0.06900198109101019 -0.8753482692096989 1.3780873831898395
Ni 6.557588670641842 2.432547260745382 1.9213169754740003 0.4864509183430784 0.45320064093038076 -0.64790308424571
Ni 7.180872086347756 5.229909047250231 3.163161726056273 -0.26870496294472435 -1.1324608993311336 0.09346551345001324
Ni 1.6026578712704802 3.9098590269120224 10.175590561570589 0.8615391312407485 -0.3126230044839132 -0.6506330815823633
Ni 3.955737760453623 7.017975465011211 5.665685316011319 0.4608519868280514 0.6080070193817206 -0.03491686648184309
Ni 2.4258460792683585 6.39078532485024 10.484612465965451 1.0552015633273375 1.1080953260025754 -0.397307943527819
Ni 6.963391630154463 5.956789603211374 11.91160837883883 -0.5800015353077302 -1.5998661138966705 0.07456713388361351
Ni 5.723673056905024 1.610425358716413 5.6615552188403635 0.07600540899203684 -2.1663277057364367 0.7926831888092993
Ni 2.69621898843668 3.889341829303356 3.762893568288549 -0.7292551022616409 -0.2738325139792767 -1.9331607877973223
Ni 0.7511197129388714 1.3717842444159742 4.623806026853724 0.3585956145592856 1.3543635572103383 0.5725288810797688
Ni 5.239588531605932 0.990956744537199 11.64550437046328 1.2295861210209211 0.755908443183111 0.4424606288050573
P 6.5283296025466875 3.327646775594781 6.650076925005459 1.1390989734729413 0.7909098989589605 0.009218433274474446
P 8.977717143766567 4.5999520269457985 4.3348168862351 0.13723006013047334 -0.16328587667726072 0.3868726071271079
P 8.642501800937163 8.236818341231402 1.9918696614444455 -1.1856117723225 0.1241565147759668 0.5636966275001195
P 0.22753498609667983 8.493154619240032 6.048487320391144 0.24987317495020192 0.0813890419014534 -0.28934449357194686
P 4.963985207814255 6.8761016173892795 11.972674618603119 -0.8249484766009082 0.1697174912352174 -0.6409757609982574
P 6.85229357894553 1.351974853355636 13.404594842748438 -1.9730933623262017 -1.6085862673784876 -0.8657858223322444
P 3.3766692732860966 4.97235019429449 5.5099706330670895 -0.5064098779635084 0.4512342612326293 0.667374048486128
P 0.9791538405365148 2.796332249707281 7.8323877910391095 -0.016142928308449617 -0.18234649285313756 -0.5229988926704412
