# total energy = -381163.84550275875 ev
CRYSTAL
PRIMVEC
9.22094676090811 0.00000000000000 0.00000000000000
0.00000000000000 9.22094676090811 0.00000000000000
0.00000000000000 0.00000000000000 13.49578765217575
PRIMCOORD
 96 1
Ni 2.6171813083612157 4.024233231648968 5.316058360497997 -0.484088845868805 -0.7743687067708277 0.7581383609548944
Ni 1.3973883711221522 0.5821211329008069 2.375272537369904 -0.033794065731309546 1.5487860073914035 -1.6097633184057247
Ni 8.75449591197708 7.2287335205786905 5.581479623538034 0.5625134058252959 -0.1619571305635082 0.7716214830429937
Ni 2.8023102557169146 0.2992768910278451 4.556137088696852 0.8963837497237594 1.9491291382011207 -0.37638584866317115
Ni 0.9257092834055566 3.5079155408468057 12.337741054981961 -0.49456146326535466 1.3731290107432996 0.20749393865304264
Ni 7.667890329203612 6.920956760861675 1.2170976545119592 -0.6570312717992233 0.04294796431643571 -0.16394819285160794
Ni 3.6272806961747692 9.16186811724816 10.546147990509034 -1.310852778411897 -0.2521077207076755 2.3676175724612967
Ni 1.9081458310504051 5.035466795909439 7.516249094061474 2.988162319298712 -0.6551998750174394 2.1109008922267
Ni 6.875359179316925 4.518577406410457 1.149666715316723 0.11086776808686068 1.5486407400627908 -0.8145733040141713
Ni 7.609411085086968 3.668885607788502 3.40791621782628 -1.3117356952374828 2.7212059636139783 1.7949755628424313
Ni 0.5253920244721705 3.0595746692858747 2.4587165726441316 1.9853012172463038 2.006007082335087 -0.8600401780977187
Ni 4.05839683925732 2.032287436780832 5.736384151725407 0.20704322426886923 -0.2076489761736682 0.6275342907813709
Ni 5.951088363600141 5.373211632475885 11.003128889149325 0.7591050957435378 -0.7065746299449895 3.480229812497619
Ni 0.12469947300716239 5.270324308941747 1.384721556608902 0.8184315014179969 -0.5434605029589028 -0.31180667923020494
Ni 8.459960431754151 8.68328254043611 2.51382002816552 -0.4445959299805053 -0.13127409965735456 0.40961735702279134
Ni 9.31232630492575 6.232751402197899 7.933984721354422 -1.3848375574294796 0.019341637751405398 -1.2608936728849511
Ni 0.2659763640327576 6.7089856375956085 10.215245096410982 1.1766792457195607 -1.4864064167129174 0.4583940122058622
Ni 4.558494884773898 5.89134584978246 9.578540569383955 -1.8951709388171103 2.929661237739025 -2.6569754357696818
Ni 4.539186222336142 8.595563674261145 13.326051345689297 -1.3607576336621403 0.46642896669519673 -0.5567502780892734
Ni 9.112047342104322 4.58261688140101 5.585204886014088 0.1908794700248132 0.14184801851845893 -0.7308219325281285
Ni 3.6099084325488224 1.3940780512486302 12.23879015360383 0.614428092416716 0.24405733959937323 2.656222873874374
Ni 6.835266502965749 7.8354441521054605 7.392020811431852 0.39020887058919246 0.17032967089791956 -1.2494790032901062
Ni 0.7275612813717923 9.00848688945941 4.3228084086312 -2.1830686726402013 -1.0276907595015787 1.559241655507089
Ni 1.080224687641222 3.8827378041860405 9.648813404359192 0.18650756620936265 0.8728524993710388 1.2757243101398803
P 4.247287932875963 0.5656645092844441 7.186790200220227 -1.4791224814569945 -0.8286894317005792 1.3409210585521874
Ni 2.2730463557157976 7.286023262568079 8.819078500729614 0.5721637844308662 -1.0573270943107727 1.8549434587556313
P 1.2980234492361624 2.4211163181921544 4.261996264993663 0.9195730433560291 -0.5001782952314999 1.193859357043273
Ni 5.872673432668584 9.066827819375211 1.6765138051817676 0.5799089755939238 0.356086989204819 0.8506962749889737
P 4.82396594092624 2.7110689878938015 11.012711296983763 -0.02119000381405383 -0.5968006091429399 -1.1046924709686137
P 5.337148509842617 6.420397668008951 7.568505121234832 0.022590997926638514 -0.7403571257120733 0.6383234109770749
P 2.4966543137461663 9.133255519566996 0.5371727060053499 -0.27815890926877257 0.31080934831394214 -0.8767664897134642
Ni 3.384520831800934 7.01166321377486 11.749109011600114 1.5421132233569184 -1.2336613195315593 -0.025109907693750308
Ni 6.899167663755458 5.342764066396865 6.260479711088337 -0.1978456169300012 -0.28077217852190356 0.41843109865967937
Ni 7.989028240722112 0.964723108990154 12.399106455422872 2.6791152050915152 -1.8716949671823573 -2.595287214731266
Ni 9.061479670275927 1.932378479038191 0.6425211002198306 2.201176695094822 -1.3627229849186273 0.9085463532282223
Ni 8.462035144766805 5.874167226037694 3.63437529258337 -1.8216013929600756 1.2505516675289947 -0.783652703175915
Ni 2.543994654221544 2.6689108194766944 7.6758775132549895 0.10295879765242912 -0.03585300514286728 0.06870681844809458
Ni 8.261009285260824 7.295022906569631 12.10012094631147 -0.7688562615930308 -0.20315494495805658 0.11992422186217411
Ni 2.3212258023429597 6.4254784096532696 0.759759905233493 0.3610109088689976 0.22707237500560248 0.11818898433862225
Ni 4.68859322208732 1.7711871093751448 9.12007509832128 -0.5845022513915611 -1.471739558729362 -1.1048845323747616
Ni 8.056949734283007 4.874183216779165 10.654789184798263 1.8496374731616856 -0.32716902061888814 0.9569941643169647
Ni 4.502182563137137 8.3399959148892 5.5567960712555 2.4110414479728863 0.29364054984413945 1.00947835025861
Ni 7.229139242234498 6.424150593325171 9.126310302495305 -0.7189519205634198 0.024609571018564067 0.5773635834642508
Ni 3.253371306561102 8.371098168185547 2.473548465447919 0.33222252388239554 1.297577915679862 -0.5059907881482189
Ni 5.945565016513123 0.6416220579143476 11.11252620106983 -0.74245797410516 -1.3109661640613102 -2.1048228043534207
Ni 5.631029302848221 1.4746230208731774 3.6863334831775765 -0.11724796058159163 -0.4002253742849301 0.29022766750784856
Ni 4.455764317334049 6.779055611742939 1.5166299657640288 2.640669242410491 0.12437377299309546 -0.8776540345247401
Ni 1.2534862765645467 4.982271154265019 3.6069383656093756 1.2539437239296791 -0.21585208080975082 0.02723646711844987
Ni 0.05258244868734747 1.587137012786025 8.53669253990878 0.6858361118460575 1.8678802214219574 -0.8680532782101824
Ni 4.733314813693393 3.6016925690187165 12.791388581381922 1.0485704311640651 -1.5090601495566913 2.209340204742221
Ni 3.749937729482809 3.8980169129058893 9.440033650753922 -1.2400438260191353 -0.7244175716636815 -0.06023349086976078
Ni 5.939626726823574 5.482636607236562 2.9619875459280607 -0.19541592444258601 0.6531347649582945 1.023564396038031
Ni 3.9957681691153706 5.699033784929621 6.126089023075406 0.7412696102240137 0.4115238300168848 0.03319525580504606
Ni 9.412557995803692 3.6858705916520877 7.62456663312073 -2.2515057823666775 -1.1245676126259858 -0.6307682243376362
Ni 1.1680910889637532 5.979286018678775 12.395165422793506 -0.7190671059850454 -0.6115713396942113 -0.831594006941884
Ni 6.970998838726863 0.02259500784979855 5.2255012869217214 -0.6323520238849885 -0.14615487342392894 -1.25380951234466
P 1.678027884633668 6.059545138954912 5.831880886461139 -1.0842570859323972 1.4078029079764012 -2.1583814543061663
Ni 0.13731280602941975 8.386506370159516 8.811872330865667 0.4569148565571744 -0.24225036829762148 -1.5594555712901077
P 5.099331072912257 3.530940244813891 2.3302236021551668 -1.5567636262802413 1.0107042522459109 1.1237854830443226
Ni 5.931078909211444 6.723342651643166 12.987091188344772 0.6474623971638657 -0.20010895904288117 0.08597203328644548
P 0.18800957111193378 0.5810791659211191 10.399502664301364 1.4030669359533126 -0.2459152187437184 1.7987998216845278
P 5.191992366530697 8.02944365020859 3.402706382927841 -0.04719954050393806 -0.15406718629247013 0.6051698070432416
P 5.616561637439987 7.539700727861831 10.94861926259689 -0.14663824081825066 0.6970785175290963 -0.16095851409566472
Ni 4.843809418273926 8.376344886870879 9.09265200276737 2.2214632132579997 -0.9820410799832635 -3.3037076396357428
Ni 6.246011123585432 3.5869021704751822 9.633401514006534 1.0500182193541852 -0.314537962118439 0.16275597231571973
Ni 1.2259340877565161 7.162204389972954 2.69276079817548 -1.1491561005986275 0.44857034124722106 -0.11988745508696773
Ni 8.162372818165942 1.757650759585925 2.8945363206500336 0.8356800040857996 -5.449922119562072 1.5492115249645966
Ni 3.4798561999690154 2.704024184597505 3.6235784860655245 -1.1201843959566256 0.18199862259541558 -0.9902845509389785
Ni 5.23359727814443 3.8553054876854076 4.8976081098340245 0.034529144125121175 1.3722052133774498 -1.0697900026644735
Ni 3.9536468844851553 1.6139607468029462 1.6284155028857672 0.0430315251691775 -0.552436738315584 -1.3802273123509778
Ni 2.9869228300561312 7.166169397063802 4.408574278290255 -1.2294344259344052 -1.7659138695897845 -0.12035282475916048
Ni 6.484160514597817 7.036532107086526 4.719706540519735 0.26759733170284233 -0.6846557183847112 0.04754278277596973
Ni 7.585925333783737 0.4452426334620359 9.491250477231606 -2.999469773891731 -0.7202744960295853 0.1642065887193172
Ni 1.5647762169829882 8.332425517629698 11.54641600492663 -1.2664552261331286 -0.14814824970487392 0.03478599733093364
Ni 8.448342038883297 0.1314851677005458 6.8800581737669155 1.0300767432352518 -0.614542249397077 0.32237159923024483
Ni 5.35603300873112 3.6308492025565324 7.469959019417836 -0.7869192897423287 0.4497350509792835 -1.1065830031231072
Ni 6.832325020961142 2.4000741177704925 5.698704597131613 -1.7762828715289343 1.8016090089985488 0.5432219045855354
Ni 0.332120981160149 8.463409065828518 0.32671658428585626 0.8038988550194606 0.25749983825752426 0.17538471682332377
Ni 6.375168924333117 0.9583975395382435 7.529610245862959 -1.8957404381673348 -1.7546647790385266 -0.5476992236305988
Ni 2.386925047743635 2.152445593526965 10.476698586076155 2.108221031401692 2.5528257031329455 -2.732477936983372
Ni 1.36957799580588 1.3450594984696842 11.992033008825615 -3.1793024991840793 -1.7917370013004754 4.252416938236095
Ni 1.3242570426628177 0.859710357236387 6.509247944346816 1.1210721978782174 0.7725187980462824 0.1823524063904085
Ni 8.720129443540827 1.678313733982078 5.225785292080787 2.632175346006867 0.38542944692267816 -1.243178514993375
Ni 2.4573085340795444 8.052164062933821 6.73353456405599 -0.3292253889272846 -0.009463716516061121 -0.5040141240378223
Ni 3.4678044226021827 5.25774693761171 2.7572438007034044 -0.2670242328081917 -1.4108483796709446 0.8786333677188739
Ni 7.547095927133598 2.974575982394166 13.109159925251891 -0.7506829331181136 3.312738896600075 -1.8926605136904306
Ni 6.5871031638122926 2.3160712931248573 1.6488611080544573 -1.1483012087974998 -1.1563981268730215 -1.5416635374140093
Ni 8.35579139662553 2.571998669418997 10.803310051569369 0.29691793504383057 -0.14531797934493038 -1.0594163727396335
P 2.453500283082986 5.342533542728792 10.573612580323196 -0.9379564309592233 0.8691272280006516 -0.5770967029561093
Ni 2.3621575848459204 3.804000140119182 1.0409987802819978 0.3206754424747445 0.21999747043669207 -0.507134671944675
P 4.1550139190198845 5.43922439006514 13.247816223218837 -1.701487423684599 2.407800315327769 1.0071095929161173
Ni 2.1468761417063327 0.5784290658329572 8.96233697320596 0.2114791485530358 -1.3117017566757538 -2.145933972571433
P 7.306502985239645 2.697007044141376 7.896924814380408 1.9740094463825684 2.1203538101094836 0.3355508169246802
P 8.262235671174968 5.151567736097496 12.921676870197835 0.15076151895800488 0.08570952365367819 -0.1731807671934695
P 7.075610479298184 8.722914169451142 13.415595959315397 -0.2125109322516598 -2.130504782500557 1.3022398399319055
Ni 5.894121354746053 1.373552223843451 13.107756497160667 -1.525558918542663 1.0797447998843406 2.4196780406019616
