# total energy = -340891.05012786126 ev
CRYSTAL
PRIMVEC
9.06106660724049 0.00000000000000 0.00000000000000
0.00000000000000 9.06106660724049 0.00000000000000
0.00000000000000 0.00000000000000 13.26178688634864
PRIMCOORD
 96 1
Ni 6.343525740770869 2.027585770157604 11.409712043202672 1.4087513879325997 0.64698725729966 -0.3431833937692735
Ni 4.594585884944055 0.3703022255242633 6.293738805258318 0.22588221135224323 -0.7118880717381031 -1.1489740664948085
Ni 2.792747523398486 1.4449863830046765 5.01701370722205 -0.5041236530324931 0.8602340392760798 0.9701900941819486
Ni 3.4039617582834842 4.503902732283332 4.773752163340439 -0.16021263706857566 -0.3840413083258999 0.5248518867187799
Ni 4.772907671950753 4.498837596158498 2.5157606903279053 1.0265198791219288 1.0062765554918605 -0.2712881502908683
Ni 7.127036153497959 5.971605208785253 2.6569592882407793 0.08853542313824753 0.5335617557879521 -0.053849184609971776
Ni 5.1075690988463505 4.577732301415983 11.57127991841184 0.41849280513555026 -0.05797297697035822 0.1409995544752346
Ni 5.678244122599846 8.005579030763982 12.363990031867989 -1.0820222830646073 0.37056975620202626 1.0387382755649917
Ni 1.9908250237202987 6.342837099723486 0.3852493606790523 -0.22076545895096814 0.30365088289229 -0.6054161187260928
Ni 2.4337480721177265 1.5241619813209633 0.28795978449665344 0.8839964318030001 0.17870169701169866 -0.09846425221618527
Ni 0.7361364392003049 -0.03323327328274714 4.791204683358406 -1.4399825780327393 0.09965827252428643 -0.4898555731492531
Ni 8.567836323819856 2.3347015551578583 1.4696315775412374 0.6346241077486167 0.5229451566143704 1.5858397177105914
Ni 6.732417650147924 0.9433295021185593 4.971405735539147 -0.15135827200173932 -1.1082693896865947 -0.9756683436877005
Ni 0.7490158389996606 7.240154506597125 2.3141157183742953 -0.9036237191156244 0.41603765872683834 0.8774149219307406
Ni 7.80715979845338 3.762635011173378 3.671963637898992 -0.45756277455381844 -0.3656414656624735 0.4116084193108911
Ni 7.590953692774173 3.665880944015984 12.776020280437132 0.16402815415992397 0.6216577773959359 -0.533271735351359
Ni 7.9694888032412345 8.914422114114885 6.8970572268710795 -0.14903090942014333 0.24819707279935962 0.045667420130127805
Ni 6.939127758226368 0.8683029661127586 0.45647206100469984 -1.2911645559543505 -0.38879759206396264 -1.0882944892265642
Ni 1.826792538446811 6.380087143747089 9.206372392259796 0.9819955714573088 0.2524483918765459 -0.7696677017507325
Ni -0.047697453597726355 4.733066162933047 1.3773428039121411 0.18087427918298526 1.1992710149771475 0.8131838798658124
Ni 6.3842008678985644 1.9819542397020289 7.036505226752973 0.6029159780120584 0.21309225867642656 0.24489500500932018
Ni 3.2919216720874576 4.24434848488461 0.17154139100989285 0.6623819945881754 0.048585879328503424 0.8018044343842772
Ni 5.68718739514942 5.651251205755693 4.639741709412951 1.5066232579804246 -0.16154961071244434 0.6135148365738273
Ni 5.739197916359707 3.002656187920699 9.095688747705788 -1.2693706000077105 0.6629733483152711 0.6935720470377345
P 0.14519905873418806 5.671647666251225 12.507708512350302 -0.061050844564733565 0.12056571210091495 0.19133481239467692
P 4.156102759088969 6.21638991793088 12.78357992814545 -0.02830758869544157 -0.029978548639961272 -0.7807643258845263
P 2.3136436368141813 8.28366315897717 1.3836946114676134 0.8623531425016115 1.9763951730059253 -0.47721525867742326
P 6.27072007214288 7.712353860574769 5.7762504291355095 -0.2880949374355619 0.6357931883560534 -0.10604694965944964
P 4.821357194060753 1.2349146192870306 12.53416501406281 -1.1200419568414905 -1.6778219617468588 2.55633860138221
P 3.978922666450302 6.023516058264999 7.83925409568802 -0.14356885786430756 0.7388072647264503 1.1087874669735938
P 4.588197833122932 1.1061659266255386 3.8724415444986153 1.2545954985810652 0.0666519928015949 -0.16144702369630903
P -0.015151009149080212 5.734205268766175 3.6583702260662965 0.10664653091666151 -1.082489709619329 -0.43475426129973516
Ni 1.7111189646191942 1.0647115477863294 2.6843708263532116 -0.5837221786924269 -1.084905003929041 -0.9454833354638879
Ni 1.7708676365461333 6.557566251577383 4.5934052279904485 -0.7597627839321948 0.10959532913234028 -0.4956127873480045
Ni 6.12140275872401 5.654286663004028 9.121270856509447 0.07542356834663784 -0.5851393707549277 0.0880235164988355
Ni 8.810636659421046 2.14605921350682 10.314327879501892 -0.15689539976988465 0.9312736196224091 0.3314920734742743
Ni 2.1443376108883614 5.5035286400254995 6.5868769892099674 0.36147370743802903 -1.4958194824967013 2.0010245415188312
Ni 0.4009965879981041 -0.019063577626188544 9.04867631072888 0.25356245087633106 -0.2759673009340925 1.1395023795589472
Ni 1.5180638836250533 0.8917865319351802 11.381371745782914 -0.7427415667838498 1.182228971893196 -0.4754504534675167
Ni 4.199115641351204 6.982811159403161 1.6291969570731448 -0.21553326401775139 0.07398040814220808 -0.43903720494580517
Ni 5.8366496856308965 7.847825864514663 7.914448261422461 -0.5648762496305174 0.06065977977390199 0.6736007461221302
Ni 5.346600030819758 3.159684468856983 4.608709369161907 -0.10624775281634605 -0.9875437549690477 0.09980431118384747
Ni 0.7820361772217037 7.388466041644159 7.068730909450601 -0.9075122555367532 0.3118730136917661 0.13039349682461415
Ni 5.30111347742679 4.51242919577791 7.006864666302957 -0.4778246101266481 -0.16410631569602704 0.16297965829075156
Ni 8.221730770044712 6.963701370338267 9.16575163153058 -0.3496155225478624 0.6787270116051021 0.535199291391375
Ni 4.565200846566884 0.34615448353377304 10.491081195912509 -0.41919291652636836 -0.8247258190671408 -0.6590806981290843
Ni 8.005334381970833 7.417860141087743 4.605102158622915 0.33321059882727777 -0.024179939680313196 0.04941788831149554
Ni 7.439869471404778 6.112921600561497 6.896473694194085 -0.9730247354172661 -0.217126062426168 -0.3609260624646752
Ni 2.2907916273207416 5.143287822646167 2.5504401098101583 -0.32455498003480876 -0.023323505217288862 -0.09213445334341551
Ni 2.7037950344226354 5.337629575070945 11.364423021057505 -1.5330922508052307 -0.32246647293689623 -0.13595607851405617
Ni 1.0260298552694802 2.951515529086055 3.8637556062351686 -0.03037784096090897 1.0716414540509156 0.20621790015409644
Ni 3.3303315326119183 2.796018568373558 3.0748112719802383 0.793626269448859 -0.43391608166915596 -0.7695699998306037
Ni 1.1981629339161382 3.254735055528744 8.261536034796766 0.9929800954932705 0.5986235212842916 -0.6941698285227335
Ni 3.7787999536540666 2.5118997699293506 7.271358101003374 -0.4336394309690016 1.7401020507330032 -1.4764475057279927
Ni 4.0644681944548875 7.064696016576918 5.706122305632545 0.5434936701896834 -0.26542114998712996 1.9495158321165782
Ni 0.7312371205908272 7.504520180261119 11.320127997897838 0.7572906682426184 -1.0773603588125638 -0.11189595224105889
P 0.13309981675298668 5.43182842149989 7.8941714070035784 1.6319987327651568 0.0407139327795944 0.4512442885349584
P 8.595327599316722 1.7210680155406044 8.020211746914242 -0.28555520173284366 -1.4216143599381967 0.21416595135657956
P 1.9180193550923104 3.2319102292345434 10.421655305056548 -0.15484160256464946 0.25305902887735127 -0.08044030483493887
P 3.8622161310516097 6.3429095882547895 3.73904180644736 -0.22872687988989 -0.6755532418628107 -1.9367503049207935
P 7.043139739580529 4.052933456911211 10.576725489540996 0.013678011707724829 0.4077836462481622 -0.4812539475231712
P 6.32273965441958 7.886697839426184 10.232874329089393 0.9616879702482083 -0.784746707571042 -0.380654394131538
P 2.316787826859472 8.299973078520466 5.88828598479833 0.9160958834407062 0.7843816109221395 1.7025086658602615
P 6.946258817493353 3.837261954150368 1.6840082539116719 -1.3725448561050555 0.6478529477340649 -0.045243702329147886
Ni 5.194120405222772 3.0837889765821815 0.5771926488243253 0.8353362475931356 -1.2882661513606328 -0.24401388795594753
Ni 1.485824609327806 0.8610976061011872 7.127626935028082 -0.3320317480278282 1.0200155023445077 -1.083135056512812
Ni 6.771942021841177 0.8491968014744293 9.355647118666527 0.964144916429133 -1.0423450190796435 -0.5232675729507956
Ni 2.7107176891621227 1.4627641953068686 9.016887371432356 -0.07944605924246963 -0.4027224296751709 2.292369867570891
Ni 6.356428699342898 1.7724623842348113 2.665645226504226 -0.2668378278289985 1.057478275176656 -0.02069223824202888
Ni 4.423966004388358 6.74716000520178 10.408898229653769 -0.7124326313876633 0.9344309343044681 0.021537359851143554
Ni 8.310320816364046 7.319257616382108 0.42744855917740554 -0.9351446725420411 -1.0262504275106261 -0.5361426291412509
Ni 7.960998584012308 3.7197942891729885 8.468432800843317 -1.388139625219519 0.9021152528908979 -0.2648670772558729
Ni 3.0161209326103307 8.467856517019454 12.305532561904894 1.2161698476150151 -0.9760948897021575 1.0109695900921556
Ni 0.23821996652945002 5.019722059972878 10.374894765725921 -0.48656456110280716 -1.1187096111833121 0.3241790847526288
Ni 8.61657580005507 2.497655773528206 5.905778373508514 1.0695611744831193 -2.1942537427227435 0.2062022164248126
Ni 3.8392553887612153 2.5798487069600027 11.25169791824066 -1.193811277414157 0.630761796579733 -0.26797117010249333
Ni 1.1565635780143217 3.6639871811356794 12.848907498662838 -1.1392524683316703 -0.3726032416922873 -2.2402901161565163
Ni 3.1972063448729755 8.282104655554145 8.040806644764219 0.3609646290120945 -0.9325242042000583 -0.0025153102226859905
Ni 5.669300850050273 7.924255959707828 3.422402840647104 -1.2625420071216515 0.24224496898098286 1.1621054616704438
Ni 3.0771743981007336 8.47714411009272 3.911484773565341 1.3041995347614377 -0.5507637214885354 -2.1818468844179586
Ni 3.678358032466605 4.4068043446022465 9.31826206475337 -0.24374237946211574 -0.2893524639917468 -0.5171036102319287
Ni 7.06996955722925 6.1394795862178295 11.687771706536545 1.5964511746778505 -0.3104920741838395 -2.134084272321699
Ni 0.2912888202967683 0.26482960026433655 0.7241531788691892 1.4333367905814478 -0.7133224901917844 -0.3867895604949984
Ni 4.318078382286719 0.6084623890153879 1.6519547314758898 0.0012711534029397464 -0.5490739924909382 -0.3412926045044638
Ni 6.2501423903190885 5.701567307546759 0.48125045321753085 -1.4733765801121528 -0.3589154597925496 0.42667354117412964
Ni 7.908752475075286 8.750480239505526 11.544676627423442 -0.3054689099376352 1.2705095987081605 -0.1704620827107258
Ni -0.044049468259875935 4.723769508793368 5.6006514925859 0.6756748550423396 1.1522375677374284 0.35331122623189476
Ni 7.648908273551349 8.815130948361867 2.5482255851788347 1.9158240962910877 -0.36904586335833217 0.20576898554213596
P 8.576136260654112 1.3493105827504226 3.671140893068697 -0.5933730715186298 1.0753728960688897 -0.07773524719894999
P 1.7835440684578392 3.181213562654133 1.578471295080213 0.026925106525618143 0.048458095501387514 0.8382382517312789
P 4.821900858045529 0.9993903200154309 8.324728818067266 0.09093657638057243 -0.14687709630193416 0.7753392982142131
P 8.771347875454532 1.813835213476304 12.599957417287182 -0.13026776988002725 -1.1837317816909676 -1.3135005004473896
P 6.238961034365519 7.864797241906103 1.2756341456401503 0.30666473001794925 -0.3106509683592069 -0.13721746172498306
P 1.9173941415098172 3.243272806516372 5.9159104579714645 -0.31455081763424536 0.3714578152339345 0.739940864110261
P 6.92047102248212 3.775773557472144 5.892318159352088 0.5221195753892814 1.4194068107639168 -0.6976328473706694
P 2.436176437916395 8.350905332827613 10.120811590227333 -0.21577289083238324 0.028313759343028655 0.3483603099845226
