# total energy = -381173.7338252283 ev
CRYSTAL
PRIMVEC
9.21374719320760 0.00000000000000 0.00000000000000

0.00000000000000 9.21374719320760 0.00000000000000

0.00000000000000 0.00000000000000 13.48525035709283

PRIMCOORD
 96 1
Ni 6.509116252990403 0.594952852647751 5.10915645887697 -0.9127786461420151 0.21033629319784422 -0.424494788355256
Ni 4.694063323878523 3.3367401452430494 12.044742981991087 -0.23874209803404692 -0.05582430605847161 0.00624315269623441
Ni 6.172869760229157 1.5738923081458895 11.06704830374872 0.3944722738512368 -0.15527251945448098 -0.4061072869870038
Ni 8.726708586449467 1.3057446214349084 11.03672033324472 -0.6239907964044866 0.8420565970361047 -0.1545029882783081
Ni 1.6916900669542563 0.7034474908406458 0.29226006330867355 0.5208836460996513 -0.8772827672282504 -0.008638392401288348
Ni 1.951444029905017 3.891241883264568 8.476289070854886 -0.27984992381795026 -0.07883902178609002 -0.22587064138801746
Ni 3.4645901023196934 2.589238043220055 0.3748981625462364 -0.31494908151392853 -2.2797663198742675 0.11623211772256756
Ni 8.76290939946144 8.916769765072774 0.27770971362465535 1.8062722188021731 -0.4999296695558035 1.2581238234492977
Ni 6.1505632780957935 5.6743138956127535 8.227742710079681 -0.032198953330047776 -2.4190095537800276 0.5435137247943415
Ni 1.7131212430972569 1.2946881247145299 9.692806842381612 0.3668732811870456 0.9712943829897207 0.11118787043044076
Ni 6.107092818490171 4.171137097740952 10.455249956972747 0.4345789120641354 -0.14903270919235626 -0.3038964232441928
Ni 4.433544619904604 4.59320043254687 0.8223278649528829 0.6381125805178495 0.7829412789311871 -0.8387442448334199
Ni 3.4037977978521448 1.1919640564349459 11.504037909127149 0.14598260951212277 -0.13458130965371662 0.6652040374180028
Ni 8.761481268635057 1.3300136317361393 4.679031095212442 0.3672008397297934 -0.573657081146941 -1.80694584783043
Ni 4.298811993619523 3.1111691846527925 5.012534655412307 1.0427432829593266 -0.21986248752072457 -0.11363273242650752
Ni 5.533500196131466 2.197506364417042 1.8163557529754315 0.5787198403818291 -0.9189539217147916 -0.7523258680381752
Ni 1.4526578216069386 9.22130253974107 4.925028933493598 1.565116369120311 1.202123139713962 1.3735712404870408
Ni 2.031926112282106 4.306229060169444 0.14691504292148366 -0.6663054980122977 1.3032955348899296 -0.5953155399569812
Ni 7.830183336130303 2.3256695889007637 6.3803172799452605 -2.1087506786529167 -0.5184166726163975 1.6347045617320943
Ni 7.240927343417727 6.857847373298411 0.03401254803606458 -0.2374380345106427 -1.7363320421676096 0.24588102307167334
Ni 0.9469060203750218 7.810668619418835 3.315847973315167 0.41379257144640347 -1.3547502511257958 -2.274327408246883
Ni 4.09338228455489 2.621698074841633 9.327774760408861 1.210391036149709 -1.2736016073699226 0.544370930588314
Ni 5.9849461709717895 7.397118787087608 5.005131409483288 0.15935311728175783 0.08712157350985641 -0.9476507754288518
Ni 3.830707563720496 5.129698508408707 9.60303546000995 0.12041298857313457 -0.24984900658048584 -0.7146080417724273
P 7.480853322249942 1.6599579213667697 2.831349522903998 -1.8305999969142601 -1.380535587620016 3.9313298621452297
Ni 3.8733948548084243 3.5244518183132763 2.75022247821822 -0.3477105922156657 0.3532564617345593 0.6724242093155258
P 4.168971867133211 7.151047238828317 8.74434922696683 -0.29842048773128604 0.3741171072336525 -0.03886556671694597
Ni 2.8998058223482217 1.1791385202393068 2.2139952865260333 2.1969392599747066 -0.5618490327684195 0.5382288222463183
P 7.934501382687075 4.496796994892436 9.25716612960307 0.36834960862225596 -0.07857625504300661 0.6958937531923758
P 8.263653290052744 2.8395847702112267 12.712316747847739 0.06827127357257275 -0.36293872201932975 -2.6081728124446824
P 1.058705629712583 1.1180605896064821 7.34479575910787 -0.2779246817707794 0.7531193104737481 0.11369443890237838
Ni 8.364958441253213 4.513326457489401 7.162259447877507 -2.948107103149039 0.7481689084470082 1.240437204802812
Ni 5.58328207261497 6.466327610682539 10.48208499588783 -2.1753707897753114 1.2079508021393326 0.34970268294503
Ni 1.6516563350792188 5.697790523649024 10.46358379137573 -0.9058335822827498 -0.1623913898874494 -0.06002086063832244
Ni 7.760730109231792 8.481807184093082 3.401559778640995 1.054672430296745 0.28268765037706156 0.05802774146769361
Ni 0.7101191652366676 0.9210513241691431 2.4915621870680504 -1.4538966170106704 -0.3786131953317931 0.5621210554828835
Ni 2.4499814670268867 4.269724193497661 5.869860017984096 1.8514017641509597 0.9858211158509861 -0.7631296435218986
Ni 6.353385496683872 4.373968530076296 2.5148508546600743 -0.8484360181998871 1.1282021240547797 1.3554097390866657
Ni 2.44765038896834 6.2243008974734515 7.425262178114606 1.2238343061388086 -1.641125891877406 1.8545364531251998
Ni 8.285047611206679 2.0232191211148076 1.1248815267082288 1.7469573830919398 0.038018131114986135 -2.361543598353075
Ni 9.026717411209672 4.784634459512958 12.742766339815661 -0.295247232209627 0.11825249058670602 0.47489098141962083
Ni 0.7031950341655305 5.6325111242624555 6.040677364065584 -1.4620344156264562 1.5371409669533076 -1.144490576802158
Ni 1.1654929605369062 8.831220121698845 11.613807729941794 -0.5395488266093225 0.5731960823501224 0.49996437944848093
Ni 0.20758296180092758 6.591606932271695 8.362190631574212 -0.39402078813611496 -0.3261624337312447 0.12122160051735897
Ni 4.7032125749146365 8.916622345116503 10.004801830961435 0.5806335124647742 -1.1425000287346905 1.5143627927165275
Ni 6.990221280283143 7.582628374561026 8.982444434217097 1.1580415760137153 1.6526783726016956 0.4533546500097418
Ni 1.7272735588993413 3.1451586983206896 2.0999502869795084 -1.7159313670240706 0.3087630073078747 -0.619192860795211
Ni 1.6926759379118232 5.123147534101882 3.4198868433297496 -0.08906275639662727 -0.006337512182253601 0.5738874519901923
Ni 3.725799837338637 0.5236154144331417 8.17361286626089 -1.3553886560407433 -0.7037014221622525 -0.5587259137584055
Ni 3.825529437756452 8.592906548638352 5.827408598826202 0.48630693656604634 0.9069448130690574 -0.5682030000109053
Ni 7.569231586034835 6.714886870703916 6.6631968271614195 0.5298321135421907 0.4474040888532617 -0.9490885363166429
Ni 3.483257154282599 5.456841818870174 11.955793465875644 -0.5014288798091493 -0.14966340079781965 0.8075729614369382
Ni 6.643323695681265 -0.17563429315266701 1.0198236162459184 -0.8494063525329565 0.822724472366396 -0.09318680586732983
Ni 1.1808522772309653 6.670495036371595 12.811648314383621 0.32361472760872656 -0.41933998362719394 -1.2265848723007522
Ni 4.127758775608 9.15244820641491 0.5892228232224148 -0.9036874824740243 -0.28239197351351364 0.21734717729803857
Ni 2.0703197971436205 2.3144380309823123 4.299785886705643 -1.0262450281939874 1.2386562016429892 -0.48207721475541493
P 8.779319083343934 7.629977821766047 10.164952421831938 2.050034395758631 0.8111573363540868 0.8257234070937199
Ni 6.818237473797654 3.106331967337627 4.5008372230690075 -0.5791073056282349 -0.08965616700625204 -0.8420468268440918
P 5.550158651190169 5.587004426510831 12.506275245964577 1.0001563015267356 -0.08100311931694436 0.6552698090234262
Ni 0.6295458667616354 3.1933465965270056 6.375017532517292 2.3837412174960364 -2.732032621915837 0.6115502566482887
P 1.4054097256218543 7.6490318511141675 1.0813097158826703 -0.7160524875284379 3.058016363977372 0.8382865884707111
P 6.087062131931752 0.9774956613014025 8.886294374612504 -0.25697970408799614 -0.5785810008111197 -0.3424642562150618
P 6.560455252762028 6.885175347692281 2.5345258905739882 -0.07810522894385905 -0.8760859187066719 0.3764460124771452
Ni -0.023924416153445833 3.5737177249498298 4.31223273788861 -0.018386987147619948 1.2864265270487327 -1.1891886910404812
Ni 9.085123355135073 0.06586170821384175 8.730122279811884 -0.7714944705468261 -1.4935903360558664 1.254871120839955
Ni 3.3850754634056375 7.824000911714158 12.017030794336186 -0.7561681246024009 0.2781054303230178 -0.2562626234163135
Ni 7.758454313656848 8.584402259910927 11.864202368418754 0.7650546284587534 -0.3931440419581165 -1.7269984234715094
Ni 4.290399842364769 3.893748022521187 7.454659560144639 -0.10133128935133516 1.0167753981406555 -1.237439555627069
Ni 0.3488849898873657 3.5294272418374466 10.519142687395632 -0.5143916106174045 1.1477833886208169 -0.31087979654056136
Ni 2.7001439190727186 6.147863650146568 1.5102944176355453 0.13048631364873656 -0.8050748776054328 0.5883416797423093
Ni 1.3145437500748762 2.381716813525816 12.237056000446445 0.6787480946510247 0.12176667438755158 0.4232256918348453
Ni 5.4544554583280265 8.862519221164783 3.0582933318370347 -0.7622320714082937 0.7387046777103149 -0.004638012992643626
Ni 5.754666985528105 8.628158345681825 7.292931575742028 0.3643086057836629 -0.2730946073719877 -0.03190867578313859
Ni 5.7171393929096865 8.099823649898536 12.379527253061065 -2.159391897848552 0.7031568625126923 -0.33087989381157207
Ni 8.19546234652981 9.060237023766954 6.547669335679637 0.3879380722771448 -0.10535840823285725 -0.01064128176393006
Ni 5.207038702967754 1.7167606732677148 6.804684051567923 0.34490140490164467 -0.16360880723431823 -0.4617181914830886
Ni 7.698933506312143 6.074568290637726 11.0803446624297 1.217477253572529 -0.9083218959222421 0.28753315139482094
Ni 8.26290697652412 5.921417383565948 3.9832872184617196 -0.4075787293262078 0.17929125096658155 0.6186197619005604
Ni 2.5198953812887472 6.72397162550916 5.0822670588530094 0.4968440886519443 -0.014457313075910585 -0.3051953445612744
Ni 6.7793646740782565 4.107037058004557 13.841530578520905 0.6567551353197012 0.03576430208380292 -1.9016051244782284
Ni 4.825626421103761 6.962911733383808 1.171532571870413 1.072557795217598 0.16646890239093265 -0.14433684637858368
Ni 8.665732007036578 4.249721148181043 2.134054051113516 0.6399090102966399 -0.21403893886041203 -0.6422415150845584
Ni 2.004975901526183 7.996205848134054 9.67860661509374 0.9897119662649602 -0.4457644963673097 -1.0424794877749788
Ni 8.801081954388547 6.567494555674003 1.7292674138079163 0.11909092732760135 0.04084017394481354 -0.43131489660088296
Ni 3.3341787235028284 8.02528443450865 3.1943997278396217 -0.45667240152906513 -0.19547300293276657 -0.35929881127389734
Ni 1.8003477884737766 8.30180741748532 7.193572367964346 -0.635830469351892 1.0271284592402052 -0.5152891827310093
Ni 4.697260494180166 6.451585615055367 6.700038916983174 -0.6393868192445826 -0.24325027031704557 -1.1158178914578138
Ni 8.88167460173284 2.3826105470107133 8.572965235428423 -0.1034208248905122 0.6395652538039759 0.023918715599126547
P 6.060895089693523 4.3050497005192705 6.164647412168102 -0.09701749246732969 0.23861611397914387 0.7226555946672522
Ni 4.505559268543336 5.755975337640017 3.461501654235801 -0.0841357514086551 0.5413709674197257 -0.06701220435449104
P 2.657134146830446 3.410542260851576 10.573583034497323 -1.256734399300939 0.3469264057514735 1.5088678310402273
Ni 6.429362056647406 2.994919335385278 8.288115789046582 0.7026110173115512 1.071058327853936 0.5793119654398733
P 3.5785825835067966 0.8831275404182447 4.195531415005014 1.569637396919116 -0.9382130270547195 1.0050735363226948
P 5.209885750873252 1.2912882519730133 12.979701536285013 0.5441315608839984 0.5199891593098399 -0.05133104617380837
P 9.216050703798889 7.659332820558653 5.1683575491915095 -1.3915309102892552 -1.2473347032535937 1.3886970403848857
Ni 2.8174994180122703 1.8756148898977538 6.473135648538111 -0.048601048837155006 0.04398797554517586 0.11949844717866517
