# total energy = -340897.0489692729 ev
CRYSTAL
PRIMVEC
9.03468054725435 0.00000000000000 0.00000000000000

0.00000000000000 9.03468054725435 0.00000000000000

0.00000000000000 0.00000000000000 13.22316822041953

PRIMCOORD
 96 1
Ni 6.265108282173575 2.038820227535878 11.427303415327998 1.1954094751392121 0.67954667929292 0.029519092505039483
Ni 4.660088242637375 0.1414993602918535 5.949804254243612 0.011951515934921352 -0.36217021928442145 0.012769126740210267
Ni 2.807319192264411 1.5975122199750689 4.826879287742022 0.0611904554663914 -0.653573652267926 -0.35630604719416054
Ni 3.39030002598419 4.216133073666925 4.7463369173165395 -0.25993878671632004 0.4966551125695899 -0.012450824168843072
Ni 4.972091901751836 4.627509184469576 2.511291558817759 0.582784497369506 0.34764991418105934 0.31326732293613146
Ni 7.222377862919296 6.203636315514202 2.672759370125272 0.1748697248601182 -0.7085083566325926 -0.2583516447348583
Ni 4.801571340504186 4.404424851613427 11.475052605655959 1.4443066593293903 0.4477568442069901 -0.5772370851887156
Ni 5.601971762357095 7.790704444739971 12.388693713885791 0.8235510820327493 0.12649210488767892 0.5131374264953291
Ni 1.857024384925662 6.565068712076257 0.4343305237496633 -0.020126595546545986 -0.09474129483864328 -0.586509511629577
Ni 2.6591594654497346 1.5371424843463313 0.40042969181316035 0.3557938834444324 0.4948707669756574 0.29085501667920227
Ni 0.49114962991086236 9.106415942776106 4.787593786180447 1.0183771954101366 0.24795333221966978 0.15204501365611878
Ni 8.708655095605977 2.403324415494786 1.4947734463031512 0.02658623512896066 -0.14884758976474366 -0.10672880621782263
Ni 6.998082882865564 0.41101382011143434 4.709245939667599 -0.3381789985761466 0.9080768697909716 0.48228598833211134
Ni 0.76876277740144 7.55815176663705 2.566153753165551 -0.15577696989472528 -0.3767946540658156 -0.04240494732877213
Ni 7.558007211747788 3.8334601430636894 3.887016826067819 0.27221143343608606 -0.08261597233001901 -0.14525267332463374
Ni 7.677409550279575 3.7542802024695177 12.730433217189844 -0.1674279238700923 -0.2365396910660894 -0.5997494073586187
Ni 7.895100178830074 8.599037316141223 7.108232805016417 -0.5074174932924165 1.085266501033518 0.19287053231291298
Ni 6.6046496476927645 0.6761039968514891 0.41312703189885747 1.3983682449260626 0.6932300903172836 -0.9006785204443714
Ni 1.7436572130206334 6.743277786496618 9.175807710431013 0.56449752613486 -0.6106922795233676 0.14195780462344584
Ni 0.027952398243303166 5.003586798250156 1.3608487622087138 -0.1911054699926902 -0.8662301089585145 -0.20721111730530123
Ni 6.393626613409551 1.7815215593271345 6.972246406813857 1.0766234806465393 0.5666423403920048 -0.5298503683746358
Ni 3.4809178721913496 4.5057307249455185 0.4244303207712182 -0.26689156388506935 -0.3216177517833557 -0.14751395855498467
Ni 5.852413108006393 5.579647066646437 4.740121960546261 0.15580550913981553 0.43497409062002507 0.43475914639574165
Ni 5.28061720884339 2.7665276094503213 9.06658474650756 0.3590527567013623 0.20379257854205543 0.6394876064885051
P 0.2700375678251037 5.586115897940986 12.355173242001662 0.054930076378976365 -0.19705911647296384 0.0875064676531009
P 4.032855543441757 6.222446520479636 12.468165474662664 -0.1566128355324593 -0.22945193098137256 0.5216050976467081
P 2.4775714204928354 8.57835693229594 1.4459662948793908 -0.4414139327080978 -0.45530817419168684 0.0020178017609771702
P 6.411171963093929 7.567078031049083 5.804110995226997 -1.4101492967213907 0.24049867571383743 0.06304422084567853
P 4.672131471849153 1.0725521049334934 12.591378641462665 -0.03199892150409973 -0.14591627505056162 0.4246341421465978
P 3.9656646239758895 6.073708574107905 8.251323178570289 -0.5248711699924896 0.3859596083945353 0.3466878073781061
P 4.719256365749108 0.9609828344636816 3.8877703184281063 0.19261419332773277 0.1811499014418751 -1.3615299930517908
P 0.12966754260562258 5.507631627751396 3.5967153731721235 0.45345518014334807 0.580593146145142 0.07014920732157597
Ni 1.6704672656503246 1.222554906586282 2.661810240731607 -1.136248905618656 0.05860983922340873 -0.14277952919379283
Ni 1.711520854201205 6.569793850019063 4.7612929275469815 1.0921372600114225 -0.30473717397793326 -0.2981536072231446
Ni 5.9552277729951735 5.609506685959963 9.254987651025184 -0.6966655983613936 0.18380456545590282 0.0350122544091268
Ni 8.635230246540614 2.5004833704411262 10.133257984788314 -0.18217757137544108 -0.7814279276104542 0.5184449547511716
Ni 2.377656887969907 5.149849242143247 6.991300548154924 0.004125335022283218 0.17901819981085298 0.10729187781014425
Ni 0.6116885312594845 0.2333531508022173 9.130716523129385 -0.8782713563937649 -0.8182348120261587 0.3358799181293248
Ni 1.3236620169456361 1.1534847735599876 11.571409280966886 0.1991262834146377 -0.5664973301737082 -1.574100317786476
Ni 3.992280792961562 6.797025101260965 1.6162682168570293 0.9869801691560938 0.6038019801614375 -0.375979614363688
Ni 5.52015369503386 7.681466121859535 7.9749324233620476 -0.016923772338532143 1.1520894721953385 0.30859948514681695
Ni 5.295416015631758 2.7647477773762623 4.886172089445745 0.3330576181891812 0.48782877252721146 0.2822294797937204
Ni 0.7226353122374047 7.297492197252928 6.924788133200538 0.6744954900222576 0.00011467120099335088 -0.04579906061198564
Ni 4.896001821915674 4.389617010144479 6.999551921927705 1.1406940858742032 1.062796602065776 -0.0543376942106161
Ni 8.289310396532665 7.172813605263017 9.341150496238848 -0.10507224445100613 0.14508478028820174 -0.18668625787907203
Ni 4.7738439058073 0.5194046899535614 10.37472608568657 -1.1317792998830767 -0.7161759004801795 -0.21305446345995566
Ni 8.213816605614717 7.212430679601841 4.758541867310683 0.0800114448276364 -0.897430702931035 -0.16192987686999855
Ni 7.22403120946525 6.103179702156535 7.255181884633512 0.1927311785215713 -1.0026279029956797 -1.2073653619495077
Ni 2.2189898276418774 5.309654672224228 2.4424906592727176 0.06464190435010157 -0.12016976221407692 1.413796920776307
Ni 2.4339790866992614 5.3348433616784225 11.112763721375016 -0.033516643700206794 -0.08292553315063782 1.0439848686759117
Ni 1.129154378760797 3.4331966893731827 3.807029185029887 -0.20448780483686718 -0.08015645504593293 -0.06933648161229349
Ni 3.7041196558950262 2.698035695981081 2.5119393454152714 -0.5243818890608969 -0.48793675885998544 0.40593656573709447
Ni 1.1167859010481747 3.459713476872486 8.077041479797611 -0.9868829814565971 -0.46323000014192484 1.0037748721159292
Ni 3.7794869612848694 2.4376019936114326 7.050567149284968 -0.30308781129996837 0.0394072981530289 -0.8912685399843812
Ni 3.9812765520163653 6.711683508511928 6.102109092507925 0.36433328837401124 0.6036731678930571 -0.8368161745727718
Ni 1.0928259281527224 7.458770280268283 11.502252415007034 -0.06540217955489382 0.36900292593553874 -0.6033998596270125
P 0.1163522303683233 5.555099839513351 8.120070049523056 0.943546266342175 -0.29270698228627656 -0.11598272071592285
P 8.53649925717353 1.6066372473598376 7.864254875865381 -0.518977430215874 0.28322115428302835 0.18006926678318666
P 1.761572984608749 3.27756528171969 10.356041462781183 0.018264859747458867 -0.5646690187157178 -0.8946202300654333
P 3.8950856992929057 6.1949178487554875 3.788688783454559 -0.28334199613160876 -0.5452420203393578 0.09743169718661285
P 6.73431538336227 3.9300589478141337 10.292504168141454 0.8974335311445125 -0.2753690052284612 1.4015204174017992
P 6.3606319599351195 7.767313656720994 10.160616804517577 0.05476064068064763 0.09107104507590766 0.45405784672435345
P 2.3897362559040016 8.423186293351975 5.794061720018999 -0.050653560490809546 0.15416154577848934 0.02062487533920319
P 6.984196578815673 3.9923078970032986 1.7288629235725552 -0.5648322837664596 -0.04892037984978672 -0.8179566186641074
Ni 5.29300375591717 2.9659320445089667 0.43559266862654666 0.17746756749428144 -0.3900751732248056 0.08988113853286457
Ni 1.616891609816979 1.0554584892780652 7.029991567734402 -1.729122411793048 0.266998778886895 -1.5041012628895194
Ni 7.000269275565676 0.7592899148143805 9.33925953759367 -0.13703414206958334 -0.6090598861262672 -0.6022279508060983
Ni 2.6688356083498213 1.5647705375568488 8.968019091795073 0.8893926631179069 0.7511963824194223 2.3317987629904744
Ni 6.2502643019823125 2.00986407628025 2.6493676786382374 0.4886101307779262 0.07849655084500674 -0.16626578524119104
Ni 4.248721166515303 7.12597782114159 10.476637282617451 -0.9042968339232492 -0.539787939203322 -1.644859133667593
Ni 8.282263345681061 7.129130924663654 0.30016822755599865 -1.2444859209508892 0.04604177275041103 0.6143406749092323
Ni 7.633943702014107 3.7783666608930755 8.235389615901202 -0.17062097688609323 -0.15739907887918053 -0.6981421829069202
Ni 3.2355540170274377 8.324753448444 12.52230037722385 -0.38957637921151617 0.580476932282252 -0.33341294464607096
Ni 0.14487652389227584 4.828928353297334 10.285654976794529 -0.2863077636281521 0.32716182153003653 -0.4071843221012664
Ni 8.660364727911332 2.5730679942126438 5.744488427682141 -0.10997276707641705 -0.9377224605715463 1.0321961035710998
Ni 3.389703737065978 2.585427437244687 11.56100313587602 0.4320052377996883 0.012869399763500416 -0.4632685666893441
Ni 1.051709096837789 3.398449307866429 12.44908422927986 -0.035809296389125424 0.49125965258563137 0.7265389888820585
Ni 3.021395948583319 8.357775205960168 7.9525986929708115 1.2052339174288016 -0.48332651378148384 0.005518101604751787
Ni 5.533001010817169 7.925538017700654 3.513567400867664 -0.059838055203555014 -0.5648299697736143 0.5012910686797044
Ni 3.0551404805458056 8.353872223950049 3.570823785568886 0.389070128999059 -0.0362659243105698 0.6270049006404621
Ni 3.4128596233899007 4.153513702574021 9.134392734656972 -0.3351607805751131 0.2663426333601348 0.07793836434869157
Ni 7.298431804033141 6.061258784270072 11.407349419801264 -0.3938017301467734 -0.7890869868176087 0.10802284243889784
Ni 0.6914602434315797 -0.08605442904671719 0.2880798249413248 -0.35133764744529167 0.3986785986231005 0.7310492180475862
Ni 4.60543745981513 0.24006049766405133 1.537286135767537 -0.6120310529394491 0.22404232993002707 0.5918435222479808
Ni 6.070302499529629 5.450622793298037 0.32991943070257657 -0.37527127544275374 1.1111245997472026 0.16355661384014414
Ni 7.99910742165528 8.518944872808573 11.46591492971838 -0.34403700001882037 1.2825166504713656 0.022570171991032093
Ni 0.25623076896430796 4.9378775663992425 5.847139564952443 -0.8217016875288364 -0.23554595969425243 0.03944663603139657
Ni 7.903918027075157 9.03964965329745 2.3631652603212245 0.5706995411805139 -0.20499276949774373 0.2755932054241254
P 8.582015977930427 1.6730421496153336 3.6709497296173628 -0.054789179925737896 0.4457094747596582 -0.4691607638040629
P 1.8091134738153365 3.424062627307835 1.412975255277191 -0.1444476609248351 -1.1125029681519678 0.5785167232320875
P 4.808491905827683 0.8889538435477714 8.121855302405462 -0.11618378098313538 -1.0176439167885378 0.399747406207247
P 8.415561022943317 1.471288697606153 12.477407952894959 -0.6174586517129237 0.9136654196223426 0.16027382932381432
P 6.354009539070728 7.75124999465157 1.4248621845149536 -0.3939122875827087 -0.4690455783824374 -0.714255286418699
P 1.8786895489540536 3.072694864910762 6.097506826220993 -0.07856725618194212 1.3891847786545817 -1.1959707469593208
P 6.877948735206879 4.047148408117701 6.042128751612141 -0.12178390077873222 -0.24546527569049334 0.11328666194099844
P 2.443266738334452 8.756629249480353 10.15623950177706 0.5609630306190403 -0.7892844475403955 1.002520430883538
