# total energy = -340892.5954898345 ev
CRYSTAL
PRIMVEC
9.06246169970420 0.00000000000000 0.00000000000000
0.00000000000000 9.06246169970420 0.00000000000000
0.00000000000000 0.00000000000000 13.26382874518613
PRIMCOORD
 96 1
Ni 6.3482364032711684 2.110031118213661 11.85636446782325 0.775573011491574 0.05269347373897377 -1.9474134410615946
Ni 4.46944306170479 0.5887491780190576 6.065203938394063 0.1429386804794764 -1.3654900061408033 -0.21784340020816675
Ni 2.7152313832349053 1.6719698371517278 4.589762648991706 -0.22958382857354656 -0.14314488295301153 1.46643665845921
Ni 3.373166113780156 4.482918942480558 4.7859613231296185 -0.3091211619782418 0.19194544939548233 -0.05290224731567018
Ni 5.038846602405735 4.821827828406188 2.3501646074160822 -0.4958418726396751 -1.1328249675387716 -0.16481388328601293
Ni 7.089699844717735 6.117442687254697 2.5843775902897823 0.05891605760991789 -0.7548602044242547 -0.5816138741001726
Ni 5.209764632957848 4.3212536854806025 11.555978294743374 0.335268509797571 0.8272820098300914 0.12097246062103037
Ni 5.697397580357006 7.834017961648073 12.470107915633545 -0.737841044158439 0.7623858233773386 -0.9763350307374218
Ni 1.9154509997627367 6.337551760746199 0.3891593306556624 0.8379207204908602 1.0277802338915913 -0.6447177445391928
Ni 2.7007586316552805 1.6497486806875825 0.3211056796149392 0.5848596347309799 -1.0317456462972425 0.8750459074779317
Ni 0.7137468081146165 0.05427599028524187 4.897469478756629 0.05373194230581713 -1.2030734194423731 0.08827908415306732
Ni 8.538116872873731 2.121730756466194 1.3167430824131532 0.2490722763154614 1.0126140676741142 -0.5362159055813475
Ni 6.763016219832127 0.9706893515624286 4.967105435636928 0.14514700098470484 -0.5135254059623673 0.21907907238748078
Ni 0.8687167182973974 7.163459221741259 2.484659697533837 -0.49261950904763546 0.7965596410455701 -0.12445861939741792
Ni 7.381647053319874 3.753155139286524 3.9259735680892622 0.9321251689894269 -0.24644306622273043 -0.5856970430306107
Ni 7.554622262712673 3.991198824785589 12.865117971661657 0.7000460847978525 -0.8849731938939728 0.24673900019659442
Ni 8.182523994676284 8.677488473714714 6.985289409214182 0.23412645363890647 2.0045515808354835 0.15300737756938812
Ni 6.825601581390605 0.5942065925470789 0.3777125350888345 0.23008236547651986 -0.24631219707182095 -0.08886992365953082
Ni 1.5786717923726181 6.51229415020038 9.302320749848633 0.9966215489005996 -0.13001862998369867 -0.12595114478254438
Ni 0.3901770451217813 4.9173643012630475 1.4934012763031088 -1.7174886842088615 -0.5449489145789712 0.7120510796785285
Ni 6.208239492562312 2.075929074259917 7.216292468099465 1.861215922027904 1.1022573791645596 -0.593979594754377
Ni 3.3940732132755813 4.175012738554863 0.33839504433855117 -0.02182712317742047 0.6945300400756297 0.10028613591627245
Ni 5.975986720187467 5.556086612679429 4.571140196129482 -0.48563330753778944 0.7022284371611519 1.2856531392178179
Ni 5.05913745449514 2.6995442617669463 9.586140742660787 0.9561760392910437 0.27396929666745723 -0.24790499548023753
P 0.25579432953100656 5.330947872859379 12.618835602091812 0.09299448735086566 0.7507173859004749 -1.804480417009073
P 4.044440788173376 6.037058650616454 12.467521489020628 -0.3569655351550304 -0.22111101521584497 1.067670899438942
P 2.3805365420710323 8.417595192687486 1.4586893286666425 -0.2512227469995609 0.73848716238287 -0.8446480119123647
P 6.344457356678367 8.149110697823387 6.028052376026704 0.008277923738076067 0.025820817717845855 -1.4079723436747302
P 4.700327402339794 1.0062232644889841 12.675259395836273 -0.13967543634717233 -0.4794135518803228 -0.34885241912959275
P 3.982879484804314 6.262052391046853 8.213347239931526 -0.7870663568431542 -0.5294094241824754 -0.7671675610366981
P 4.734492883526511 1.2290238891508984 3.615441062718498 -0.4060484087246104 -0.20987760839387082 1.4489549567346787
P -0.2759401822307599 5.617856352671115 3.650205572633714 1.6141884440566134 -0.6338831158175341 0.719567956880864
Ni 1.4434507990604188 1.3581458456358673 2.4295490545119116 0.020996656856325128 -1.6609696660762103 1.145972560664323
Ni 1.5850064532080332 6.5376418560038925 4.653057601313292 0.7808579140395971 -0.10415590328432385 0.25524318101286364
Ni 5.85229317835259 5.60783326986143 9.212989344622686 0.8846469209028055 -0.42009357396376684 -0.45925713153710584
Ni 8.490049575204143 2.3419032671906685 10.069314958828148 0.2865005963652485 -0.7951820439717531 0.7541343820018237
Ni 2.406953618373228 5.345185000430819 6.827025294147749 -0.24338165368858727 -0.05670053801583783 0.5512098078870185
Ni 0.6535484990082822 0.1535987597043856 9.231505766681227 -0.5927050989173277 -0.4470459341828946 -0.2669985217765789
Ni 1.7384611197689523 1.0790763953271834 11.400566136422155 -1.386797766479644 0.3370816517469098 -0.018133990596549413
Ni 4.108059270383124 7.007557690479965 1.3161594598698045 0.07139644946511574 0.48711092052458044 0.1827586406898917
Ni 5.582811812684634 7.966728653026925 8.074156888327607 -0.33171678789057063 -0.659234192987813 0.9426571788690024
Ni 5.158443911482948 2.8769963273152457 4.975448338019022 -0.15570626455778988 0.26386743234676496 -0.2161513572177245
Ni 1.0572177373371676 7.392440445387083 6.907987515852228 -0.25752297818597586 0.4787833744954915 -0.022364483738129225
Ni 4.8475924074549495 4.624782720331182 6.899698081995068 0.13694235368672542 0.4125694976725797 0.5629666913126304
Ni 8.211134186746964 7.201068438432206 9.434919972946691 0.674764170302612 -0.36287444444029765 -0.9649699834335899
Ni 4.709725175281605 0.23879496358669827 10.482217939539302 -0.0015508894268876515 -0.4334759088079438 0.02259305480916754
Ni 7.943003127895142 7.387845777227491 4.6202025521105545 0.3941534570592373 0.569650016870077 0.18842175251294002
Ni 7.433248711112224 6.5180216260916275 7.0539167140902155 -0.8094490954137286 -2.1894329242953323 -0.15948424354298338
Ni 2.5910937807692185 5.303497675905913 2.566736602046265 -0.21984191869543426 0.35371360387663603 -0.09303922454587203
Ni 2.2340780960608146 5.088463581052226 11.44323583181195 0.3375148826295865 0.5121953742970341 -0.015271581447089828
Ni 0.992946757873987 3.6994147404968087 3.712625091140277 -0.07287637644475192 -0.29960190963389693 0.9179257375605934
Ni 3.4537948368884352 2.9265589311906175 2.7908023463828915 1.6200348755350618 0.14327343811107582 -0.45206267067119565
Ni 1.5902898684684723 3.4778556731087886 8.192721982999736 -1.6080712754152824 0.04511077629570941 -0.32463339868122804
Ni 3.7058490884126094 2.6211992790456833 7.095471726672065 -0.8712987817306737 0.11908809911412394 0.08164949465169163
Ni 4.530415305053391 6.944936079074075 6.138738566363625 -1.0789418443670709 0.2669553272434693 -1.0132409026248357
Ni 0.8488826142853956 7.399862601644887 11.555818795414757 0.0429055411142745 -0.356902800237895 -0.09831307135030165
P 0.20866137167848875 5.641862814120349 7.856723053575181 0.3789525809490828 -0.30552598842781575 1.2124638595183377
P 8.360066684843117 1.526780135800964 8.028847297799961 0.5192078010591251 0.5608478451974148 -0.6658720100193048
P 1.8376225773671084 3.123703726346008 10.301101014417553 -0.10330769635141562 -0.34648700422120976 0.9174395419527942
P 4.20711197843904 6.343777672039375 3.5999089093482297 -0.7694494150923393 0.5778253535920178 0.9947798677061708
P 6.941021095553474 3.9232666107336995 10.201635058101125 -0.3053647802596031 -0.022476069615329036 1.0417670350889865
P 6.301129726558026 7.474636974395974 10.332854068258934 -0.470704454142099 1.0190593090788256 -0.17758892356349415
P 2.6272711284873544 8.410227411200802 5.727454141339463 -0.19284764949477756 0.1122890739144195 0.3603244243249343
P 6.82217597081008 3.793329032681939 1.6718257440082613 1.062336631710222 0.30868998797809416 0.35721030417598476
Ni 5.228542053917763 2.777282059544042 0.7531358923135405 -0.3000335978546768 -0.10302230390051288 -0.4983121885570386
Ni 1.581562717703802 1.017197905793258 6.921344678377719 -0.33870890293768763 0.7262890776547813 0.565439321222839
Ni 6.934151749468718 0.4497645442992073 9.310876620084278 -0.14283686479428948 0.43250788846771965 -0.12359575717649036
Ni 2.850733312864555 1.4465139111668142 9.193717113245587 0.06344608426978751 0.2242611308090525 0.07610619623595925
Ni 6.596321296503624 1.7177805818198577 2.651386339478827 0.27101252803197845 0.10312231981348692 -0.16612925966332678
Ni 4.08108938390788 6.692455891842798 10.402025120846162 -0.33011396217982497 1.100962057391904 -0.02725240795804984
Ni 8.20709232876042 6.896479095544797 0.4599135953286512 0.9217147722893804 0.9927486962087547 -0.47847792743993084
Ni 7.73847242632936 4.005064391421047 8.156127762036352 0.27520548306740344 -0.19035265098706572 -1.0297625544289426
Ni 3.264470946312391 8.24311561462705 12.267423237547268 -0.5509259580980125 -0.09288752945935615 1.4380948740917234
Ni 0.14906390379302414 4.617460251153765 10.233203237720703 -0.17687929909097924 0.6347634615399584 -0.28397860127434316
Ni 8.505528260049477 2.517696902219825 5.826189663230517 0.36821899658166257 -0.7806481120216362 0.7666939638343893
Ni 3.6219850664227233 2.6328536049889504 11.57802273320138 -0.0791642663359927 0.14977935755039365 -0.45727249700690925
Ni 1.2431703921038066 3.2630662647251385 12.677302074737993 -1.6173293036784404 -0.08932937979445262 -0.10232964870886248
Ni 2.974916227639508 8.325321206097794 8.127451413994143 1.1019349628281345 -0.42182444061194446 -0.5133426005275998
Ni 5.7282733878909955 8.157547849808754 3.592946219906385 -0.5488809026435257 -0.22989853160048795 -0.1441257588090421
Ni 3.0928188563501653 8.491698943261433 3.5844175370563005 0.5742931720690433 -0.6491037894220305 -0.4238131889071991
Ni 3.4252480820507283 4.472560548582305 9.384238155032444 0.5787974876973 -0.09643616604256296 -0.3270615485067464
Ni 7.409341936743377 5.912041989351003 11.403682717053485 -0.03593887998845424 -0.1774076607906235 0.09578259161896407
Ni 0.6642340477794378 9.091099232696605 0.19769216785132662 -0.38586833423230965 -0.27926062697338355 0.30250751331646614
Ni 4.587409127648419 0.5660069299983509 1.600175201857987 -0.5703740395202951 -1.5762124790334724 -0.15063142113804381
Ni 6.057875125493347 5.791058123610245 0.27269672713348514 -0.688086341332815 -2.17443979332061 0.06108966822246899
Ni 7.857689112008737 8.64562485783872 11.437147669938945 0.558856782909315 0.8520540745684488 0.7583106248667005
Ni -0.00760884297198061 4.909670271149647 5.748808926450438 -0.16404538055110457 -0.07336077228033817 0.4261590634315564
Ni 8.005126303899104 8.7023377441163 2.28019787067814 0.28298152746839655 0.006040292656808953 0.4064451299423968
P 8.630626483471607 1.256673460265135 3.714256334273861 -1.2542309161527947 1.7332066091647504 -1.181502635250133
P 1.743499848559354 3.3083060742965142 1.674518201424859 0.03670943960589162 -0.18759000064026404 -1.4151840309318207
P 4.867276074600189 0.943701340163479 8.289627793842621 -1.5237568323369177 0.057164365026133805 0.8102795617348238
P 8.594856946536868 1.6682270404063395 12.328728979492068 -0.25156418949937964 -0.6576979588489447 0.2992807788490523
P 6.258635842928181 7.621648230579239 1.3419149764567138 0.24050047548605033 2.1314404069409485 0.2689253064856465
P 1.6774707514966445 3.111976900707915 6.029749775131815 0.6318282901710345 0.4461460480764446 -1.101430255277574
P 6.715420170178908 4.12813262338805 6.084927480371455 1.3585202596911894 -0.6780127591468968 0.04637164528600401
P 2.4527915504269178 8.4176314425349 10.257940133595309 -0.4233059102534774 0.06627918284320843 0.11867517994642143
