# total energy = -340859.78630770155 ev
CRYSTAL
PRIMVEC
9.33636569258067 0.00000000000000 0.00000000000000
0.00000000000000 9.33636569258067 0.00000000000000
0.00000000000000 0.00000000000000 13.66471492539813
PRIMCOORD
 96 1
Ni 9.03888094785592 7.531972873124925 10.898047294400016 -3.5267534099804547 -1.7475165980295195 -0.3249064498369566
Ni 6.387763927817046 4.849065528341258 8.108778205840245 -0.8371879560898937 0.8523150415393191 -0.29806156172997056
Ni 3.2308399669928876 8.516436603635917 13.03985436929406 -1.481475040849571 -2.147275574200992 1.7743108354042283
Ni 1.6288783544566843 5.955826311372672 9.772662329341902 -0.8939679411934153 -0.043793600146182644 -0.5799624545396785
Ni 8.54766674644688 8.635596637326898 6.574162599025516 0.30853417912652026 0.36326602345176146 -0.7135608314548356
Ni 5.4366216860033125 6.115114044256933 4.408032424564615 -1.705620986236998 1.5274605064407498 -0.8185921953655773
Ni 7.276669956782383 7.720782193921972 3.4870849226208196 -1.3281820137189642 -0.9028138216198193 -0.8317408169323933
Ni 4.061244329335355 3.0777889263052556 12.492815237269298 -0.22648384949198416 -0.37247597208580363 0.1299821203188084
Ni 9.254401610531044 3.670881548746653 2.419570485873461 -2.282557509466159 2.43095104241262 3.1330493817538105
Ni 9.321063260656688 4.643488094991598 4.73364844360481 0.2060412653669161 -1.2894529725798825 2.4260718599434474
Ni 3.0121729491227582 4.375581085137905 10.730818048967173 -1.7108508671773694 -1.145689739316582 0.9178534895617612
Ni 3.856936641702374 2.1430693515182746 4.459493537915812 0.29856575505989874 -2.15141453607003 -3.1424999856437488
Ni 7.593023367546717 1.2952433310337272 8.054967129276637 1.322881170331341 0.243724895960619 -1.3669457647507233
Ni 8.387949540746684 3.6719178853242362 8.460371728425203 0.857849341093987 2.7362371469154874 -2.0456972018358575
Ni 7.718718857132369 8.212453877243638 8.754094722699405 -0.16039312851049795 -1.110595723826926 1.0777959036880858
Ni 6.190327805239034 6.776408817142006 1.4415591176036227 1.4870854450578133 0.5206139373780325 0.3015829446196677
Ni 1.3439044683523351 0.2528259785584623 6.342996988575106 1.4927804385600614 0.4895149019803828 0.12136789628723614
Ni 5.946966100452611 1.4072610450683891 5.767015123302513 -0.8368822519240168 -1.0598444614159874 0.6135168934563563
Ni 1.0049850620202585 5.581055261275543 12.155528761274333 0.8230106361482471 0.8961973447445661 1.68086357678666
Ni 8.359408271218099 1.962728114287609 1.3053667522145729 0.39311447427176166 -2.0931625944066727 0.6384033722853909
Ni 0.5427612093234231 3.8611099971093994 10.71921761475413 -1.915327616270643 0.5062319576247476 -0.19309216140541582
Ni 5.444501578539173 1.2326056544660873 11.600878624041947 2.4191152261199567 1.2156054904711129 -0.25537482149472146
Ni 1.9480606839868544 6.140424931300438 6.184786672276909 0.05743613063028173 -0.010649252183730046 0.08734371682299151
Ni 7.9766546285639075 4.445837236005619 0.18795691062107017 0.8604610676852212 -0.6499854206960354 0.39276814667593646
P 3.702475809814606 2.534776568748166 6.384947146326442 0.297908581091874 0.7835064074060377 3.176070365400027
P 2.2327451427587253 2.511062200216074 2.7422623552190695 0.7348194837232958 0.2994805535646842 1.534392457673893
P 9.07452719157857 2.1074044350644985 9.470426436946614 -1.276667133669124 -1.0053465874784233 4.261140177041707
P 4.947433475921621 4.280135419979016 10.165631823196021 1.2217550550122767 -0.34580360500094 -1.1381391806628334
P 3.2391213232479923 6.320719486703285 13.006977291597641 -1.7274023437781476 -0.18616458104764713 -2.13290670707383
P 0.7069561359480258 5.621164287737696 0.8510041193224703 -0.03919852457633249 -0.5394788926033354 0.037749193724315636
P 8.032654149215674 5.624198606545935 9.42102866038502 -0.20510872625031773 1.1796792088881491 0.23178957797561367
P 4.334482403925987 0.916750805622861 -0.2877243793994493 -0.3147302806349031 1.834248906520757 1.4906078563887748
Ni 2.9675544580932827 4.278492219639784 4.283423687930592 -0.7765410318317981 -0.07900280105746395 2.772815203149838
Ni 5.582082261487563 2.614901258016833 7.745884880013403 -1.5262698285667584 0.38476867341022764 -0.6978009975174176
Ni 6.581642895115245 9.310037012925822 1.6691862455053461 2.4686534420594004 -3.0196912431449285 2.82725342749406
Ni 0.9645866082256276 8.634196182492325 4.199275958740476 -0.39681377750021984 -0.42826196870717215 -0.027933750295790604
Ni 4.195837375303323 6.4278356088169435 10.844645150648102 0.2811017939471804 0.48163138546724793 3.906638530046136
Ni 0.5035858194176521 5.860455337138294 3.059515791623755 1.3654799788384742 2.2096050283678332 -1.185859626667248
Ni 1.7787363581214912 7.66256995463158 11.183010910502244 3.5714983182963134 1.861033373703453 1.1470603944118631
Ni 1.5899083645933172 2.788641684793881 5.813393519240767 0.9288963776394841 1.2859161630712177 -1.1208109737970309
Ni 5.285307209310551 8.642188111414951 4.947022675836813 2.1080546810271565 -0.3600351752192896 -1.128756711006669
Ni 9.00234774940471 6.458141451437089 7.469925254860918 -0.13766740477820807 -1.1686818293363808 0.5592375632875014
Ni 4.206126050154649 0.1267187552514461 7.031903128978606 0.3674016428866898 1.6821635265450063 1.053211272370186
Ni 6.673101932178384 2.925410103938218 9.797955477290834 -0.48374123272139913 -0.2457709798563703 1.9369053424414189
Ni 0.4356310826614189 1.8292647685528622 4.0399452785746215 0.11996510240243854 0.18954326771189292 -0.22661060487783555
Ni 2.776084273110549 6.54608067868267 3.7154636279504296 0.08542644519562062 0.15483260370358495 -0.8230705428519051
Ni 4.587983401714713 0.7099857865734839 2.0134684602172785 -1.7773529646646613 0.6357271110048084 -0.6415048940288499
Ni 6.991191906937587 6.663756230249004 6.0643596937789175 0.19201898294589512 -0.16697489549307373 0.1291637381825711
Ni 6.440757138757265 1.4659307662714076 0.26098409478812445 -1.1354408078950637 3.01865508857093 -3.4088310490396583
Ni 3.3949079190458225 0.5023506182535592 11.368632796095804 -1.98775404966217 -0.11778043604629394 -2.0759845399654893
Ni 5.392610058735485 3.999148161970416 3.475743105733896 -0.0389414142602039 -1.2101280122963096 0.2980222238516028
Ni 4.4453517449963 5.194781808803793 6.2672940020374615 -0.5777309941059985 -0.2953513618876591 0.9854346790458448
Ni 3.9195649819044505 6.779816590572798 1.211959215658265 0.14345958597995295 -0.6661879985978268 0.6678764420438433
Ni 2.884134031780589 3.652591608607138 8.301683390210139 0.31505423963322515 -0.045759208512985705 -0.9084404237779775
Ni 7.833397435352717 0.39064567246528525 4.017112262951754 0.15476858323486894 1.1953945627408766 0.3299355276204318
Ni 7.5340548826456555 0.4100027591887445 10.979106553861621 1.5828698364489902 0.12132907262950073 -0.1802577286449089
P 8.908423911832722 1.5545142027408916 6.334962112370886 -0.26320434484146926 0.4066150798613577 -2.710226324674023
P 6.641451652917048 4.687518394990554 1.8053272608837951 -1.2393244313546075 -1.0969107701406655 -0.2176037733935349
P 1.149390628195797 4.9466305484831326 7.96825003228336 0.1545739507255596 -0.6784842994666767 -1.3491401040278699
P 5.886046315148713 1.5608909404209776 3.415672929696305 0.5533206835824342 0.2263300975229392 0.6582193785700535
P -0.5192232981004872 7.343471652391485 4.835299990953969 -0.09332461699677476 -2.1906243735002726 0.3873022384653588
P 7.41363443960356 6.530162175396364 13.106183644805634 -0.202176125984555 1.1638424989662084 -0.054871712337215175
P 0.48637422950075765 0.07355655609452263 2.001894167827816 -0.830196612373725 1.153334143235717 0.11277784062537996
P 5.223341751063505 8.388117595326833 10.820541455671998 0.7943556914157158 1.0419884070711731 0.0028343841250015704
Ni 7.320756274974721 2.619317358928518 4.583145297079544 2.438411612455723 2.7678856270587042 -0.08006312400117824
Ni 1.6814420925809672 0.9040197375400418 0.2560563610435425 0.563139726555385 -1.9930032138762515 -0.2178063763226442
Ni 5.9148583392786485 0.5260659204222077 9.184901705274 -2.1611680159123683 -1.2337513081422042 0.4667992055504219
Ni 7.84595484703605 8.900207910136565 13.35311837669333 1.8248713219605992 -0.2756235444414285 -0.7388843978212889
Ni 5.259576185816675 5.584220289201676 13.138554691488496 0.7919049158823781 -0.6201495682815256 -0.1906899797218264
Ni 9.009060596245092 7.569570417250411 1.2718211907437826 -3.8442779655310435 -0.6625817693038073 0.29819705886657033
Ni 3.706779874339525 8.049058143511298 9.278778861018168 -0.94538357666123 2.7775187792730938 0.7605593116915612
Ni 0.9274390769203174 2.221494822254327 7.857538475791077 1.343151747654919 -0.39764013005625715 0.45040328069090174
Ni 1.7900333604537086 2.12162371981819 10.389638308532096 1.2091941876281305 -1.6343471783926755 -0.18869043279329437
Ni 5.619885205655453 8.371788291955719 13.198911493948897 -0.1679837963735623 -0.8539237807873358 -0.7533280840504446
Ni 3.2103653173114397 4.599364431337005 2.216143217513148 -0.31649611428607427 -0.19130447337737375 -2.590013367926836
Ni 4.11682371353675 2.0320412922333775 9.738377327718457 0.06769020425812212 0.68108214210084 -0.7085456376284313
Ni 6.623432467378884 6.71610523196532 10.903226176378265 -0.42259705711191087 1.4756298949227038 -0.28174431262718574
Ni 3.8637428521983956 5.804287761906378 8.870353947609706 0.31840952925870325 -1.764823207628767 -3.588291221483936
Ni 4.961176606031558 3.2661127560929835 1.1106204365554957 0.4126921392933732 0.28322089717271226 0.10566256973683737
Ni 2.5345805050713257 0.22470577911680548 2.8177599417143093 0.09617365640979567 0.5278361661580845 0.16398753072997566
Ni 7.792634863301098 4.92895680847083 11.570036874038438 0.9869066356056809 -0.5530016096801186 -0.7873671759130246
Ni 3.1892744675027798 8.207533612591508 5.1862922515966146 -1.628879470409885 -0.24879254029151346 0.8883372252701992
Ni 7.501723048698161 5.480483931422119 3.5315502972550483 0.2110999108367461 -1.2639234608502103 0.4087768633993669
Ni 0.46508824965181406 0.10803762139480709 9.689799284053368 -0.31647451701951945 0.261878169830878 0.3442007792901943
Ni 1.129989660554188 2.9045153178063985 0.9974711550144995 2.181206422620482 1.2710181629134627 -3.3036528751384076
Ni 1.4443544254534293 7.900040412747234 8.165814996706153 0.784838753064216 -0.5552937481484049 -0.2587061998607996
Ni 1.802179972052233 7.7321818962753905 1.330246299169029 1.6976258838466634 -0.549191491905409 -0.05228132590221964
Ni 9.225514895476598 1.8763854055534406 12.638426128239125 -0.9576652222420604 1.386887755090289 -0.39372099750750905
P 6.427219408689731 4.294774841183079 5.832729132323431 0.07566268094063744 0.6844086353709117 -0.18753009393660605
P 2.3797648912921323 0.5650592511994843 8.603332025211463 0.8269660212515694 0.22004040785948556 -0.19330659140906709
P 7.12342285241791 2.955426519225886 12.133200843028467 0.18179936210041592 -1.6776592109167494 0.49773009080132347
P 1.860205484031348 3.678070550230791 12.698852019804699 0.33536646882801596 -1.2741106857958573 -0.8945659797887303
P 3.8425212932718424 7.3901534802105635 7.306345594726971 -1.2509599587110067 -2.1240664830743805 -2.261256433995538
P 6.456423560173347 8.691456112495207 7.023335146300693 -1.2495993309180542 0.7229558995164904 0.0629647737579948
P 4.48102599781564 7.833462789911664 2.9057467844242657 0.587673192920375 0.8740370065974431 1.6377238081743926
P 0.4074660686650558 9.294744046132292 11.967229206037072 0.29371176940170707 -0.5818465589362689 0.38293727662844373
