# total energy = -340876.55030128383 ev
CRYSTAL
PRIMVEC
9.21028031459566 0.00000000000000 0.00000000000000
0.00000000000000 9.21028031459566 0.00000000000000
0.00000000000000 0.00000000000000 13.48017622980992
PRIMCOORD
 96 1
Ni 0.6349889459304656 7.12169251094957 9.900703877696793 0.37127578113011545 0.7708658358238918 0.7077200564033425
Ni 6.4626877596637975 7.122125394114172 5.770054433684523 -0.29996932027564466 0.8717939761995374 0.3759999260786621
Ni 8.107339845907829 6.303506488731566 4.359300173611021 0.04906873250219291 -0.9813047160378713 -0.9295507233940314
Ni 2.856080227522531 4.93204973075183 12.204532947464433 0.5332516807467009 -0.21344012893414854 -1.2555226383810247
Ni 7.313496593988609 1.4726224745752132 5.701237983876946 -0.7385082454287927 -0.4363023225131454 -0.5478915421470628
Ni 8.094288879009087 8.988634707356734 9.910328620399115 0.22695333292923492 -0.7437090729034417 1.1555702316550875
Ni 3.33959230182267 0.8070213206833142 12.153160768162302 -1.737014412946615 0.36231934326777604 0.34639187340424216
Ni 7.280477739837591 4.980560276027537 11.497525137336345 0.7598550865356849 -0.6081828828379526 0.202279998552271
Ni 3.97460427345338 5.632629686399582 6.969278032805277 -0.7382531919951931 1.2468425941085237 0.23561075149391678
Ni 1.614000274078178 4.899546652286294 8.253345811159996 -0.8584550929987861 -2.670667074324162 0.23582775260072933
Ni 4.26097951253779 0.29126405576038145 6.263280590403931 0.5520942673745007 1.37503702639929 -1.8364770245203275
Ni 1.1134768124371934 0.6672470309453961 13.373803794678762 1.071955899967541 1.3845783902308217 -0.19274583380959062
Ni 5.038198208880277 3.5866304346088924 10.936102382659952 0.6988291816716158 0.6099669713215689 -0.792580601793164
Ni 0.87756193492522 0.9850486667518944 9.260624409956213 1.241396740502604 -0.08183512829993649 1.3104033495793044
Ni 1.2275000800493565 6.496894739947446 3.4658072172004406 -0.5958241041622835 0.11631516435467709 -0.2508594501228712
Ni 2.3982832552557647 0.12778158402242554 7.567002185459587 -0.5751542345177578 0.3471837731779182 -0.23784889679581617
Ni 6.256893261156028 1.082171070384387 10.75824542677318 0.1162046069187418 0.9983642426233194 0.09247641006386655
Ni 6.655919436118012 8.412108014347771 -0.18495439773022054 -0.42245718909993696 0.5939603114806674 0.43860680227660587
Ni 1.8429678373122955 1.0709713697853247 5.322135486822768 -0.46959785134148163 -0.4081153185559681 0.16562326656118573
Ni 7.234794750551942 1.9443085492296324 1.496569202829787 -0.4110157800322147 0.3278210523805902 -0.9162619767049253
Ni 6.231647883407649 4.256355951928637 0.763671295346467 -0.2116403567212484 -0.21826840356072733 0.4774176044962165
Ni 4.7596609181591925 8.3329824980266 11.345172368068706 -0.007366210557084089 -1.0026932090159764 3.4318923017344964
Ni 4.335905141134313 3.178992647755361 13.045628620397986 -0.9080581007378942 0.8397852845034247 1.3906582778763146
Ni 8.185746960381364 1.0492995807149355 12.495219518662674 -0.5976840401891578 0.562655844940431 -0.16197744227848232
P 5.15345565402556 2.273281333766889 5.507339483143642 -0.8615401596820131 0.17243103351163852 0.282214567395385
P 0.7617058215735725 -0.049960243363119335 11.270680543664797 0.4258487312799891 0.8836948414021814 -0.9346111686360744
P 1.6001848539313086 2.561084166266475 7.882304151247511 0.6358386968820081 0.06106704251464967 -0.44289463101868237
P 2.707619722624271 6.706548345816239 10.728319384679043 0.6369391290350386 -0.12900253001435846 0.17341782290494004
P 7.882470857317283 5.109706823560474 6.145948990180598 0.08703107067857915 0.03547351031626148 1.0885868236560028
P 4.2046770702992475 1.569229102522223 10.414271859040452 -0.6077481092933791 -0.011327766307993394 -1.4103459861132293
P 6.860010032807666 2.834095288928812 12.082052800666366 0.27005350655281873 0.3653113360165644 0.9103237568436193
P 0.305224998332798 6.351436786361106 0.7291051141389995 0.6518070472858064 -0.8923715432405728 0.8448562712684289
Ni 3.2933474854510485 7.795387658991515 2.226574161334353 -0.15320046741680066 -0.05127242502173105 -0.7942243080441741
Ni 5.077728731060519 4.5702883490660025 5.07339897838649 0.03173358365785502 -0.0036872190436001017 -1.420786721830579
Ni 7.233210582375101 8.417127617001134 7.746881718855857 0.8258468200454616 0.04636573174873305 -1.1286813776840434
Ni 2.8251244761134453 3.328889956348895 10.003031931640628 0.04678302179180975 -0.37202448637068186 -1.0841614408947973
Ni 7.934628673511764 0.667075719735575 3.428265194493337 -0.013751288147821478 -0.5829459626480348 -0.7592282515849634
Ni 2.9522539723049386 7.48816955604553 5.340805645609248 0.34879842596320576 0.14898694355608536 0.3416978103626825
Ni 5.191245433267298 1.1654504230297167 8.316513596183523 0.07266606020615873 1.4454726546130332 -0.08569821079976854
Ni 7.005864028438217 4.1250357782925935 9.323806010399887 0.7173719776708097 -0.5326901518162762 -0.16615702757746867
Ni 6.209451108371678 5.807164494255034 7.708975890084886 0.6389541025825383 0.6716636770004174 0.06069603232847612
Ni 8.696659617972793 3.2640680050197832 7.708423273279011 0.05932203479908493 0.6945038148233845 0.535307277724149
Ni 4.924994656196828 6.8756767192542165 3.9647621681407506 1.2162865756985375 0.9268983733728487 -0.5719930631809569
Ni 1.1399471574385953 3.8786699959535187 5.890890545485112 -0.632657213830233 -1.6887776894274142 0.4533646773120708
Ni 6.223727042523444 2.406646189584669 3.6735635053690645 -1.248230989815618 -0.00643264299922118 -0.7475109631480352
Ni 3.6499050588815556 3.319605994010199 6.924456204708783 -0.14247228236601914 -1.2748815025236107 0.9648033759487383
Ni 1.1243725737930246 4.029414650316061 3.362036833393274 -0.013817365499066526 -0.21863838530563634 0.29701332297111427
Ni 7.516371433705339 6.609287787982278 9.666930390307586 -0.6403422411793166 0.4444388355773507 1.3498286454544626
Ni -0.34163047247581874 8.38470743105648 5.162408967308742 0.6804331956629315 0.6262690509157021 0.664450704191746
Ni -0.11989482117458261 7.918326477738459 12.765214274592944 -0.8429212590292452 -0.3851108872409948 -0.7474880803298998
Ni 3.151960475667986 3.2876555323505388 2.065823458673438 0.8452277956752348 0.13376164196589865 -0.028946764941337244
Ni 0.648668053931886 5.641757073976614 11.976233129537414 -0.619057106548295 -0.2978759280817257 -0.17787020224933883
Ni 5.634177013456032 8.961040708183386 1.9972630546525831 0.7522914152558141 1.351511432473524 0.752433340150317
Ni 3.430866177592988 1.1497653160229706 1.1522677491255735 -0.15024524144321866 -1.6530573532076691 -0.043684585372144126
Ni 1.1128228825502415 8.236210085037827 1.4982270532474116 -0.5836974961020786 0.19264093280061015 1.9192922573453461
Ni 2.404785713004891 7.227804147957626 13.233273340944805 0.5994213345952386 -0.33634991578720785 -0.6519757116531868
P 9.43243205387467 2.045971620950396 4.0792358184497015 -0.9227843512044753 1.5858543729986108 1.3731272109710866
P 1.7467848822497898 8.53197059954201 3.834368548682557 0.1701250110862812 0.832467924906405 -0.1371218166873832
P 4.946205931262322 4.234463116135898 8.773195203530431 -1.2114798983385136 0.19447978578156183 -0.8291902825963978
P 3.799037914226963 5.339420419482522 0.6690467196765284 0.12978723069918294 -0.11127297394507935 0.44322630332648827
P 6.293329129223372 5.351108264926773 2.9579680300776836 0.5975153758217775 -0.06148381833709411 0.4042488936220263
P 5.103038580769584 2.4137565258202587 1.6994053593701057 0.8513634762593273 0.29749874724796505 0.5009930778233114
P 4.8458322987552656 7.832781396189042 7.317740691057727 0.053304882070727554 -1.841724646072512 0.9014467660689636
P 8.299245242027945 0.1059946664508123 1.070467567463969 0.4112518073024207 0.5290152740678502 0.07442392343752989
Ni 5.254713473422016 5.798175260879471 12.43269921633003 -1.147829925588036 -0.6317149045216217 1.013571289381061
Ni 8.016112021538001 7.53657878824016 2.278918025186812 -0.69697001697569 -0.3373225641131222 -0.07474402578110999
Ni 7.968236985589049 3.8051259093716827 4.407154946943757 0.3443874413797037 -0.23040221070978384 0.019290987019128066
Ni 5.573877309654996 8.486858647622434 9.351844866101963 0.5126679430580784 -1.8764741337385553 -1.5967147127518826
Ni 1.785615423142591 1.5004927821514982 2.8583229307263727 1.497450333231905 -2.024969739480519 0.4031276355333896
Ni 8.655462035094828 3.7357172385538107 13.35778895964451 -1.2114403033498298 0.6574452194081903 -1.2358110188847105
Ni 8.3320983111372 4.918823768531227 2.0492431124411747 0.2747678813093526 0.05732865851813998 0.5934329782222876
Ni 2.3598211255668797 6.922096530947697 8.351158064771822 1.653682645496494 1.8090099294483104 -0.3839389784200807
Ni 5.325411583453596 6.758374591927197 1.3330535740834786 0.28260614640684883 -1.2252566404076317 0.052417337259451656
Ni 3.1922554510963557 8.775444353930341 9.788198464244767 -1.4082135131512585 0.6291695123919487 -0.37000719883033695
Ni 8.438827036911817 2.2633618621014366 10.394954217563091 -1.2643065552212418 0.8775213656016176 -0.6775337626279493
Ni 3.0566156560943907 2.9661430746925914 4.4792465723541515 1.305757623277177 0.1903102277849045 0.15458449224852086
Ni 9.045480556121053 0.9792830314106008 7.137887867473741 0.8997624363880053 -0.9099722870414716 -0.3885394533065696
Ni 3.3894199171523796 5.507950124714134 3.0502946408631932 -0.43653834978335143 -1.1591021560677457 -0.3182897158513873
Ni 0.9547744760700544 6.274604629784315 6.014517372155369 -0.3407673281286131 0.7637590495757814 -0.024681304796763944
Ni 1.708866159086682 4.638665468512908 1.0055065409053787 -1.5222380816995462 0.7916123243426237 -0.8862497466135512
Ni 5.507425138748553 1.2411405048743656 13.26767465813852 1.122846259059505 0.047894509688433645 -0.3913805222997905
Ni -0.3897983953318842 6.117707508316367 7.915667469874191 -0.7647394112111797 -0.39533924983722235 -0.6882418930740728
Ni 6.388462112354715 3.5226650393288867 6.865399888720965 -0.3568218104883145 -0.22838877982418088 0.5993987088874193
Ni 0.9949405075770529 2.9432739492094733 11.63731416352242 1.022013506611143 0.5005349072399702 0.09291606870444644
Ni 7.477734308694594 6.231297892763928 0.07581810473801011 0.025926232947458574 -0.7115970228602454 -0.2287073395058642
Ni 0.26581052568178903 2.530809975584635 1.5679470315325934 0.417122664260901 0.026025991750116464 0.14380977023052008
Ni 3.910463882851514 0.28144681820401596 3.6407260937359753 0.265443261474317 0.6962871319760525 1.4446758697433506
Ni 5.192009886515424 6.2170035380519675 10.088024396384169 -1.3659103815076734 -0.9950531759722153 -0.5676908362611771
P 2.644704299275427 5.170853873130517 5.1577310660470115 1.3987513392970945 0.2606892917290994 -0.8570217029863691
P 6.230026874110417 8.740905803563168 4.1934128977395 -0.20732141763092035 -0.20408234186833238 0.22084104938391
P 6.655228665110668 7.246933899720991 11.579336371334067 0.9898952859203598 -0.772201781026496 -1.2910424285541893
P 7.43895902948238 1.4212383219089566 8.608561446780236 -0.4994128778203851 0.5191592072093769 -0.891777875520632
P 9.185320238847666 4.512475420891403 10.089803822499086 0.3875531781339003 0.02741490167784311 -0.18155330752788088
P 2.2497398578366234 2.5778560863247746 13.373978790000622 -0.8404866814458235 0.45277280936434283 0.5309289461507953
P 4.295960156349663 8.554692360543562 0.12522481026724486 -0.12225004178187333 -0.7326178480862866 0.551240661124954
P 0.5493425512999726 8.100726864797528 7.626868085068011 -0.37733175751620823 -0.10429140042092361 -0.3842539385573382
