# total energy = -381174.83120632503 ev
CRYSTAL
PRIMVEC
9.22921643819671 0.00000000000000 0.00000000000000
0.00000000000000 9.22921643819671 0.00000000000000
0.00000000000000 0.00000000000000 13.50789116079510
PRIMCOORD
 96 1
Ni 1.9486290155698442 6.4993432395577395 8.124158745171588 -0.20946700321901346 0.6127386205294351 0.7077267412715618
Ni 7.4258827098120666 6.257962319713213 3.707091877694231 -1.8247718202682575 -0.5067495206911143 -1.8339203195367448
Ni 3.7328487741958027 7.591639432317522 3.1866600692647413 -0.4636493470675306 0.39263444931154956 0.5497165111709436
Ni 4.350431003771253 1.2349983332597467 8.483725315668446 -0.09239644875555054 0.6320537759182793 0.5357001422871935
Ni 4.181564035414776 5.980430560110677 11.964466052059361 0.11263797261340601 0.6835450018190357 0.5500481834787495
Ni 4.716655530816853 2.53222927118844 3.9220698559049265 1.231119526946312 -0.2714089921394487 0.16550653847766333
Ni 8.882880608948552 1.389163160249231 8.0573761369283 0.8059207705454959 2.611792925695773 -0.41142818497928496
Ni 0.825437098742174 3.441870046626092 10.64854041384631 -0.20736049839897194 -0.1405796933289966 -0.18949235986929946
Ni 2.56931226178014 2.5266640538348333 9.695842576186793 1.082425174929981 -0.6167217735468992 -0.03678271604598827
Ni 2.194523022124012 1.70601138075785 12.187169807130264 0.7040027554527553 1.175116529218131 -1.3819790049347618
Ni 6.045773410630645 7.858548364102476 2.2772278741126475 -0.268462507916615 0.2784725838544494 0.6106794240075611
Ni 2.5340012806940666 0.5069285422436478 0.5462782283279608 0.8406594595782619 -0.5483556262676749 2.009177766753585
Ni 5.168416433373621 7.775374667932144 10.172616500421418 0.862959665737359 -0.04204036490050179 0.1379437983680463
Ni 2.2267145281428893 2.1250270243252327 7.386047566956941 -0.24521896400764223 -0.979918377213306 -0.3910311093801717
Ni 8.07383828981989 3.333583653243213 11.82429456263462 -0.9369416165414638 -0.7958785558181455 0.3274580126142167
Ni 5.264437198459744 1.4269014251893648 1.8462723935794902 -0.28164738203800527 -1.3216514116892981 -0.095812416415635
Ni 2.6054077262410997 2.432904446711619 4.961705064090997 0.3246315989090151 -0.7882413509878619 -0.004482461251385828
Ni 0.9249335866398531 8.770837924582391 12.234029306416284 0.3385628642781266 1.6027292943770786 -1.0917464523309068
Ni 0.2970958520505915 6.900509579042408 3.900417191836438 1.1203980546293284 -0.6997298391090142 1.7530827792633874
Ni 0.28351044584079027 2.5093038982094007 5.583000207333703 -0.785918102171324 -0.8864050412444928 0.2676847492103261
Ni 3.041820442298615 3.651816256178102 2.7132086628531664 1.1423601607227165 -1.0368539140580852 -0.5082453885103505
Ni 8.487667113896848 9.064696167598745 3.3983561382035576 -0.9755565007001845 -2.670814912755936 -0.009126387781300411
Ni 7.839849972131649 3.977782942267757 7.15933094869309 0.375893739518101 -0.25533496939572153 0.20009250398264894
Ni 5.603813935651871 1.7064912999989572 12.435796584593888 -0.13301165117375158 -0.4910879028944575 0.6982329428485137
P 4.005525966090217 5.99042580122835 9.005656871726396 0.9388689154711637 0.10375146875705359 -0.4328742706682029
Ni 3.608272814263807 2.6307788415065505 0.5921843495830909 0.38416754949111903 0.5932293468519138 -0.11601280262290989
P 0.20303168079359796 1.655933653791558 12.777343110508792 0.009829841606228231 -0.2917153077969686 -0.809552196650496
Ni 9.246013348575481 6.184682343282628 6.584312941195752 -1.259036307961238 -0.7589379740380543 0.9758760888231323
P 8.65872140648683 7.559364863353069 1.4572046335788087 -0.34304635397077693 -0.42442973944527546 0.8552725815057464
P 3.044358476746778 1.3843085925411087 2.768536890901494 -0.5656300970774065 0.04663569758066807 -0.21048953094625686
P 4.892462869737033 4.576482195548876 0.2119646391295128 -0.8422833683349301 1.2778143598996896 0.23048551445220952
Ni 0.2719610047192242 0.38472633671189727 1.060795032110806 -0.869856135746876 -0.5101796294185857 0.4873582606486961
Ni 3.3321438955198914 8.236466308041974 12.447643206476295 0.8536980379297749 0.13103627261493564 -0.1358804880811144
Ni 2.8456165356313834 7.320697333064033 10.278910306032085 -0.8750502783533058 1.6142681482546133 0.4827729552708588
Ni 8.0558320890622 3.324889731606234 9.376893786076714 -1.346902472946603 -0.17072510656412532 0.7834763254990508
Ni 1.2992982823519243 7.194949262677795 0.29282272496150324 2.1946221818057556 -0.08448567854890611 0.994288787002365
Ni 0.7529674474917654 4.36174602280197 12.781895882847987 1.255988779384166 0.9386953660077769 0.6015448086961447
Ni 0.704554671123468 1.4846394015810203 3.2268320785102587 1.5615607905585687 1.8384655157052658 0.16763104101983387
Ni 1.1438321358817463 -0.01652214279672978 5.088908581868053 1.0552537567215117 -0.09161946138020995 -0.3771427814338537
Ni 6.758296586999726 5.349862823376809 12.022292628926298 -0.7620340964648746 -0.9940193353910622 -0.45184798355722827
Ni 1.5768115835221108 8.334775918739531 2.821460908136198 0.5267511606240218 1.286019264307985 -1.1860486027496024
Ni 7.0669215758962975 8.651310345898196 0.3943754822230027 0.9092598343554792 1.8929896148950753 0.4374523769571885
Ni 6.479509653997371 5.597298109032225 9.643404938644519 -0.988866330435213 -0.37155088916837303 -0.5580908512775679
Ni 2.47176867602512 5.091915460497913 10.539856241246282 -0.658328136233776 -0.9609912012914998 -0.5939142887340804
Ni 4.368511038258346 6.387762016000336 6.698603862622177 -0.06687542166631064 -0.8739215640655015 0.06427603637025059
Ni 1.335855207621641 4.215379883480477 3.996255218442293 -1.3080320211336505 0.30941735306242196 -0.1326954054849134
Ni 3.993924841358071 6.9770105519181165 0.911600138031633 0.02374002392941718 0.25267439184442286 -0.9005021427675072
Ni 6.9368726907724465 5.740932400365878 0.801430984549026 0.14341844832937237 0.9113313721725272 0.918373109510657
Ni 2.0862827748220085 6.609244745771267 5.788590226851048 1.1283512480381341 0.5854409611557466 -1.6809481660806664
Ni 4.169279948685668 8.245695524217112 8.04588022526055 -0.7397074079432163 0.09971740789699601 0.19276408864203576
Ni 7.603831226884878 9.026708713821883 8.845709940803188 -1.011767917623735 -1.2353255946078596 0.6444688617531804
Ni 1.9039042339851318 0.08669187337629436 9.033482958494433 0.32968458795189026 0.6557004688029417 -0.20884813868809193
Ni 4.669595757539831 1.8541587588011448 6.2712680806729075 -0.5896696545251136 0.2626865246647863 -0.8218996624722554
Ni 5.403613778380805 4.07290847338489 6.935491077111028 -0.1200275802092578 0.11371655038956544 -0.039133989886984216
Ni 8.487159507007213 4.626384567407841 4.995285567144231 1.0509669564206998 -0.8220552142135132 -0.9250986011599488
Ni 6.169786388375957 3.5478768236137124 1.6816914732147472 0.24057683724994053 0.3585246521120341 -0.2838667582868273
P 4.789197169953428 9.01502452614416 0.621727993481321 0.007014997865252435 -1.0809239077941062 -1.0326211069236602
Ni 1.159420282001552 2.8428385415626676 1.3250902498749615 -0.2649843195600275 -0.015752891958882548 -1.1597068795312802
P 8.253198876967499 4.030260265439584 0.4990883231028691 -0.39074134605389477 0.27220500567818284 0.6335743263278637
Ni 3.749793615093354 4.916938751033495 4.6992732250726 0.4531785294431937 0.0641942752897217 0.8011763138819751
P 6.003309787008841 3.349476363496798 10.957411822814759 0.00507098676500417 1.4165744835214442 0.2460517443215827
P 1.4518756841592848 4.30399881719414 6.094652262415787 -0.4129608195737275 0.3649668081929521 1.0813296278729572
P 1.1205191358233508 6.389340211966284 11.811218609157685 1.0694817273954356 0.11712968983617247 -1.4394907259979854
Ni 6.421245612283732 1.4603665630404108 10.16761887986258 -0.46967884109106206 -0.4118632156341746 -1.0986064126755337
Ni 3.9304001464246046 0.6575336605543814 10.822927376397136 -0.015341001232444546 0.11771050204030696 -0.5317936081439357
Ni 5.97996909930192 7.45483476095347 12.440038332347982 -1.3251393702378984 0.20092168475216363 -0.44723182494145564
Ni 3.9255917247973584 3.738773930980241 11.943258236210514 0.22762413374401444 -1.883855256693975 -0.7558670484222143
Ni 7.708527455175628 7.800247405524137 5.552999717234804 0.16905183262676046 -0.5418167967078926 -0.8494377199915242
Ni 7.651453982348583 1.9281770725257412 0.351632213351092 -1.0027420599760408 0.03305435935180759 0.7014763894864757
Ni 6.957832240706182 2.7366933263324196 5.121125006770604 -0.34083083437669687 -0.5787643204665194 0.025723630018349247
Ni 3.991017638262903 8.940535522394631 5.3394799551797805 -1.5188665941241517 0.04721291024037675 0.3518822070948521
Ni 2.611305195377012 4.954916975594184 0.8992256049840097 1.0261486118254393 0.39345565966126433 -1.1356364688456375
Ni 4.623062049584792 3.870151823233312 9.332777209837941 -0.08157904642507241 -0.16255156961439748 0.1229378118775173
Ni 8.56320824829034 3.7758292339234147 2.6905693955755563 -0.9185399741058244 -0.24067788160417908 0.06068240548172129
Ni 7.435351885607757 1.642643582499361 2.7813285845202333 -0.21655244931088508 1.2603858800105971 -0.27659387877449787
Ni 5.991348722845863 0.3119936528004973 4.037629794555431 -0.18876473767465554 -0.12953937635443497 0.9611884049039704
Ni 6.034882935543983 9.044613393201649 6.578234579422808 0.05443822434422237 1.356932089268463 0.19071003432648445
Ni -0.1209101152672313 1.1645240385464029 10.595292451123859 0.5166678082460908 0.3872780700956427 -0.5111918727331841
Ni 8.516831437010278 7.1337226425719376 12.65247643026728 -2.1355893961123154 -0.48540242247390597 -0.07630237140716536
Ni 6.427632229876926 2.1711085006876907 7.694864523549956 1.062476499722196 -0.9046357053199066 0.9122924505342159
Ni 0.14160847838321045 8.612261532261192 7.089900478329154 0.00958970057096413 -1.2194739722875836 1.6326371376801043
Ni 0.7665842330365621 4.080513347513204 8.321130522624593 0.6782225611648578 0.3519914789792067 -0.6199554499928485
Ni 0.6196551115283853 5.661311952422973 1.929196900913094 -1.267936181554029 -0.5282858521009934 -0.1818798376293642
Ni 9.509046009566877 7.889244737100981 10.069200364414156 0.3365458338480978 0.30687761735970376 0.6581067642515892
Ni 8.58672429110459 5.671704049836178 10.50426284614525 1.5154629677592417 -1.0821940327557815 -0.013818136830014913
Ni 3.1123501123090103 4.347948344620141 7.411496207638263 0.2599120472434427 0.19245529915236534 0.294309550886706
Ni 7.409906936612904 9.081068797093439 11.472129823510222 0.07403440130859507 -0.7170477615621715 0.15961845512800252
Ni 5.389871475496027 7.15113817349442 4.729085439161527 0.7000409425915298 0.10629506111451371 -0.21637247208959512
P 6.034652205139604 4.3570206641203 3.7312170487760388 1.2748910156053075 -0.7399313510285643 1.8511084012802572
Ni 6.34551066435056 7.139647799356375 7.806331304826788 0.7105333574824214 -0.4397992799228103 0.43225412058570073
P 2.464837534677592 5.806035291265292 3.086499077802452 0.6933704725498898 1.6211144817524852 -0.46906717564899214
Ni 6.808115895913114 5.654196226751943 5.93542151866777 -1.770327425276448 0.49800211351578755 0.568446226369963
P 2.330127895385296 8.772185390143962 6.92973666082583 0.4051582928101731 0.10551473130506343 -0.29385035186210035
P 8.27835772026092 0.5928294717937329 5.542423035498097 -0.6327595437360521 1.6500244799186163 -0.09595048465539603
P 8.4641879879473 6.8516039625303575 8.56785238986967 -0.8489918907033571 -0.504273548346796 -0.45804177107276595
Ni 4.971834128843209 5.704726185310816 2.5930018138584807 -0.22338387041042174 -0.8169765141390252 -0.5522876143322295
