# total energy = -381174.0095357316 ev
CRYSTAL
PRIMVEC
9.19053294480921 0.00000000000000 0.00000000000000
0.00000000000000 9.19053294480921 0.00000000000000
0.00000000000000 0.00000000000000 13.45127395803557
PRIMCOORD
 96 1
Ni 0.49290849280865134 3.1488695357377274 4.6515584093656175 -0.5159342725141759 2.470101487359836 -0.2252255516048508
Ni 6.605511633614918 9.54041637542142 2.6402562604940565 0.5089573269757105 -1.5093303724989426 -2.1681102515581565
Ni 7.373178456667506 3.939384023311299 2.538443538223961 -0.513648818914109 0.31219003071155266 1.0959625472947836
Ni 6.747955701358573 1.0814959463019986 7.97290667401135 -1.516135568346234 1.4336592069178729 1.1681912628532076
Ni 2.6192375119986866 3.0388312866187652 2.921737465475363 0.4427632476471407 -0.3371955516169547 -0.018113678881575255
Ni 2.930851716845218 3.6443771112199643 12.003028827578351 -0.8766585033806903 -2.5379140761284353 -0.37236592887050063
Ni 0.21629827020712053 1.2127183735065867 5.889142688394318 -0.40142556524061834 -0.7924571888414222 0.47756338604546134
Ni 6.529358878900166 8.174179342156783 8.950006439275414 0.09936028166789339 -0.5061244855126057 0.7726977468263079
Ni 3.9769457308323215 1.0024665548233422 4.623565884587656 1.7459711079192703 -1.22733280621037 -2.9680007567491726
Ni 4.609539293440461 0.18063348865437323 9.42954454497822 -0.9006106433209135 0.3253656488615622 -0.10602792349605612
Ni 5.091591928915169 7.058669233991485 0.3045742567278371 1.766518593053319 -0.32657792400210855 -0.6748294763229088
Ni 2.34157313528591 1.2653985074704965 12.458731286485031 -0.6008513821735457 -0.08168986097132383 -0.48910635368805444
Ni 4.7908593148944 2.2773313110696285 6.612417399954849 0.15852522206382377 2.4608953953805357 -0.8468792152357285
Ni 7.8572621998892505 7.337096424926001 1.9031801258397367 -1.7302249008286072 0.8401899761410111 0.9748054814667727
Ni 5.534612371622128 5.056199187133065 6.633455448569081 -0.6580373444662345 -0.6717716633331914 -0.9647213577578934
Ni 2.8109979787043695 8.065905675333891 3.5740171493240287 0.42613540928247257 2.3899990254802903 1.0416158542231029
Ni 3.2075694686804157 5.954739197144145 3.3477397986113235 -0.14756538061821037 -2.364484426148953 -0.28301058093411907
Ni 5.877777675543695 5.540549455805779 4.31076977722407 0.596982643246759 -1.5082453669648799 -2.0628354041780406
Ni 8.334039469541334 8.549116317940392 4.193300063289473 -0.009971252280098956 -0.8273195479362462 -0.23051276814571914
Ni 5.3050880056739995 4.581158928178676 13.181091540032755 1.0292053963738919 -1.0313836349721333 0.3525681774182831
Ni 1.1750279985264764 0.9753728641524411 3.6349779533335567 2.1755883051027567 -0.5974076465993196 1.4798544745270126
Ni 3.4545007037366475 2.512443520955311 0.750959353489959 1.1941126107046596 1.7154071190894844 -0.6842222303917184
Ni 0.9844990632149256 3.5375463580454203 10.174745110620695 0.8766942417146321 -0.6662126811881751 -0.5539215503912267
Ni 2.908610627488508 1.0832697191308602 7.966005502937816 -1.9929265950020454 0.423468918193903 0.0633308988481619
P 3.1130632199799826 1.7875586280496174 10.355556895611235 -0.618137165837187 -0.054108608918945526 -0.35260211598001207
Ni 6.697858107109224 2.8075882910385266 9.922574352819728 1.1417770345257368 0.5746716384543844 0.6164230113595577
P 6.6630719404913945 5.611950705067051 1.187577671053992 -0.2433808823576389 -0.2222019342871786 -0.04708281242041569
Ni 5.803812267633447 8.802655546074094 11.337635172488739 1.27257239477446 0.4922235591607975 0.2713963937339584
P 9.37461916385322 7.906330454465893 9.543383079406688 -1.84640353960542 -1.2325449465389289 0.3804299368255577
P 1.8677460266600692 7.237379144132487 12.698903803726006 0.1906195314952072 0.3882358060232217 0.13410874089267227
P 6.720301388187358 1.2778424888709035 12.514500358520342 1.6272527334397393 0.20805083959777715 0.5924605870066894
Ni 8.965778312599815 5.381479714241343 1.5909896745871452 1.3173826091106149 -1.1421999809957684 -0.5900702323976419
Ni 4.527035880566418 0.081016384668293 6.7255694015837495 -0.05551037436247859 -0.5925307781229924 -0.31434050139565217
Ni 5.372620040629828 6.521602069223694 11.303630201158233 -0.5489240971766354 -0.09829713051070169 0.12331859225570373
Ni 5.3598360095161155 7.2704558716509995 2.7795985234204026 -0.4649870920423476 0.06728602684116798 -0.5426027829442978
Ni 4.829018407046902 4.300038911136096 2.0632369306260365 0.020127881098126625 0.7884863771191324 0.7644694453792447
Ni 4.803156247770134 0.2830904672731904 0.0922848969245996 0.22991832909482984 0.5730585283309938 0.7884748071549066
Ni 8.839141961258449 1.9531720289619776 8.455362773875628 0.25177244885544375 0.9727899936986408 -0.24866218536123627
Ni 2.676669151416075 0.6356576862410024 1.6145836103708417 -0.6868169877020881 -1.5984802892927374 0.7667839524450343
Ni 1.1925727256264596 5.421017386312652 8.478122209281809 -0.7331752632516534 0.3508067146424862 -0.9345512619324163
Ni 6.961745875166749 3.6173569448113994 5.189568522797871 0.7977819434884453 -0.7828119524421745 -0.2025445650675673
Ni 7.871332905593848 0.6499636695850746 10.190806485728046 -0.7859481840783108 -0.8718330569675888 0.22714565144569912
Ni 0.5781534416145568 8.240351178259392 0.6818097847627338 0.6842718526827312 -0.8808085209933216 -0.5409099686229071
Ni 9.03620536538513 2.188670241224926 11.609982825981326 -0.45109824987539726 0.28909741055814725 0.3692248121383576
Ni 0.07859927454398939 5.611270605640441 10.643791304088122 0.4157337543331743 -0.1097904758622819 -0.6647967746772551
Ni 3.9616710653319696 3.824401267550226 4.556928088472492 1.0273791417984306 1.224159036468079 1.125367482819462
Ni 3.5302766466069255 8.516333687471226 11.777989441632732 -0.619580840262249 -1.3024118467333956 0.28557757033034686
Ni 8.065970009063435 1.6465666644871024 3.7132105256191434 -0.6482041604258966 2.304729417577508 1.439370141259721
Ni 6.2338005348413095 2.4361896703798473 1.208524733393584 -1.7385871567503735 -1.6300184691103345 -0.6772907933792077
Ni 2.7206826129571016 5.391102202074598 10.307226640817792 -0.3988891719720098 1.0794375530565667 0.2508129131556519
Ni 2.307660069283324 7.951069968097491 9.809838682326305 -0.6303064542098693 -0.4908781008764965 -0.02171836551369808
Ni 8.154603507309762 6.449842389183532 12.965709565945 0.3890886409418202 -1.4373299709012408 0.5020965953001353
Ni 2.3359577197499806 7.689902597746405 7.40508798652143 0.3054740521439578 0.945181487952753 -1.4555817180225772
Ni 6.9818639514485 3.4576254848859374 7.540407553244705 0.2465255986342077 -0.2014639304088788 0.8662092830229082
Ni 1.1060622404550917 5.1025929966672265 12.586828013487052 -1.1548140702153533 0.005303414490784414 -0.5091105647241232
Ni 8.843397177941158 1.0947670756536882 0.20120282009621307 -0.4084480193050385 0.8442011541829332 0.6682968174107136
P 4.7171880040334955 1.0329055994305418 2.2382788991297393 -1.8306601607282342 0.35253243908434123 -0.24594735753323455
Ni 4.718502250222755 2.3908160099856013 8.87536552720495 1.2705422517183085 0.6432139063001567 1.034202078257535
P 1.269699676817166 4.775750078984304 3.1710573200042433 -0.18247916177625992 0.583826308370459 0.300591784350992
Ni 2.8808184563254127 3.5929928423797306 8.636269221353924 -0.10058104144887192 0.17226931112279364 0.8156364551713631
P 8.398180197896902 4.221827477075931 9.09798412681315 -0.40190713286272717 -0.10247131649304934 -0.4854111642246543
P 1.310735405733575 3.0694725229473896 13.466608307963043 -0.8164319544894649 -0.7771161876089778 0.5530481466473378
P 8.972276019283779 0.27416921709196795 2.337199360730184 -0.6913745251657835 -0.7903141743564907 -2.1270415065423047
Ni 7.986848712256858 6.422840603840552 8.332176548544389 0.8493176494738921 -0.15048949624354083 -0.32108759031149864
Ni 0.2903987789494118 8.803703266812386 11.604749736609545 0.35835135975896343 -1.386008180698813 1.8745252375423007
Ni 4.7119402098092475 4.341874216405412 10.822922140630999 1.2163056018619312 -0.6021945264650016 -1.2727976234113885
Ni 7.408249529801887 8.690393188019462 6.607144791292061 0.9464107323741635 -1.1913810707061094 -0.8247903537564892
Ni 2.3848237826051983 5.000642416405251 1.0200223105626758 -0.26515478369962076 -1.555427166857005 2.691947838079809
Ni 4.480485831974792 6.939183117162319 5.22226843847191 -2.684945952840679 0.7383699200787155 -0.808462048910111
Ni 3.475951407273243 5.851639800283165 7.855731976179379 1.548009020016063 0.38264957018469586 1.0680480802727026
Ni 5.654512062426937 2.5032437976304904 3.5718647265441357 0.10241398089255264 -0.3104481083197815 0.034838962056056126
Ni 0.1755722622458029 7.470111006025035 5.916838358963097 0.5748058500394037 -1.574158167607605 -0.23528576405433027
Ni 3.112861028258558 7.273304936816528 1.2805831057494865 -1.318484841035858 0.885249844594127 -0.17889350130753062
Ni 4.942034388790482 2.0854881295688177 11.669356424977671 -0.5296667916089199 -0.04459784121503287 -0.04120604192466451
Ni 5.505110761359716 7.373904508758076 7.075988793038064 0.7690056426867015 -1.8261699861673648 1.919848386959132
Ni 6.980880564439754 4.742949067449553 11.478697903153753 1.1815257751785846 -0.24267768564302722 -0.3049492899887393
Ni 0.4413927993494918 2.7343948878828086 2.2177656299379307 -0.6095563661467115 0.7951069677594436 -1.9557340451121479
Ni 8.446807306899528 5.959444749933664 4.017505390150103 -0.5033176121914299 -1.4034402601323313 0.712281964742412
Ni 7.197152182101777 8.418445322703327 13.401006284893539 -0.6797307702792681 1.605895607920202 -0.5586603506277927
Ni 3.4474423745523692 5.651589472999072 12.626817859771727 0.27423412029306965 3.230831777411623 -0.8869760832566144
Ni 5.823314578218131 5.378364123624846 8.879898297977979 -0.08710306156709516 0.4676240154445624 1.4570763002902325
Ni 8.693940733677184 4.858758971161908 6.442379676556405 -0.15432095417448907 0.7886851233934997 -0.16122385194190944
Ni 7.842134582913572 3.4041182029707455 0.11941443067338965 1.549446523793538 1.2837222407436923 -1.3154913056251731
Ni 0.3721651110935343 8.827148315964852 7.645891893365217 -0.2686471131235954 1.1259472665823318 1.34752827945606
Ni 2.4581090910888364 2.2257816126391385 5.42461639895401 -1.3906004280551858 0.7919702219026747 1.7354280422961013
Ni 7.647782385960537 7.004472662116892 10.81629025216827 -1.2312763642391504 2.4652850398077994 -0.668193716173946
Ni 0.7609448673684984 7.164167359911185 2.8936245447178255 2.185481652957068 0.3649578093318876 -0.019958445399797888
Ni 1.9041589175820879 5.614055337076426 5.77669008631089 -0.8218407842098622 0.4760538913794704 -0.8986254945700846
P 6.5903104923769025 1.3579471726862273 5.7731388644400505 0.5763510830393364 1.050122091921901 -0.6677905671982564
Ni 1.1754231914365338 3.1982410778965065 7.149069152640441 -0.7303413933472841 0.40633662938899046 -0.5615078473789168
P 7.127745278456375 6.597525060618644 5.662622707615903 0.8266472044595699 0.222470614567533 0.9785860315551276
Ni 1.133201883789953 0.721818931166273 9.783851531803565 0.729515297901563 2.350803072007119 -0.06932414031711932
P 3.196283494411804 4.242846225571301 6.581573971904799 0.9715874887501074 -2.3015782735430363 -0.5165194555936846
P 2.4844491580707913 -0.1406574281688852 5.65117589902343 -0.8548177533565149 -0.21080706218667564 0.2535310834177633
P 4.235695991059103 7.292862390597965 9.600322106266423 2.095085265350682 -1.950939194826666 -0.5011591710875305
Ni 5.996721550938132 8.792316196683062 4.628287061282921 -0.9130894925142147 -0.6095440248515374 1.001108895247992
