# total energy = -340890.5903239106 ev
CRYSTAL
PRIMVEC
9.09049230367211 0.00000000000000 0.00000000000000
0.00000000000000 9.09049230367211 0.00000000000000
0.00000000000000 0.00000000000000 13.30485436746653
PRIMCOORD
 96 1
Ni 6.404206422179796 2.008198850434117 11.579733714191741 0.23589640105513565 -0.40080721493032906 -1.0072797999453944
Ni 4.560754564966589 0.32415423122369996 6.047615496081581 -0.15350874268583886 -0.35817163964798954 -0.46054396866932945
Ni 2.7118393218390313 1.6084808104343045 4.619325516355523 0.4705751276530863 -0.5073069358564812 1.0295265271587366
Ni 3.6231066389739883 4.145137253811705 4.905593302528912 -0.5676391570876353 0.8551471116714756 -0.75008412319185
Ni 4.891121238675924 4.80983405590368 2.4402299546122137 0.9080401030157651 0.3579613234093964 -0.32580453617119376
Ni 7.330600318618378 6.062412999561413 2.6612634584894836 0.5805283543454776 -0.361773498066635 -0.3287818736319628
Ni 5.062967906437778 4.993598359162561 11.168787098016546 -2.225477219513399 -0.09265741572642107 1.4651706472625927
Ni 5.686030253475306 8.058348775788446 12.340598835065595 -0.2599318447377846 -0.17469309007293785 -0.2777776146699539
Ni 1.7761003992441233 6.381043847621121 0.5154154635400915 0.033016307025020564 0.5828292345645123 -1.6570063105530881
Ni 2.961591509211501 1.8574966679248064 0.3818743125268045 -0.16057619105558152 -0.34091079568501287 -0.11509311902211793
Ni 0.7754789964078141 8.835067715355523 4.529930523438505 -0.5998185700336574 0.7529527029888968 -0.1760766006840258
Ni 8.71490049671693 2.2434335214917493 1.2983768442176256 -0.6721241615766037 0.09935436813062243 0.684869377057414
Ni 6.931673151454753 0.8596805910338692 4.739096389526783 -0.06651983809910479 -1.1500678137796194 0.48841164161387496
Ni 0.8217123315522286 7.443086071204348 2.471922138161629 -0.1773881204065977 -0.24309754678926518 0.44311523166992073
Ni 7.817196194197964 3.657705052934082 3.663837499086862 0.3421472391952753 0.19152841646272176 0.4006503776374906
Ni 7.20943314581909 3.971090686896319 12.755643445201173 1.1146971475898093 -0.035582782200616135 -0.803703451179203
Ni 8.0238867192139 8.642767439761244 6.980658178639557 -0.23859580226416974 0.704548086433264 -0.21990028273719547
Ni 6.750236014242585 0.6731618685868893 0.39309470725905454 0.17854923059423444 -0.23475534547215698 0.8395037487072639
Ni 1.9095306462504968 6.2801393823144895 9.464820664777346 -0.01065619416226552 0.19775434276777556 -2.3988389923694236
Ni 0.1653333299787721 4.679167318577777 1.5103807620238074 -0.19802559415129123 0.107337386336099 0.476742689916379
Ni 6.427278091814773 1.9029854917441207 6.934809371322392 -0.020525373646861425 -0.03336109195894899 0.9311620337452093
Ni 3.2685319840834315 4.399371053922568 0.4504275335871985 1.1059741658945146 0.06549731037186139 -0.8533252279713885
Ni 6.036977801910246 5.340037023381997 4.589509610431269 -0.12098120237177874 1.0729102934610102 0.5707998142038041
Ni 5.534273573851078 2.7761272838794366 9.183835363720146 -1.373397691023654 -0.1730180163633601 -0.21858362080830096
P -0.20653235044869886 5.2787398333313105 12.679379668512572 1.9184695043337345 1.5434090593502063 -0.4231902106112195
P 3.873013364716747 6.25233156615476 12.541807793182443 0.2309071753706604 0.7142743125820924 0.8589574865565014
P 2.408016885849999 8.518182241830848 1.3920607314347928 -0.09204472184308664 0.28251667201683606 -0.21673988273134281
P 6.320619344837952 7.742226903622847 5.5947980720503185 0.04626854404923644 0.9084548219556805 2.0552159399595697
P 4.69211217971261 1.0200896012958303 12.699017859179413 0.8721708999229819 0.7328980983308668 -0.33869476187030056
P 4.185362682548808 6.284975524255311 8.133031715853908 -1.0547876157183704 -0.5110795155250359 1.4669477937676736
P 4.8453778810702515 1.0622240334306265 3.9238673971328155 -0.38461929231655695 -0.7044488418512385 -0.7695347757172941
P 0.29234841651966 5.5917436666140095 3.620849469718525 -1.0315471571331913 -0.2701671493125476 -0.92306562989032
Ni 1.700549317157329 1.3479200276339447 2.4168664801721618 -0.1339328774364403 -0.691751705999544 0.7241015830851594
Ni 1.778436655783205 6.501374695122373 4.767741440033786 1.448037587126732 0.24984874947016972 1.0228874245756643
Ni 6.100820329824523 5.841368587093299 9.263531710327644 -0.5451155220638225 0.21433050195890185 -0.38300129709715974
Ni 8.666375448446047 2.257741956482077 10.028361194924042 0.2768926409618393 0.6805609794900472 1.1167532587878897
Ni 2.5779181882446793 5.094557367423413 6.9332130808622265 -0.43941695688272714 0.7837717452522824 0.8933097387841261
Ni 0.3553082576248134 0.06007179167921495 9.10912878837452 1.204056095070617 -1.7596434632000404 1.3385672136080302
Ni 1.370582625112272 1.2046538678832672 11.72743057992354 0.46919495947610806 -1.011805712840206 -1.0243830352845844
Ni 4.088276224037562 6.99859735628245 1.4243383426928342 -0.10296908206507428 0.3085670892469847 0.33380529498848316
Ni 5.743763970516966 7.949135600455663 7.995911637994564 -0.9252423258266647 0.8926543645883143 -0.8373903019086869
Ni 5.591034608209152 2.8997307086338764 4.790066780245188 0.2704592266316697 0.43462724880356757 0.2925172348729736
Ni 1.1181123805211828 7.38211613887898 7.367815885331786 -1.071548123006161 -0.5044792365996988 0.05298529394777971
Ni 5.238059879975709 4.632478549765628 7.19899089723371 -0.639411244724615 -0.576586081868278 -0.43099350870572223
Ni 8.087511075311298 7.174243849854949 9.204431692282778 1.6746911294273612 0.5627450622201275 -0.19457774481200682
Ni 4.528246964251588 0.5895229754385354 10.42366125563205 0.23876832328629205 -0.6861695839260763 -0.07588508136408867
Ni 8.215741560682051 7.076566509339655 4.915079231316972 0.22701812472889935 0.6477675871091102 -0.9333613553893731
Ni 7.125464267797707 6.174098788818825 6.954287569323521 0.6204375318355895 0.059901304341322646 0.011374560385528797
Ni 2.4221162395158173 5.31446546834528 2.605489651602789 0.1172685294068819 1.0681378117730316 1.301784754672358
Ni 2.413453000287239 5.24883211343412 11.370914195862758 -0.0767739117269452 -1.5158476047921698 0.9060716664354848
Ni 1.1513835825952614 3.5131116812973895 4.076634030459346 0.10716332265207995 -0.22102925413531613 -1.2934183849855336
Ni 4.125038175181707 2.683440623675255 2.6749810114757637 -1.4382414269719166 -0.30344956551476127 -0.1417397750753688
Ni 0.9398296441613929 3.491667209796638 8.330395395698257 -0.37983935442941036 0.3890336193341687 -0.8441350768316881
Ni 3.8662682193782314 2.710784824724115 6.944136216493978 -0.22385618206114996 -0.5294410487513591 0.1090242871202187
Ni 3.9968349612880654 6.990143198378381 6.052178923251304 0.2973339395353266 0.0973854173297097 -0.302357360891847
Ni 0.7011160416737743 6.980416371542516 11.306864404722447 -0.5737694383550892 0.537634640305745 0.9692585835066145
P 0.01876550339932257 5.651722735271051 8.155263423993897 0.7380138222908774 -1.385056872529137 -0.28384953189564666
P 8.802005594605953 1.548301750945124 7.919036071169466 -1.8516313636632626 1.274954007632759 -0.895407244743103
P 1.7773639776835488 3.22511579252447 10.714199755120852 -1.0430703272814421 -0.061342407663223394 -1.2469248694096846
P 4.123920044620202 6.201933876455664 3.9621856405706994 -1.1561687844710347 -0.561322213730672 -0.7847413082544034
P 6.6702669528639875 4.034133251482039 10.486540191355111 2.884934841365928 -1.072877640450862 -0.38632521926407015
P 6.389498005525191 7.942444998071367 10.111051040668972 -1.2265334502375262 0.3843446984989316 2.250088847414492
P 2.224370758991929 8.45488514345877 5.977272357073541 1.9172888537620725 0.9323588822667879 -0.3394097856594542
P 6.985852485979756 4.097775788564177 1.6437346488942732 -0.8353102794512066 -0.46046837823638764 0.0375555896562708
Ni 5.385125865537033 2.9461740341520364 0.37291108705001713 -1.0849176023345315 -0.20526093555746586 0.6743756766149418
Ni 1.7705733798831835 1.3401203851805132 7.104526136721962 -0.3031844847788327 -0.8120721348588724 -0.666718160069684
Ni 6.928227854846536 0.8020268703250654 9.347591493272727 -0.03878740518084288 -0.8081969681741824 -0.7024114997062354
Ni 2.4026898573211986 1.4967041162531924 9.431452194434907 0.15124360080074598 0.4150634677390271 0.1302140338239564
Ni 6.451340625118075 2.0220891227754265 2.523146153617155 0.17074644672036401 -0.38149154532085267 -0.3206862411080219
Ni 4.116893094018217 7.143463442690241 10.345016678991756 0.5253931039342307 -0.24320604734267146 0.3837939682017842
Ni 8.398787715043703 7.09436569340005 13.891332292719687 -0.9562516297239854 -0.2923945932521803 -0.6702457136069683
Ni 7.404033315982971 4.031460646725269 8.268394601538136 1.1863350236417698 -0.521005002168864 -0.012713590911926493
Ni 3.240496905614453 8.44355838996579 12.520254235773253 -1.0728627280525267 -0.13824204633475548 0.25147754332284433
Ni -0.13051856230027306 4.756636494554635 10.29597529075426 -0.02702615087985668 0.047103381245705976 0.4815997608983642
Ni 8.496492327036107 2.416861934925977 5.831703575605551 1.3707083171169492 0.11470873909950569 -0.03258693279708581
Ni 3.763900184800035 2.7854904910205027 11.329496094526716 0.6527840664870951 -0.08221719422970357 0.6793314779583204
Ni 1.054997091996503 3.2416786696225492 12.82808830604515 -0.6472909045830079 1.5806388902359425 0.3424912527982553
Ni 3.0764680612907713 8.371107165777154 8.511128928800991 0.5330182245796562 0.1658325543585144 -1.7487196171986852
Ni 5.747463800911541 7.8042695140478715 3.5556160964716432 -1.445932624968587 0.5310914398705886 0.2115467685661776
Ni 3.0586416057532664 8.131899949553846 3.587680990208227 0.8096295868556509 0.852632572779738 -0.02447124566848689
Ni 3.167736604685239 3.9739996444547088 9.08051010029539 1.076269182630914 0.6176124036819686 0.6094648348741697
Ni 7.320909853751994 6.3985339549409375 11.524878047034413 -0.4237005745887348 -0.9264381459069787 0.031591401653035915
Ni 0.4239051130485832 9.15094414422713 0.42361330824350724 1.076227016539069 -0.22888166030019935 0.8012979270615039
Ni 4.509156930274657 0.33542007841779986 1.7039391617620894 0.286997333496009 -0.09730391335949694 0.15445747975235335
Ni 5.777362430316362 5.825596582831407 0.25205026384359686 1.0179732751034984 -0.3307960758485141 0.35874242454979505
Ni 8.185052058441043 8.749598906093095 11.69824009987434 -0.6717672924578173 -0.6925680312532524 -1.2528162951934554
Ni 9.196942035619164 5.134855520099475 5.762997634273342 -0.1381685127843427 -1.808695483531685 1.729332470921325
Ni 7.947126601641901 8.800796559120748 2.88193788791814 -0.2177953205790507 -0.6021191931423759 -1.349871839987572
P 8.88239281863357 1.455633271725682 3.591126286816445 -0.5258139935217332 2.0099845789255966 0.26253560090921885
P 2.0540967464100794 3.3997805129210126 1.899028400415474 -0.43072251443252274 -1.4387710742231417 -0.9887308332986133
P 4.576026592148134 0.9467838708244175 8.137821496283644 0.42621948435584656 1.0082964141353667 0.7119258669545739
P 8.411778028640386 1.5522470246336897 12.47234279573734 0.12364975034287737 1.7992315099053078 0.49209011890672677
P 6.437350357360696 7.779643370217631 1.5257473303259992 -0.45939108601180884 0.1532727154156328 -1.85110557306678
P 1.7568558268969034 3.305548469013936 6.097934098497059 0.8640963504449634 -0.6514573772558716 0.36517866709344204
P 7.095592909869995 4.147173524102577 6.0213248830984005 -0.09707045719245218 -1.1702509735957134 -0.07844512878178103
P 2.179809165394351 8.476984130410159 10.45785514268168 -0.18841043965903037 0.38107245550556307 0.6188419052136955
