# total energy = -340885.8057075093 ev
CRYSTAL
PRIMVEC
9.11187078618590 0.00000000000000 0.00000000000000
0.00000000000000 9.11187078618590 0.00000000000000
0.00000000000000 0.00000000000000 13.33614393759952
PRIMCOORD
 96 1
Ni 6.504135241120487 2.350261231342238 11.650281936181852 0.19027551789222716 -0.25408078527364625 0.661651287069738
Ni 4.525100729893139 0.6122739673415988 6.481686325523249 -0.7817511152778278 0.5468828983768904 -1.9247082861545948
Ni 2.8429856340376234 1.7112730817755384 4.997880159032169 0.4762762918029217 0.9537879986748412 -0.329314091986349
Ni 3.55480496531018 4.8925277999678265 5.236730534257215 -0.07962115136775319 -0.19148805014308956 -0.7016440254125916
Ni 3.7089413683799006 2.7246224349435306 3.0447880545901014 0.02406809669279726 0.669619392876879 -1.1250970027668947
Ni 5.224181666066886 4.889192855328224 3.3004024493450412 -1.500561625167377 -1.0049663213208693 0.3243490346715898
Ni 5.751840980642698 3.120742785537641 0.5217311315634481 -0.2892722455731147 -0.8015136426167357 -0.9302276948563979
Ni 5.4659742643086755 8.165220139631186 12.770504419617327 1.0703075657308405 0.16248909180757823 0.8690732348342646
Ni 2.6366382124298617 5.425153084020643 11.208495623701687 -0.4159181024298385 -0.9983004792649194 1.2461226852233638
Ni 0.8206979842591019 7.690856156194815 11.849710714443027 0.5263960912774482 2.000396678126845 -0.5706969700773525
Ni 0.714763376663419 -0.14176248279491088 4.560921315595887 0.02795406201076476 -0.05245281848307741 1.1206302252447926
Ni 8.840765114045114 2.588609542497225 1.6842882769936172 0.10786497670479488 0.16800205120600745 -0.4812506050890615
Ni 1.5274866517733947 1.0145156726047935 2.7990427268820293 0.6613538104339771 1.4812958349592296 -1.1804595386975991
Ni 2.223086853377939 6.298398314842926 0.8490978625452041 -0.1313275786031093 0.6666659666755099 -1.5674455314741198
Ni 7.738893937998053 4.278497063974546 3.883271499073357 0.8451460345947058 -0.9194411457638552 1.9870611373602036
Ni 7.897057787872976 4.456205876286485 12.44050162447099 0.7553903658961121 -1.7461433718310766 0.6537883393818934
Ni 8.323885142389111 0.12017555015643398 6.843321890644573 -0.8028917539111851 1.5806892838579034 1.2677664887453843
Ni 7.242242319074064 0.8416443523943983 0.43840307492638286 -0.8392450957292386 0.1707755001860865 -0.11557468664422675
Ni 1.8343288942286344 7.005042103614678 9.674104907574666 0.152713243367737 0.5296372239225653 -0.8360651553393601
Ni 9.312513990619282 5.086683538712778 2.031961722794549 -0.1164393486373672 0.09218510407569286 -0.7902984906272067
Ni 6.598670898595561 2.4658453099033286 6.958039430311602 -0.570079905318644 0.4415288610194073 -0.44553926773038105
Ni 4.115913956858619 4.61653835136421 1.173874999902438 -0.7583137101904941 -0.16766060870618868 -0.9061583126120201
Ni 6.2939790576019226 6.349771041285766 4.920677101812429 -1.8293627820730494 -1.638361184648075 2.371155924631858
Ni 5.373324764047802 3.187159210341093 9.711713242289134 -0.07234184409752058 0.017825458217195105 -0.23085549619711854
P 0.4570997222105375 5.9527030561492555 12.770504419617327 -0.03133557688848797 -2.607618739713425 0.5512347475876829
P 4.173911013227664 6.34218996494656 13.061952156693856 -0.13142219519944462 -1.0195069381392055 -1.6206442269842865
P 2.4980557724743537 8.703595014032606 1.4302210778665585 0.25693213867951237 -0.6320324357620406 0.2488951273076488
P 6.1721442358092276 8.38598254052816 6.241875559136962 1.602010413933183 -1.6298122666367996 0.38690371747535945
P 4.983391373591097 1.2278063396097603 12.899585000911149 -0.1583573290273918 0.6749171509407086 -0.2523550608317912
P 3.8314413567263967 6.577440240097544 8.611361015071095 1.3046425358361273 0.3731434304664735 1.1031773198756678
P 5.123750628313608 1.2140109675213493 3.952353146027311 -2.4330866006983842 -1.2677988846452166 -0.07333994634473176
P -0.07893249025962172 6.136817513493 4.011005345892497 0.8878114346737161 -0.0022054922917510403 -0.6845315341020212
Ni 0.7673324917160402 7.472435506042044 2.419350167792672 1.577008749682523 0.023913573392803977 1.6499841135989841
Ni 2.090235780029835 6.787077046991908 5.004068030356634 -0.5184058739831202 0.29905452177085917 -0.8611035863652268
Ni 6.090747895739363 6.3704458756771825 9.301159688664615 -0.10178277506645697 -0.30304615942875546 1.2322029898184779
Ni 8.533649515471874 2.5744405837142135 10.340486073726167 1.5023678251381805 1.63369206130718 0.04376069002571819
Ni 2.383546894644064 5.6879576558660485 7.323423618997768 -1.1372837746410738 -0.25457083753618737 -0.6833729950175456
Ni 0.7002572786682077 0.7726756926358842 9.288544303818904 0.641344971412218 -0.0963448918803373 -0.20788577477482265
Ni 1.5200058060107886 1.6483465034118892 11.876169764291328 -0.801982097612722 0.37562685900995957 -1.379985885764133
Ni 4.431230238971866 7.140991212966785 1.7282311841492117 0.03924994663955821 0.23923009341405896 0.7763078327750694
Ni 5.606078386654384 8.698638156426203 8.397970117489528 -0.44669960658706936 -2.0512153034406095 -1.050411598137862
Ni 6.980348934288659 0.9248822015125233 5.03839518046804 0.1186425269362731 0.9967369914325416 -0.12360475603755489
Ni 0.9169639859611172 7.769291138319676 7.050845654746794 0.4096911476835202 0.030517966083199056 0.22366026400025998
Ni 5.120178775038404 5.290133385469737 7.27568015061491 1.627887795920577 -0.08917665626667222 -0.08579359872705225
Ni 8.291556225500285 8.06752266305791 9.070697701513934 -0.14365421848926227 -0.37171055467468883 1.1508815679301663
Ni 4.766711090722929 0.3868690683739226 10.470206308336108 -0.10775879014423378 1.0415346073632061 1.082081161327001
Ni 8.04047863111709 7.711330529433031 5.113437813168519 0.7176285737663061 0.1362980352345072 -0.3199694175466554
Ni 7.485547487835454 6.596374707204359 7.3781677375626105 -1.1429911094384961 0.09351822106481959 -1.4444480700032607
Ni 2.645449391300069 5.323127468912363 2.92835019375379 -0.03629163534218266 0.1478255762581325 1.1978291403242982
Ni 3.5257380980961575 4.396750920621439 8.883912554897329 -0.37907753656272136 0.04000225142455046 1.740627327108854
Ni 0.989658489607974 3.4386741745130895 3.7366678794286625 0.22808873208525882 -0.24320964688709726 2.13052252311237
Ni 0.6115176820817982 0.14977546180055715 0.5578824781689763 0.47668021210955974 0.8452889879304732 -1.0473108477253512
Ni 1.199185954055138 3.577821550445798 8.334503205199297 -0.4881676439238689 -0.07050993309510438 -0.3181362209926586
Ni 5.355848196236988 3.059438120140793 4.855276650580877 0.3477440165567624 1.0461952460636692 0.7469743739182749
Ni 4.202449391946887 7.232519953143856 6.377490262838047 -0.167399384625002 1.0829679348073284 -0.6688357206333191
Ni 8.439159417349801 7.268766974390685 0.7193812726835026 -0.6561894926242182 -0.2053558092641173 -1.1028309922798427
P 0.18048702165788116 6.1636155249276205 8.442779563539183 0.7332117729165436 -0.5936330100482357 -1.012030170146186
P 8.308057823156899 2.03299500892059 8.147236951815012 3.201432498313899 0.19265841630210692 -1.398864724946507
P 1.8601883829914547 3.5042523072213405 10.43390552705274 0.33932133971070594 0.2513351042077091 0.4855492324644154
P 4.243161229787718 6.722072962131458 4.035410580107556 -0.7089683269881467 -0.4094412364562433 0.04666937903208092
P 7.120626182175769 4.302023913863764 10.363304020082705 -0.5594347668999721 1.077186295128545 0.3441807246855363
P 6.678618451240023 8.302472246479093 10.699174859895448 -1.1669974996554227 -0.03293248906196264 -0.9875910632672154
P 2.4853720485991437 8.837831091711912 5.795821246467753 0.015482154795999143 -0.30947597421449924 2.278837380302095
P 6.800453273032719 4.127476920650028 2.005902684065589 0.5794693169533439 0.9699445538300457 -1.7460628963021285
Ni 2.855168205029833 1.742791042180963 0.5290324734752337 -0.09548562920383556 1.3517580012666912 1.5601741946236873
Ni 1.4897908431011653 1.4023624446940965 6.927619450313479 -0.3099084337662275 -1.215390032026197 1.3827634485092701
Ni 6.962690129065845 1.0846679643542483 9.304961161078937 -1.0591260951927242 0.2271209688553508 1.6184765299090063
Ni 3.1521605153664654 1.9828706087499508 9.479838004008394 -0.44208241953003224 -0.8269079143201242 -0.4673640769149564
Ni 6.599172051478561 2.2024484664689226 2.852561298851171 1.0176380032512666 -0.8562159192556221 -0.9045534300187454
Ni 4.251863066210725 7.178705245380215 10.898656487006104 -0.3391652737488159 -0.0037206433846968174 -0.6228505121524565
Ni 7.372624075489567 6.567207609413736 11.73912723046722 -0.43899298197143105 1.3822458854429034 -0.5146901156944297
Ni 7.839671226834132 4.178849647092869 8.181803744123199 0.07079095467063291 1.3052570294916748 0.5243957730179678
Ni 3.127221325534246 9.066147233336292 12.465253109768849 0.5561833498422099 -1.3123288487367915 0.6138639923831298
Ni -0.005125427212504008 5.606324407160584 10.495025221476407 0.20306315657519863 -1.5640074523268483 -0.0559924562052197
Ni 8.8226233796805 2.7229367388825296 5.929169827950617 -0.2077083686566939 0.6805769203296472 -0.22325891479678323
Ni 3.579315897224199 3.003810150127749 11.812395781961877 1.175036310799499 0.23474197573571828 -0.013218812683119169
Ni 1.708056591453736 3.958807083973296 13.241257368734916 -1.0000691411295681 0.31742582518919527 -0.986687063395707
Ni 3.0109174091957547 8.610909066289334 8.22061211219569 -0.020802538567648046 0.7593413801240599 0.31298990090502865
Ni 6.018618328069707 8.266835720562465 3.7700473949976683 -1.157181027785633 0.9773238770132523 -1.6443698527360004
Ni 3.310652392582989 8.772599210086462 3.8330878717438175 0.9130959202721178 -0.9982367159065195 -0.9151947117826754
Ni 4.043465473717962 3.3659887827368324 6.84020107496407 -0.7948876526597859 -2.307485125945774 0.2730835516283942
Ni 5.284247117062132 4.999920306859511 11.617941173861245 0.1572828650162904 -0.64472391518678 -0.06131875351413956
Ni 8.277788189023674 9.190141568461188 2.522291525896253 -1.2143528490109343 -0.2582706549852778 0.31540493810442455
Ni 4.478475288032903 0.49410849583952643 1.8637793711949178 1.2912044080533505 0.5886101029123475 -0.6490431113874242
Ni 6.378045175757588 5.743612961490892 0.43822721582380275 -1.0286322974792412 0.22200935866039828 0.5403124442482242
Ni 8.262990511169262 0.4255535150062528 11.533470488650941 0.4953299660002631 -0.2591620564512956 0.05161155352870467
Ni 9.313516296385284 5.578396523771563 6.102165980788232 -0.1753320092085174 -1.3684457463350173 -0.17482601610637633
Ni 7.0025727866820775 6.185720923003238 2.734815884583759 1.812330766291427 1.558763944539722 -0.7307671680307931
P 8.714447251917216 1.6869261635323194 3.869068826369126 -0.11904747568417562 0.8952936019833742 0.15242965068904715
P 1.965148020432937 3.4960242880695342 1.9080685294333122 0.9106068353016769 -0.7131070317468686 -0.4997982861842618
P 4.959017119736078 1.791229746290601 8.115510329572846 -0.6930521699785226 -0.28968362207892046 2.628564488727157
P 8.757364162443249 2.39059948248847 12.689314007823024 -0.7725961882514372 -1.0736137472859382 0.7304401237086775
P 6.555580862528127 7.890205661181771 1.518999855496548 -0.6111262817369926 1.376458846447481 -0.49928946486864334
P 1.915178522062498 3.3593917884224274 6.120263066986906 -0.002378527534505581 1.5070312920521207 -0.5155136400369895
P 7.0500820799905135 4.6263427241298185 5.999277471534133 -0.283124480804164 -0.8839372964302905 1.255875136624437
P 2.32754533793642 9.01450115077545 10.528018393731974 0.22250635290147483 0.10191467265863093 -1.1990835815566898
