# total energy = -340866.4776242737 ev
CRYSTAL
PRIMVEC
9.25947299200353 0.00000000000000 0.00000000000000

0.00000000000000 9.25947299200353 0.00000000000000

0.00000000000000 0.00000000000000 13.55217468566939

PRIMCOORD
 96 1
Ni 1.6492973201402654 1.5996387667610141 7.656870216329534 3.1777171569748304 2.3001032316594063 -0.10128552371506427
Ni 1.3007429802455874 6.0131480248466715 6.261077820403665 0.23563671963584581 1.0467061242618168 -0.16768580551716927
Ni 3.8986733031276573 1.7748094758470996 8.534535840614394 0.5106858796310432 0.1944892988632586 0.38342321512592675
Ni 8.850278312197545 7.202342134579516 7.594570630492079 0.21147426345702933 0.6497535071908874 0.8666931646378623
Ni 8.7704431365056 5.519886641839754 1.0260977533610132 -0.32646736656617326 -0.8350202590146134 -0.3800437571307326
Ni 6.175077687628015 0.9193341784638578 10.660397862155486 1.7334984293735565 0.1502663244891412 2.0575340465697853
Ni 7.323261591707922 7.217953605956994 9.671048179052955 -0.2058008672213359 -0.48974038772762757 0.30671795185338785
Ni 4.4015460190466875 2.0626864895634753 4.671855034753283 -0.27411970620239245 -0.5110946850336875 0.9460726323084546
Ni 6.080306982083238 8.934335807550305 13.342766244728164 0.32720450184251393 -0.7701888643615251 -0.5518903788938109
Ni 3.2601493086320783 2.0946687090995435 1.17862164352952 0.4831856173282452 0.1053794912787798 -1.0686255500427273
Ni 8.309497314060605 7.797568833605884 0.7925516230696038 -1.7091446831195403 -0.9391540508117504 -0.08553443152839461
Ni 8.317923434436349 2.196495133024889 3.4225743532157322 -0.31415049687203317 0.22687619983439636 -1.5616186403796977
Ni 5.596443964110805 1.5444800864551778 0.9605934639388917 1.4133081540653467 0.16082661650349075 1.9185630924888055
Ni 7.521673577874358 1.4894417792975665 12.918989798560437 -0.7056140658039332 1.2981062773795065 0.4282874226284688
Ni 1.748049599049405 7.005244993570614 8.488119954658863 1.271853000109932 -0.47122973051794975 0.6587870781480655
Ni 0.4276469058568051 2.1086505132395152 5.299198215673355 3.7853930182693776 1.131174319309226 0.5513051958143022
Ni 0.1424134716649075 0.39807955686358765 0.39388408967430205 1.686448269963289 1.797994552174413 -0.6799133186037193
Ni 2.9583923449780745 0.4966022008438058 5.665486298143446 -0.5869548266971117 1.8231275997966148 -1.3153072146388252
Ni 6.4634269344643505 6.410110889273649 13.452539148330942 -0.8913487584030133 -1.0893977495930722 -0.5307811077190213
Ni 5.27436245735267 0.43471836534137237 6.460525015644835 -0.9042538965004556 0.24776049948257328 -1.7090989174832696
Ni 4.243033101780344 3.866441077822199 3.2679031912723513 -0.30053959095681787 0.9563609016083401 -0.8665540679568366
Ni 7.642287472395732 2.8331672329323925 10.712709254532156 -2.038038656849335 -1.1266165247352147 2.2405569966646572
Ni 0.5515682841124823 7.389790904784543 11.451628158436497 -1.400911837283523 0.2593024386839018 -1.3043064926529473
Ni 6.367026561682066 3.737975150247384 1.8154900442633597 0.05611252672285175 1.0845954431084226 -2.1923603823547726
P 1.0584966491793983 7.336039664365645 0.06854973007221207 0.6582800566046599 0.48691885911843247 0.32363041133801035
P 3.387680029439915 8.919492872426877 10.121848396997176 -0.34121367163741234 0.006461439354627581 0.13493432211776116
P 5.048829474943865 2.4574548589035836 6.834632723013077 -0.21408830404110868 -0.28492142480358673 0.768749046591205
P 1.9508598348625208 4.092548147553308 0.9836504775077288 -0.5184462403027523 -0.11307428881987622 -0.3510178022120277
P 8.168771844312728 -0.09504385999651782 9.247908784623524 0.21011106456091555 0.9287169146388264 -0.7223462909569495
P 4.232329151061266 5.6337226021687705 12.542388515129351 1.3307580019762564 -0.31827737455621313 0.5305792761208603
P 4.220125165725847 0.037515680565238595 1.3769688133853737 0.13489601268065798 -0.41717408632412667 0.7129532797778237
P 2.609347253017557 3.4299124855209824 8.965563380041731 -0.5113217134428291 -0.32909040601131706 0.20281633067171523
Ni 5.307770635721558 9.161433640886033 9.031088040304322 -0.8199715922116072 -1.1268219558778012 -0.540451798039566
Ni 1.218194778982111 5.432329065715533 12.372118845070608 0.8165509965658324 -0.4724332639077476 1.5987384280501304
Ni 9.113765874188964 8.774508045126426 2.821806785581842 0.05451561454937708 1.1589643449383007 -1.497430021516931
Ni 8.142576795364397 5.371994340036024 11.606095611975189 -0.39158518211142884 0.7213163070305384 0.887779038773884
Ni 2.5115209214024548 5.069607732222075 4.182377072389804 -1.1452516233378984 0.40063803634231643 0.20752479189097808
Ni 4.3520448767074225 6.389999314047147 2.366697208931167 -0.0872213323125143 -0.14438621155928036 -0.2216499184384505
Ni 7.679029061023155 1.7760039478564085 5.5751203238764075 -4.177060475681968 -0.1334615942269766 2.378202032845362
Ni 5.202110789998895 8.02484259692748 11.401064954550971 0.9036414597274373 -0.1467590826668311 -0.9065056686491098
Ni 5.323196917640228 6.510909511702612 6.645850588704634 0.925105286028168 0.545252561862319 2.064019654294129
Ni 5.969998880944506 3.9622858822280596 5.757153228358608 0.5607046347513311 0.9020782290053755 -1.0805827224046036
Ni 1.8942566767779856 9.159600265243839 12.089095647069579 -0.18908586845950018 -0.4175715788728615 0.7757308772256769
Ni 2.0503621310798312 1.7201600665529841 10.436651958024173 0.3864072374549152 0.7895009344265758 -0.3895699514536129
Ni 6.4169999371412905 0.6481436609333386 3.8052748514726447 0.8724856029499232 0.3930399122800844 0.31895126069478613
Ni 8.984327701955408 2.2755154750980813 8.915786305408844 1.6492981432755531 -0.055699093334516975 0.3299962056550382
Ni 6.0161480940793535 8.222680495771613 2.2275847393695045 0.8639600819774153 -0.43193838911749477 -0.9645750619880161
Ni 3.3650498775736293 8.715765948792663 7.657439673915367 -0.12687879880313632 -0.14588285070946488 1.4106434627489899
Ni 9.145525866374463 0.590115469963279 7.310720561557473 -2.8008859932441244 -2.4644540592660715 -1.8597349666070035
Ni 5.893126736593482 4.969772094978911 10.696175539649815 -0.9886213043039426 -0.05077594500128675 1.5646445716902149
Ni 7.75297521192502 4.754220824399834 3.4614965477206145 -1.7122073812052638 -0.5851715095444439 1.2978303980103003
Ni 0.5447051627690734 4.1313545986464355 2.7784122656467565 2.1043306952083505 -0.5209265835224448 0.3402993873532591
Ni 5.174063846462488 2.9454290828615446 12.848613174477087 1.1479183715367842 1.0006697508280444 -0.5982993051756536
Ni 4.1297341908818685 4.339127911955594 0.9152572325282091 -0.37155166049932137 1.1316191201561285 -0.3175497523615693
Ni 9.046366170655947 9.070237091896242 4.973851818756442 -0.16985555947497843 -0.8883284835194508 1.7235649723099282
Ni 3.3848466307201592 7.398800371955532 5.467774328131302 -1.2550382425454385 -0.6452941858679532 -0.5516674642497272
P 5.203777495128164 2.7672120071780744 10.707505430739662 -0.5890075954610824 0.1501429115373995 -0.2033925148901594
P 1.6405193397927864 7.789790876335966 3.621344680984961 2.188389570632483 0.39299003287875545 0.4840723908085728
P 0.14653671496525816 4.834417119536455 4.989301249357465 -0.3612525925661585 -0.8188693602863639 -0.560902352584434
P 7.279992074657532 3.858783493700506 13.064689457171884 0.22351576800259573 -0.08464842937901551 -0.07689166825173209
P 6.373193370660359 5.469329919585286 8.711242696261289 -0.9670050115857475 2.2894285255543796 -2.1191371640935635
P 1.569545479704783 8.466149077265932 6.526293200045758 -2.1128986393830194 -1.2966150375459604 0.6069063301183741
P 0.6893853534097857 1.9697861975526552 12.180734798865918 1.1161937867399936 1.3098675316804926 1.7945155924868772
P 2.1405308785732395 2.3864254419779383 4.045609101376646 1.365977487300183 0.3884479220340278 -0.22641725792010683
Ni 2.5372252182849464 3.2670013186079583 6.166293225649478 0.7030316497887376 0.5342965770714475 -0.5883655910017093
Ni 8.251042261387994 4.4400376480598425 9.327555067067486 -2.870930042446404 1.4474763153066232 -1.6677818039020373
Ni 4.451306426628283 6.927826540316106 8.801567928847389 0.9158266889397195 0.1360532662135528 1.0163141422335207
Ni 1.2818721743930959 1.7653740729208536 2.1180423966429416 -0.8308972379851755 0.1924100477367267 1.2095880806324395
Ni 1.1858514400013678 9.189526881787144 9.130533853736695 0.10199591951852756 -0.9301662454908433 1.6637929944576184
Ni 0.8763989283866155 4.475751435190883 8.114215029748015 1.804588146231531 0.25960042954029483 -0.08827959837369959
Ni 3.0572464780895583 3.9138495792769383 12.095708762643598 -0.5408886284666685 -1.0177632159752212 -0.03288338099158208
Ni 3.4610891309112377 5.183341838348747 9.905867486873666 -0.0009461659633532093 -1.237837819506752 1.5416154577848935
Ni 4.415685234226646 8.795230745566993 3.867953149753363 -1.0954149023214297 0.05412712086170678 -0.4987695878094313
Ni 7.5778970975683375 5.988786351540535 6.058499997361353 0.8123588128613558 -0.6975207472728374 -0.9767921728794984
Ni 1.789587594659944 6.232838279830098 1.956310886582522 0.4287211677317778 -0.3322348651775698 -0.6740686868974842
Ni 5.989434514646361 3.4363478192145456 8.752509389314675 -1.0898991147095227 -1.1344596749287172 -0.25052366405000726
Ni 3.885885970996994 0.977420704113442 12.032569342610447 1.5661466101570383 0.25928289829987605 -0.08294713041719262
Ni 7.056440619457968 1.4595522006460238 8.090647819220164 -1.4972495300750084 -0.08494822000762144 -0.4408395482618666
Ni 2.1982451734106205 8.750303782860277 1.6586503137573418 -0.6896542000405671 -0.36315649445709064 -0.23184048581820715
Ni 0.4866278965924298 3.6947704495075766 10.875769498959519 2.6057055818511126 -0.057248954320140114 0.3683933173759978
Ni 3.873043082028689 7.6168609597014525 13.596897109313328 -0.27903848366024847 -0.11791696162415823 0.04900188381999948
Ni -0.03731197216055027 6.572123887311457 3.6801201114213096 -0.525505461142379 -0.3043409669807791 0.46776054102242665
Ni 3.1653971220331827 6.948058488690834 11.328858658614603 -2.017205007933436 0.9117836292185975 -0.8202485000220776
Ni 3.1083495092475086 5.209509108878257 7.718627197052684 1.1590623039687455 -0.08698504793199213 -2.277174647887691
Ni 8.892834849831527 0.4881807102045313 11.366628974685701 -1.7349179354289024 -2.197102525025448 -2.5569188993657126
Ni 5.755299481875944 6.680413423349186 4.331099022968992 -0.18378631062345765 -0.867236695846158 -1.4034029791364926
Ni 6.7317664602765275 8.460778582960513 7.428380684210866 2.5490963179975 -2.363950922242987 0.10544094064433453
Ni 8.712117716454154 2.950549571397574 1.0160151132762345 -0.07649186171015214 -0.17395081259027462 -0.669957235832272
P 7.717863290535103 0.819109643357198 1.7939830664647418 -0.8158256883640337 0.012293986876004633 -1.0533686238836568
P 4.137697337610595 5.27142720443057 5.56350616696729 -1.2287433134046517 -1.2036118084443466 -0.7376296994785813
P 6.773276677468244 6.076955052878821 2.0706635255016117 -0.5039804425864095 0.6425510759051773 0.3722183475490428
P 7.495774832060119 7.6767327117339414 11.876502778094952 -0.4964831057680998 0.09497655077790093 0.9200512685440283
P 6.104677914862315 2.8710755151503027 3.6405479019160127 1.5380516516930351 -0.5599790694392163 1.678797952506883
P 0.30041341413035455 5.971165574534994 9.690319920083764 0.5147371668822812 1.4198960916955092 0.9913093926590669
P 7.005967232459963 8.04266708233771 5.2764717652884885 0.5841194141308457 1.0750664205720646 0.5964002883807277
P 8.76162811826636 3.565008195721109 6.879436534729687 -1.7033476168217891 -1.6132620755876022 -1.0407887303361172
