# total energy = -340876.1655486428 ev
CRYSTAL
PRIMVEC
9.19211217567410 0.00000000000000 0.00000000000000
0.00000000000000 9.19211217567410 0.00000000000000
0.00000000000000 0.00000000000000 13.45358532203477
PRIMCOORD
 96 1
Ni 1.6445516348661253 4.807750541247391 10.723933792982566 -0.7497725054887023 1.2060116761350907 -0.022816997894515544
Ni 4.723707057702231 2.0569465649514416 11.288432445141432 -0.24283657981839465 -0.5692957188544518 -0.6946789069486681
Ni 9.061391355754568 5.5564664793115215 12.42616225622586 1.0341853660869866 2.4932095341322094 -1.2346298540924157
Ni 0.08256723029596881 2.305942505263296 1.7897980410997223 -0.0659937903923057 -1.4623869138698684 -0.8063059217990566
Ni 5.449359985789899 4.586422859217384 4.964050462625147 1.019350100846367 1.2378447614852877 -0.5641344863684865
Ni 4.665456641512176 3.215474449520424 9.154357622792814 0.19624664787399748 1.0106327755780273 -1.0703111652752666
Ni 6.999766005598655 3.094846358679001 9.529901374322673 -0.34388941869736256 0.5574017956303433 0.05467219473189939
Ni 2.2394191879258445 0.2895184485542786 4.932501294493933 0.6414856107551404 -0.4614327990321859 2.0787901277350844
Ni 8.421675486363576 1.4709494003442083 10.412402992897542 1.7616322114952951 0.6601734169726308 -0.021968790961607327
Ni 2.287990309773446 4.678730051797554 5.773229358330644 0.197965173227001 0.17536234822582056 0.015230443796509254
Ni 6.197643894571889 5.488067971047328 9.385934510133206 -0.6817172045816775 0.44486126782675 -1.3099495498713376
Ni 6.648084977822841 8.622890826493023 3.7409038664050924 -2.039513955843281 0.9889722598854582 0.2684645647991441
Ni 4.456768114012912 8.846158044236477 9.981457460806046 -0.8625362050466951 0.9224493364625597 -1.4532790380313294
Ni 5.945697286184129 7.64624726970574 1.7965919313642118 0.21382399463612853 0.27967560302361516 -1.2124360916041956
Ni 4.457099030058809 7.820290725622185 7.823192675502445 0.9755377316471069 1.0834993818307663 0.732590594392777
Ni 5.2213312538305 8.950856204312968 12.073503187692175 1.076932527246526 0.6436008573259303 1.5052652012906336
Ni 9.157421353851065 4.336388210205912 4.814392761657512 1.2228747704390166 2.7137978440753647 -0.12819237540823727
Ni 0.12522690466813677 1.7692518314945445 5.274895531126175 0.8030511623071848 0.024094836165674635 0.9286107280782652
Ni 7.06733722374811 5.259827820503052 1.5616783072277027 -1.1047042980431556 -0.7059984457265455 0.15488839664218487
Ni 3.629468807160903 7.164663309691034 11.985006125696 -2.2027103581305294 0.621008059627079 1.4822214320972924
Ni 0.05466273472580131 4.5633506571285345 2.3076393692097508 -0.808062499478847 0.46322794325939576 1.3686822878258555
Ni 3.0480493145218963 1.4513610088496511 8.99244407838093 0.41241703125511553 0.4542339672909016 1.0307732550816442
Ni 8.296662757914032 1.8043565086966624 7.965073849391529 0.14002639192868788 0.37858234209385766 -1.317738449788137
Ni 5.48542064268016 2.5561518044101024 3.59193281623269 0.7095424543240618 1.8017743309318195 0.14945514144175553
P 2.8699797133803853 6.398252555283861 7.69757694448038 -1.4701652722637066 0.3974149014193285 -2.461187215589342
P 0.9906155676139969 0.49694030296675135 9.154896280578633 -1.1097143496632373 0.15274152550251113 -0.1419799161106329
P 3.145504090038224 0.3460159289123247 12.561303773313531 0.7936015868585108 0.3910668477141136 -1.0899405094704198
P 6.122921212986128 3.640986523980556 7.494346693315921 0.2892056540012374 0.8310849285159494 -0.40232262313359096
P 2.978042186590152 3.1876315411032428 10.568423474058765 -0.3565965818513859 -0.8415215504682411 -0.09989095736038281
P 8.728122129087904 4.080663643627508 10.59506221575338 -0.7510074063370679 -0.08838167116920263 0.4409251659971374
P 6.34701572084432 0.7414541692791944 10.287714746015224 -1.0596963658738976 0.883738293045607 0.7858432830693305
P 5.6662478775374705 3.7815890750367482 13.327754053803964 0.9844885130824915 -0.5384581646483049 0.039691662162667125
Ni 4.671017869505704 4.603042198411264 11.28217721266276 -1.003894428412929 1.2977540362464102 -0.7676673834912521
Ni 7.700453156445958 1.6854933034333506 3.585999307687529 0.5109987828857716 -1.4818784469355768 0.256225599530791
Ni 4.287725167234449 2.9004056053780314 6.066961471202663 0.11608299373921296 -0.15066227437597923 1.76878784870347
Ni 7.110751570547168 0.23533829972874204 0.45735630939893757 -0.15513008033934575 -0.6633883243655027 -0.034883442140746374
Ni 3.836162646272405 8.213575254057016 3.294150658643401 0.7405666706197181 -0.23532227371922054 0.871661564386731
Ni 2.239805256646056 8.877153847202054 7.647785110107917 0.3402173691624141 -1.522935879097519 -0.9186374189156372
Ni 5.040568363759893 5.838737866460682 2.7685999058752375 -0.6699508080743688 -0.39683228944298105 1.013011817333165
Ni 4.830721630099995 5.5537180377081095 7.172065717795476 0.025988710754277822 -0.9995850024042979 -0.31355271538703416
Ni 4.731198629296817 1.5949050358693617 0.30729783233127167 0.6130173281121184 0.604158849280224 -0.07615016210001724
Ni 7.629609546287088 8.917654294374751 9.012018681706907 0.3825228147988444 -1.6713360969121989 0.2649619509625243
Ni 6.574731920982594 2.448640857943495 1.572643578092957 0.6306494393715848 0.849895119243917 -1.2690504976641306
Ni 7.5032915378787335 6.5206087632538505 3.870314101420096 0.5592504188033078 -1.8616995465325419 -0.19265430253704888
Ni 1.3055741064077575 8.363581336084081 12.998571640304114 -0.38588967438854826 -0.18593806685913783 -0.7785200099350399
Ni 9.106533819682193 8.774597449311498 7.162514193815188 -0.64172472334914 0.9550871771022391 -0.8956844096638897
Ni 6.660282910959058 7.796354464969053 6.201107482518931 -0.17926348305243966 1.543285903508781 -0.10949299922652111
Ni 6.8630425259693535 4.9310167683435955 11.493411955292943 1.3841220194196937 -1.440024229903952 1.1618691772899217
Ni 8.716475722694847 8.636118276216472 2.137330668555736 -0.1887842780586813 0.31409033305805906 -0.0023124501832605337
Ni 1.9786757279846872 2.086480822047646 6.957400478822838 -0.18462860401909495 -0.6411246278712959 -0.7828224939651357
Ni 8.696299036007586 8.70788109761394 4.554146594996436 1.9800911338002738 -0.41804928984022843 1.0453167001134578
Ni 0.7682997335024953 6.495790059811663 1.3697368892844857 -0.681884069176845 1.5066782795880762 0.6433748573580532
Ni 2.169494789005574 5.754473772218258 13.212914236132002 0.9343070071320941 -0.765301968582869 -0.436487441940758
Ni 4.195620201126771 3.7158838557016503 1.9585597092391738 -0.8429590542457159 0.15843677611507553 -1.035393784572791
Ni 3.6010927562253348 7.625546632612478 5.641330818492752 -0.31857690807450295 -0.47749422337042274 0.1740863097268744
Ni 8.426997719435068 8.629049541791641 11.520183982617157 0.0028469825304918714 -0.2721836655219441 1.0301042540390775
P 3.1309437840188066 6.879312564892565 1.6313416501562106 0.11117501491463433 -2.2218645624614766 0.02308747794708282
P 4.990195587884636 6.939566861582768 10.560553187433875 2.9618388509128346 -1.7833482630161483 -1.0589229780429827
P 1.2109137330567725 0.9193215439482134 3.329399652009979 -1.8204567378326713 0.8355900154751544 -1.732205421593746
P 1.2223762972021093 7.051646287905215 11.184772993764556 -0.3520462434765421 -0.19491764464992883 0.20170612832667198
P 1.6342197005442658 4.069109158358311 1.06101060268843 1.0466562448604877 -1.2985099405758282 -1.1976730743624084
P 0.5290805239243858 6.66897864927621 4.261315309138245 0.3698030532393308 -0.6701865782342588 0.26242195814949
P 8.957594022691904 1.1407687234392387 12.952116542727769 0.5451108940781321 0.326509018437386 0.05627887709738695
P 5.361529351941709 6.809617968781946 4.760672218451275 0.14987551680862574 -0.16673938244349995 -0.4887903651095324
Ni 7.496608872174115 3.289728333374498 5.626034224271216 -2.90711651966929 -2.394760708534992 1.4208026626701789
Ni 0.9186597118564217 7.116910285845785 8.960653157693963 0.21190338057464794 0.39643968199025276 0.027224125823275696
Ni 7.3722120152544335 5.469729706837265 6.45450552545244 -0.4797591081451996 0.06081584573579204 0.08168908964037544
Ni 2.5377675796381105 4.212506111579846 8.137226487790173 0.4974920066485884 0.3256045043452457 0.545742357014544
Ni 8.219338708523036 3.9502827215445433 -0.02890092055280944 -1.543690080925735 -2.714402310428583 1.3464972670883841
Ni 5.076491138964365 0.8752839719293847 4.887566572306231 0.029704211932652075 -2.176304100222858 2.1783278155211065
Ni 1.8866810672256409 8.659429473227357 1.7814966444039295 -1.7348436305475412 1.0712025667412841 1.5766565085494264
Ni 8.218299999823417 6.64558472325385 10.329165657608634 -0.38500675756296276 -0.3342621800202437 -0.5923394880477928
Ni 2.7615035951132487 5.7284417099411185 3.593385169989677 -1.3738496909594082 0.40868404657524454 -0.2421452101783249
Ni 3.8926573689967356 8.730649959994054 0.9337154727334442 1.6185750031600834 -0.5862120349938162 -1.0389401071631525
Ni 0.836291950399229 2.796139474583681 9.23303475112703 0.9721747287121449 0.8399125541099084 0.40657857019646754
Ni 1.552897082265361 1.014790823189166 11.21198991932825 0.30077844644050133 -0.17445937679557696 0.17748350833388143
Ni 2.184909961476889 1.755206283768743 0.5200023937319762 -0.4126597433935409 -0.15690259885873623 0.4785943984131371
Ni 6.941405284059968 1.848938253768742 12.141026606857224 -0.33216930204695694 0.8360934374741342 1.3350741128531072
Ni 8.65963169969985 4.904129839614557 8.434631768771636 0.13275685485046815 -0.02690530903127624 0.5000073168712744
Ni 4.788226494539535 5.777674663880511 0.31975038698058017 -0.40002097158360783 -0.18266376698324024 0.09799682566146349
Ni 1.5741124776522393 3.1686865974757055 3.711198636018508 0.4015363797868698 -0.5615651829794134 -0.687696304983248
Ni 6.519845817925813 7.005216928243551 12.473667093036685 0.4201395967103539 0.4129667331109984 -0.14127980471981474
Ni 1.0316215809679243 6.863777894960233 6.526253639470091 0.35003949745915847 -0.9918567805221047 -1.2347774354138734
Ni 3.428409732942017 1.6374829004412943 3.1257925242376943 -0.985914704006057 -1.3010393918659013 -0.7095380834486876
Ni 0.9669366861076717 3.156203708855523 12.133775868607149 -0.5508897055434383 -0.7559359539869369 1.0319917008697777
Ni 3.1440333520564647 6.1058698445101065 9.680029711444472 1.2005182571206874 0.7831965894751027 1.0879890421710035
Ni 3.539055189732249 3.465904359364494 12.906737841511822 -1.6871290980803977 0.918199045826638 0.6488299669353536
Ni 5.729388497516876 1.014754054739622 8.052091900504797 -0.1568537478986718 0.42350877029290285 -0.5153830279963962
P 7.4161870809090376 3.7546653778581662 3.2917156680723503 -0.35881184433514984 1.0012284515449918 0.28263931363762934
P 7.844769320906092 7.079875265042609 7.843951222903738 1.067914640018632 -1.4832298187571489 1.5311706083024854
P 3.5964599315827925 3.6601061177434278 4.194464752599852 0.043851192856995444 0.4388878238521345 -0.9663984883500002
P 7.345380239199712 0.8876473630885491 6.244360967351235 0.04450296750838142 -0.3793989244578821 -1.2086755961204991
P 7.757848706184117 7.103563338661319 0.7902357905004356 1.6778813542298845 0.847165893238212 -0.3699028120419887
P 0.6702024293303865 3.713080261423922 7.0517372898178365 -1.1851533446288427 0.37707413297944736 -0.9464297585375572
P 5.318197734154125 0.5732008249546884 2.3133173370305804 0.6159139329336232 0.9535627700379126 0.00923977343071312
P 3.8490316036127994 0.8660155650105851 6.7889614538281355 0.3048035084394944 -0.8957931673276122 0.20263583922979292
