# total energy = -340889.2762550267 ev
CRYSTAL
PRIMVEC
9.14361201227430 0.00000000000000 0.00000000000000
0.00000000000000 9.14361201227430 0.00000000000000
0.00000000000000 0.00000000000000 13.38260043042852
PRIMCOORD
 96 1
Ni 6.332856324877147 2.234762706550615 11.701437417073356 -0.5390518323682458 -0.6369417001381998 -0.7649666967306374
Ni 4.71521425967688 0.4360899306018284 5.8924926701633185 -1.476014274845316 -0.8521798015130355 0.5396568129420964
Ni 2.5370870840413966 1.5639599208666009 4.955563237015456 1.114060285336759 0.23338057661181744 0.9538324787595316
Ni 3.9298511629118713 4.620934479362717 4.962548956359848 -1.4235843391803742 0.5351059603466204 -0.23271877465810242
Ni 5.5219459770018915 4.423706774835855 2.9356607758080964 0.14280806843888308 0.01699190657230622 -0.46823645221758065
Ni 7.342164759577803 6.327653609815684 2.3371775582007777 0.4748051065740339 -1.136300584792198 1.16089035831642
Ni 5.3135904970272225 4.650376909060283 11.654237179079006 0.4686925659183928 0.20869618649125993 -0.5080522986629379
Ni 5.743705991739489 7.771082441156411 12.555220331521888 -0.20866610458427287 -0.17582283280200686 -1.1539715197093998
Ni 1.6956645038988178 6.739646466124044 0.16027562653407537 0.3911984881959714 0.30101961591702997 1.1118023425405175
Ni 2.732595789567282 1.4942307379865893 0.7159932578250943 -0.5432838681717225 0.40191947415790136 -0.8214106386509789
Ni 0.32347263700863904 8.963482556684413 4.889654255106762 0.1668460832246933 1.474366711939564 0.04926465056308289
Ni 9.036613163119547 2.1762984532940193 1.4054005502499891 -0.21434130059217923 1.003450141786659 0.46098131331706416
Ni 6.751578879402095 0.5747482303374611 4.779448131920792 0.7708365252478531 0.5074437185446616 0.05126342616066655
Ni 0.45938145270388103 7.449318745175869 2.5779032523416956 0.7893590095320728 -0.15746592756137395 -0.32127090996689833
Ni 7.80688882460227 3.901889998310891 4.080381528088287 -0.723183185035948 -1.2462111311721118 -0.8836282498303041
Ni 7.86387181276228 3.80781137745429 12.455627198444601 0.36384272189083794 0.5578208854456328 0.5970641472169718
Ni 7.574366778885158 8.99418680479759 7.027136247980873 0.9810879720413748 0.07894058036096083 0.03184542664537096
Ni 6.797909559923078 0.5810518362484866 13.435059796252764 0.861390007257394 0.3019027898529317 1.221508229108793
Ni 1.734104247516385 6.769536932795269 9.117458234752146 2.038280854767128 -0.34584525687215273 1.8809002878307093
Ni 0.16881850295222312 4.890652737505201 1.143840222472775 -1.4360639597046236 -0.1504344746358893 0.3175659503114853
Ni 6.252557126863476 2.0354594021661914 6.987724538438818 0.03667292994100136 -0.4338286641616722 1.3077399438145283
Ni 3.8608443253567377 4.578837291062223 0.9501821839564503 -0.5653315920003813 -0.5109954404516619 -0.7232757447497543
Ni 6.239518336568839 5.785309425007788 4.812061566158456 -0.6544401140332794 -1.6811451125828207 0.7278008863136175
Ni 5.095935963946211 2.743229809982894 9.432350506534638 0.8411934777048609 -0.8999886934661985 0.5428902322777296
P 0.11068433407826227 5.5802456452477545 12.43451002720655 0.826367725545938 -0.17726882121991408 -0.5261464371604875
P 4.154619425901177 6.160435238912241 12.728779797144355 -1.2236242470105314 -0.5365496347716824 -0.9568774362334423
P 2.162345301828651 8.624419147353626 1.5405915924262068 0.5044481262514474 -0.9078102463931461 -0.7941281487859421
P 6.078874222482959 7.673209221441273 5.893750831134246 1.263364760133263 0.928895863418852 0.19192076680513398
P 4.719786065530538 1.011859502366997 12.643063923555268 -0.4700907318175001 0.2820836982444755 0.7445459669824404
P 4.046377350509939 6.167695266607852 8.377441051527242 0.7733585203387584 1.0965724129646406 -1.0886423594842864
P 4.670803737614434 1.1957558210245887 3.6609174266538753 0.5160106342780661 -1.093310197273601 0.4935859867259628
P 8.987749702155636 5.617560724625322 3.7797148874000417 1.8880438408540257 0.6198757457948486 -0.45271444532258165
Ni 1.5829512023827015 0.9776806818050402 2.9986529455821556 -1.597515868496939 0.7529563025333226 -1.2328403662921605
Ni 1.826317571584693 6.873655239306506 4.841208657197876 -0.2465752209252205 -1.1342465304766465 -0.3427691890499904
Ni 6.379863632664473 5.805251642141451 9.292007953522516 -1.3158695149001982 -0.16038155854627217 -0.8178766573557914
Ni 8.666360894255096 2.408098153686253 10.36398030233694 0.06252640066899555 0.46501177463269594 -0.04704810252773833
Ni 2.469515793524312 5.28021631429551 7.058009652910634 -0.6532952017955588 1.079086340364735 -0.1534328951425809
Ni 0.6278003798244943 0.3307491232053232 9.503171436652503 0.16846433555440665 -0.7387882385630566 -0.7398400768663387
Ni 1.5356787298558643 0.9724413922967466 11.614196389051488 0.5222049360142361 1.2359951098710584 0.6067808602841033
Ni 4.226095038617286 6.981824165804085 1.314571568994169 -1.036027561502048 0.9345394348578743 0.9007248003012747
Ni 5.647981520775571 7.9569629235544905 8.112679545291297 -1.1109086270816544 -0.0344538108024955 0.4768835863696174
Ni 5.3248097085921025 2.8315845299107134 4.89863419616452 0.3109224768530387 -0.3742016965276588 -0.20455825306348638
Ni 0.6930117041599198 7.627527737351509 7.072918311799417 -0.5724867149879238 0.7332876204598017 -0.8554505018445073
Ni 5.32976554613747 4.320365675319741 7.664442326536295 0.5706910565400817 1.1855989168066936 -0.9339192847753722
Ni 8.4554726338375 7.305187993833406 9.27063567551783 -0.1321896694930885 1.0545598159782805 -0.12040347549143779
Ni 4.620248708484668 0.11838234077465377 10.700125070810751 0.8749533477641255 0.3510967350790792 -1.4988132750177028
Ni 7.953470063882294 7.3275441244578 4.596347307481738 0.2783900514429722 0.08500529849780199 0.8081568589648663
Ni 7.4475540281163575 6.3022069384342165 7.178426447290166 -0.19554010872527613 -0.285291920769128 -0.9893047035242123
Ni 2.1020797570657144 5.583354473228242 2.3556988580751224 0.4702596532951966 0.043041809581822646 1.3108039274518328
Ni 2.3386067047106316 5.194549816209642 11.585009066120556 0.740592381651331 1.3837214415471653 0.10857871494236784
Ni 1.3557690259026638 3.5311165435791225 3.927498511619578 -0.7029588875692732 0.32952543666620665 0.07954093294912108
Ni 3.624673978568406 2.89147518659365 2.827073986255493 -0.7407337923252018 0.04113430814646464 0.20909213637809795
Ni 1.3015382648665572 3.400984661760564 8.098547179036466 -0.69559062012966 -0.3750403903788702 0.9061434002136847
Ni 3.6747443962776827 2.7293406637994773 7.240361615550859 1.064155944307148 -1.3021094850016286 0.3366592194975105
Ni 4.107868139241657 6.800862946504542 6.069464531674958 -0.15035399910694106 0.9824987363459724 0.34380791472714983
Ni 0.8618338645568259 7.439919112340746 11.383627418795058 -0.018349963262097427 -0.2845748400974454 -0.051661432930033606
P 0.2986971067264886 5.807802709807792 8.041885131647382 -0.9708652658721021 -2.713959823574526 -0.9696367927816398
P 8.626412454705822 1.6738204155300336 8.150417973890912 -0.5464969757923813 -0.26418573491813213 -0.30256999112328536
P 2.0049928879574055 3.3737549860961695 10.460255218725637 -1.3766537360671063 -0.4146765167132536 0.5939384571037964
P 4.086664103692385 6.158743670746387 3.3619899009123624 -0.49164171851539845 -0.5551106856033214 1.1589252641702492
P 6.861850836592358 3.820036386306975 10.196082561083642 0.5398455319141348 0.6388345462855385 0.1047256597448648
P 6.643016777601102 8.070974617933045 10.252610197380626 -0.8622682960972892 -0.49255111770354526 0.47427623065375746
P 2.2806819245447687 8.719732155790714 5.855396123105557 0.9112665803728629 -0.6590339040515488 -0.431031046811877
P 6.860534156506503 3.839548853690393 1.3015592951734842 0.8049067274586849 -0.6229487282932175 -0.14889258407006614
Ni 5.1332784741588995 2.4626946591906522 0.8043132320284261 0.0005407029948184237 0.7359739090427132 -0.4139465805257645
Ni 1.3925537758012065 0.9350988820840574 7.291242157257404 -0.47056921411581537 1.418079607312061 -0.627094632140791
Ni 6.737762882112337 0.9057716618940038 9.29904670581481 0.21316116424114903 -0.29156232715887204 -0.08674747799988931
Ni 2.893706227850236 1.7126990525095525 9.472043839317278 -0.8208498810515025 -1.1748537624750477 0.023637694023598
Ni 6.643629399585492 1.7498495468763877 2.51251637066149 -0.37486144159884477 1.6254776438171878 0.269020180192298
Ni 4.045563569067988 6.764270212451853 10.520410125786915 0.1505270343496956 0.28733646200298263 -0.08363232940967531
Ni 8.094464556409147 7.096905662752396 0.09267507645952756 0.3331450356966649 0.9160308345307256 0.15449167542439846
Ni 8.032388576528161 3.8954254648338167 8.131990853217154 -0.650022701691874 -0.1106916475203126 0.24466463416606896
Ni 3.2521266631654173 8.366514435536997 12.534692008877785 -0.0319248737330547 0.041961946254082574 0.9344242494362487
Ni 0.3246585634470782 4.991890806328632 10.181897161880908 -0.4768432200499852 -0.9148327004575665 0.0625305144340536
Ni 8.491589900081408 2.258984133963301 5.899210481684686 0.44431336574308 -0.05664937306292825 0.24867041289135236
Ni 3.7304564224103745 3.002789515518547 11.818990432266155 -0.11786168290619056 -1.342746027576068 0.44928433659511013
Ni 1.4206795254129185 3.394328112437636 12.753242615906116 -1.1484727013783578 -0.8174742797110502 0.46494723994334763
Ni 2.874047462679501 8.409224245821882 8.027860660010697 1.6744941829252065 -0.10182262716545691 -0.0648283093292948
Ni 5.6630684800926465 7.809293594481296 3.6582676079810943 -0.895249121898684 0.2982659644312928 -0.8877715825747163
Ni 3.261498865165419 8.440486254249205 3.510898189371899 -0.16112512158051603 -0.4675083158023045 0.8712291048350027
Ni 3.4570898631966704 4.327918298589986 9.210240291468649 -0.5427585917958717 0.44675899907009514 0.7881148527123265
Ni 7.426651731753427 6.2148854466293235 11.192269912984294 0.6157172435417848 -0.10667327038953887 2.3257749253938975
Ni 0.36404284215401156 9.20651975586494 0.25435881919653 0.8837364932733941 -2.1685673937002328 1.3130724117710353
Ni 4.574338634102221 0.19477813095047133 1.7084628172055516 0.4100127926889971 0.5379619417381768 -0.8627483210575013
Ni 6.080264051462471 5.680541922065332 0.44429266466446393 0.34889895609681204 -0.7092112962368883 -0.5579458410592714
Ni 8.322103913474551 9.032233373111742 11.375370737423351 -1.4204360233593794 0.13513923903971564 0.17160288118338834
Ni 0.04599419561015397 4.828147007873971 5.920970448825762 0.6484075346859542 0.10378000800214385 0.3058558609634087
Ni 7.791527556933975 8.904698277018062 2.719397900428939 0.46144694009957304 -0.36666785004445884 -0.972074455688855
P 8.566174340778005 1.6242163220178303 3.7229860916454953 0.3975282870687412 0.008098203627102181 -0.019282502378695825
P 1.8054152752217627 3.468473659772282 1.6187731299684636 0.8616556022139548 -0.3955943032708219 0.11922308203009147
P 4.44353926862903 0.7853758978213985 8.255231194891905 1.891705348866013 1.169737781404721 -0.4079823925225296
P 8.798303211191703 1.6726774640666189 12.609313024021214 -1.363194525238407 1.62984543386758 -1.0113251736593614
P 6.272609067337625 7.918925498852045 1.32149419741778 0.9510677715302007 0.23746683086604906 0.19878432669418666
P 2.131193016741817 3.3962025528376363 6.11239561736316 -1.5985134565235182 0.29449544164526703 -2.49588990917785
P 6.8647219306684555 3.952344447711875 6.157855826049606 0.5603369669992672 0.857213250171885 -0.6739663569916651
P 2.5232162250813936 8.556162085958492 10.455597462921927 -0.4118629585238584 -0.20947394519754892 -1.0481012048371303
