# total energy = -381172.36769756564 ev
CRYSTAL
PRIMVEC
9.18663028004703 0.00000000000000 0.00000000000000

0.00000000000000 9.18663028004703 0.00000000000000

0.00000000000000 0.00000000000000 13.44556201366468

PRIMCOORD
 96 1
Ni 3.6270928599668317 2.3229129163840336 4.81091600648795 0.6265942954656047 0.03638290950440831 -0.0716450751408121
Ni 0.7762068565571497 3.9762766704523895 8.070954304416015 0.2718265392928415 1.2141322483596961 -1.4422099247013613
Ni 4.956159384517938 0.33748004372526813 6.527457134486595 -0.2541391493154075 0.4928084851299899 1.4166840125161149
Ni 6.489012924801776 4.48153213987873 9.961520522579644 0.2922056171698258 -1.7545835321786298 -0.8686554305705556
Ni 4.587150826254748 5.189848881259101 4.4767532548954465 0.26988895595049645 -0.5455474673949186 0.1852934912966035
Ni 0.17171740868132307 -0.00204218787347907 13.2562218132392 -1.3755455906045924 -0.2762272394636984 -2.743008147090734
Ni 4.907323258852555 5.5967890352469665 11.410374273125601 -0.4498036994336898 -0.0981994285905728 -0.7685459294414635
Ni 4.278066656199852 1.8273493417238673 0.5935729753159743 1.9896314691905415 0.5458716835035567 -1.2401654391986643
Ni 4.862161785231218 3.8743785692709687 6.396604612524106 0.5354880262763875 0.19600984927284307 -0.1773600953821397
Ni 8.564208360266498 2.005092261094416 4.9016872612799975 -0.5936731192575517 -0.1633360131889058 0.11469408381148635
Ni 1.3928401107755404 1.0510423508985172 3.9490291255457817 0.31246231053633283 1.6731304698084604 -0.4452207080486978
Ni 0.5106461839749566 8.245119950021683 8.338265030034185 0.24579386267450573 1.188896613721359 1.161114044291452
Ni 4.037624986327753 6.845242880581793 -0.28322564362093755 -0.33349496283691593 0.3731380311498348 1.5879781042098329
Ni 0.1173858408840675 0.2773636549476717 6.283581502279334 0.5356032116980131 -0.35571212236390354 0.05875767765518267
Ni 8.975126325092043 7.609754238345753 11.329418932606215 -0.3523542616352641 0.04798269852686575 -0.17417629833751938
Ni 1.5011321065136027 7.282682646535248 6.139862186184615 0.9809349914032783 1.5324119369087543 2.563950095180881
Ni 4.0911003601987455 0.7441712400371489 11.625973457853922 -0.004342593239411876 2.1532186791583046 0.8289799663578046
Ni 7.095817403465352 0.8046174288356984 1.0701670774617593 -0.6816169315583874 0.011936089315953637 0.136891445844132
Ni 3.1643347414298946 3.526269594508295 12.603116718820635 -0.42125982635772613 0.030940141222282197 -0.16292309402120328
Ni 4.551984406193219 9.173686148292118 4.304193432233026 0.1179069343218292 -0.9418429104978232 -1.2083698919546222
Ni 2.0951855425843364 1.1606664080025466 0.2720712373412332 -0.13540997620259904 2.057118556298922 0.11095030049833796
Ni 0.7784079731315338 1.9429722682898032 11.660946040020129 0.44169084051856833 -1.0755734421154703 -0.545876568599563
Ni 4.402003483015444 7.3135497237052425 5.870426593021975 -0.3182935725061292 -1.1830555815595496 -0.007669343619799695
Ni 2.1823850355895695 5.584625936981171 1.0494916477359293 -0.3442784266056652 -0.1542422784177537 -1.089823524276581
P 0.7777704210018916 6.152561783648841 8.183991194605953 0.03086480789965652 -0.5181220241941141 -0.30001225769843815
Ni 9.186106472200997 5.8452598198353085 13.12651210806241 -0.03714112782667152 2.413122498871631 -0.8665496970814623
P 5.042605573854142 8.921458031988738 13.301438406641198 1.9830664143785137 0.05423613563574531 -0.5338759445942611
Ni 6.139011504236419 7.764989913946515 7.534906169523572 -1.2692289322235235 -0.8821848325155581 1.0603368276713738
P 8.218708388455097 2.715650540221657 6.958885169695988 0.2951428454212788 -0.6765546865441315 0.633203059031374
P 1.8711695673491267 3.5751608399543393 10.657664979064108 -0.7973505123779817 -0.9937295720647853 0.5258836704174039
P 3.24625192212181 0.9366596193974469 7.774694669994842 -1.3356091594209707 1.0255019793803757 -0.440870401499802
Ni 2.857216510218564 4.21521173298643 2.823567721451227 0.07453679486631035 0.34088174221929035 1.8668337824353138
Ni 3.1635263179802044 1.8562045468997457 2.508807132651289 0.06162882855539063 -1.0219101482640593 0.7417815168634257
Ni 4.602125033334239 2.837171283318288 10.296665324930919 -0.3195153607283723 0.30078564552935294 0.010433793738814288
Ni 1.2096770796400222 7.784612555861726 1.434950704537307 0.7815634247470541 0.16365611553248588 0.0013254036796428786
Ni 8.227224394567175 7.149807228622511 6.971389091938869 0.8940738706436603 -0.29391334388955187 -1.6764425649008288
Ni 2.853532671544407 5.488699145371327 7.223036613219289 -0.5586593221865283 1.7403110814200158 1.2757993863521897
Ni 7.310398709577471 5.370797934538082 11.745357390786939 1.904205795325869 1.7612264914164442 -0.31337968014427964
Ni 2.142882526116065 5.9842443467712725 11.95846883608144 -0.05205146927960068 -0.5253581369312371 2.4515450645138874
Ni 2.6800707218051727 0.12362631871787017 5.690403552058094 -0.5335658695530101 0.33305941796139416 1.2486256541508753
Ni 0.44852986582238774 5.223527067242792 10.394589289926703 -1.216899526692188 0.09162203248337124 0.3006884578298563
Ni 0.575216251029938 5.391155506862102 5.8518447962982405 -1.7950367550976698 -1.8253102092702305 -0.19078588186974238
Ni 2.4908261415367567 -0.05124761606928921 9.715950875780077 -1.5467424945988135 1.8468514257761162 0.880015078557749
Ni 2.512828120650488 6.621502504249887 4.2100341482563675 -0.38388807057748725 -1.1680845620720142 1.10737644555868
Ni 5.402482621787875 3.62771755081432 12.387570816546953 1.2294344259344052 -0.9574327945162803 0.22602413624674625
Ni 2.269694768156124 8.474877569075717 12.536950934115524 -0.29983845112473523 -1.3502130253770748 -0.8452414225219895
Ni 8.674264188985703 4.661847315680111 1.4902661604193561 -1.3235794819499462 -1.436046733313443 0.0036777059619033437
Ni 8.787241366079924 3.117694220360829 9.75366566703415 -1.7449071854311304 -1.031060961525392 0.8748980690461579
Ni 5.895804658701174 7.108265287264561 3.966683072628394 -0.1910951855800451 0.3373752717279286 0.10572941841903082
Ni 7.178258222073545 0.5446201794481924 12.188146531453514 -0.2681130949969963 0.2614752779655045 -1.1065500930026426
Ni 5.443997003255496 1.499643872435764 2.906473383542991 1.2606861848598354 0.3297786903275933 -1.0634735735281429
Ni 0.23605780998355141 0.7044160982356162 1.8145863565118812 1.216815451618814 0.42241450878745956 1.2378984975413585
Ni 7.874522104749444 6.420104012345786 4.725631007197666 1.208659141060267 1.048458845286865 -0.05076951724338353
Ni 3.5150343458836213 8.792927890118087 1.260825480104122 -0.43869164868092836 -0.7415213212235036 1.8091238293183554
Ni 6.078738024083939 5.661490471112522 0.04618762020463662 -0.4187445161350401 -0.012277788926088532 2.2975776370240752
Ni 3.2036535183011963 3.332174473541737 7.980290533196256 -0.2743469917218501 -1.8092048190679357 0.5848146404256573
P 4.114048562213818 4.526050549392358 1.1444565991732447 1.1312028585543163 -0.10950996850738559 -1.4380617068609427
Ni 0.5679909664483307 6.080676403037173 2.8672657648960214 0.7118135097464258 -0.4755995774508712 1.6363166434142207
P 5.384541133182816 6.9066646894980375 9.577260321007635 0.7173346966749711 0.9400305398794327 0.11815478866657715
Ni 7.983585777416756 4.313738340917437 3.9991265755252843 -1.655706103684426 0.3418338217199145 0.02709711332710817
P 7.725119939268605 6.459239056614886 2.3508218986585696 -1.075701225942586 0.2785204063732494 -0.582606577030745
P 6.2865763436952316 5.859352110424227 6.100533304020192 -1.6286591268689627 1.5248186979425287 -1.1216378405737006
P 8.614073388504215 2.233683178124464 0.2603628772658887 0.4222957238214082 -0.28348186414358273 0.8132576705265413
Ni 7.671855857890146 7.6154499490140255 0.30254420807950316 0.11840032901847997 -0.48645863165256226 0.025933946256942432
Ni 1.3764511626590912 2.4501201835188273 6.126793286189962 0.5988875735789557 0.08959240364785216 -0.0468239023320742
Ni 8.148109136058846 2.4271903547639746 2.587948113723928 -1.373181718358106 -0.0013683411024363532 -0.04005341637746006
Ni 7.671139300741557 6.448830604700124 9.09184889128216 0.18635998488790487 -0.14407485096644865 1.499143918884244
Ni 0.5603495275227351 8.187933177586203 4.310229966878384 -0.04159145028854127 -0.8471008443282315 -0.07286120693610033
Ni 2.0294092709958966 6.8125568506499965 9.942697117484013 -1.3066382261099174 3.3285249557897387 -2.215609068470068
Ni 5.8959792046732655 8.030694816621436 1.887179107642028 -0.7655881323647202 0.33833917830309473 -1.030209412158374
Ni 3.178472965169365 5.053206945001217 10.092655074086512 0.7151315183760651 -2.287266742016371 -0.9069111316176446
Ni 3.9417349412383484 7.853291802564962 10.999074144487475 0.06504093956073315 -1.7942782796650905 -1.5265601061136678
Ni 6.252677678588899 1.8497463459323331 5.4476440954092125 -0.12345151828914223 0.7048514766062957 0.10274076810435208
Ni 7.855717072914033 3.202266337154569 11.995538725901786 -0.9529891569226299 -0.8144822869622619 -0.31619195278209417
Ni 1.252275483460636 2.80753521458305 1.8965908101898432 -0.9862170657378241 0.9911654108820349 -0.7450630158281748
Ni 5.803763811627909 2.54356658499894 8.227083839126491 0.41949347848592267 0.5841417827283488 -0.193702284185589
Ni 2.5368695316486645 4.421910910464068 5.382688189889606 0.13805924089998803 -1.58141407783907 -1.8086368623796076
Ni 5.963758161625711 5.07308681255951 2.4078442304150784 0.5047756847941952 -0.4361362292489263 0.7653289651660626
Ni 6.434030943592725 3.2018437521695033 1.0209092854743216 0.2071995473410754 -0.35871542796660155 -0.20471534746664097
Ni 7.061753379017038 4.618541541341019 7.513124669532484 1.2292526489409024 -1.3572897297181978 0.7795587356121995
Ni 0.876649795529128 3.8701710926805353 13.0784577646194 0.409200838310663 -1.1355961025260055 -0.16260453433951996
Ni 4.7481281456743325 0.6236913421319937 9.252764660280006 1.2776927467201609 -0.2797565927731956 0.34386010812132395
Ni 6.127813002132185 7.5161057310032175 11.765633202102979 0.9449585733086694 0.7187369763391364 0.8682522815948658
Ni 4.055906380246886 6.479954907513201 2.5977226881610926 -0.457935841622521 0.7181872744832535 -2.1551495776324305
Ni 6.960948486818721 8.69288548821891 9.887893356899097 0.6107832965752771 0.8552818374771269 -0.6106082044499936
Ni 4.782605568477603 5.164530528675618 8.518825488859507 0.9109037977168053 -0.07809623008279454 -1.0628950753168533
Ni 7.192350512662465 0.7058409445656955 7.485628166949892 1.0476916281035376 0.5052983900668846 0.3522473037437546
Ni 3.586515514770444 7.943302404383891 8.154450666823859 0.5544432272226516 -1.6465144098828286 -0.839815880631044
P 6.76117602844411 1.9315624736930375 10.302258145341959 -0.5719550108541698 0.06389808420554158 0.03306335821287209
Ni 7.1726360044461535 8.760471525939042 5.299017281509669 -0.17389450543104246 0.006663785173420781 -0.23408865842243554
P 5.727184063029971 3.28852879388857 3.9747902737005725 0.05686174618405045 0.9921128623969687 -0.027567110984991233
Ni 8.06614602221638 8.526892268759202 2.8712729729500546 -1.6140123234900656 -0.42911403229482226 0.3990745485099385
P 2.657471611734284 8.469567696872069 3.3287175446312998 -0.162766513838681 1.1822387420852092 -0.8509870667565151
P 0.3651593602470515 0.2537099197401418 10.24590827490951 -0.17863870498424717 0.06420738791584425 0.06432231622715374
P 0.6528625673836601 3.486225073858294 3.873867792636846 2.4124663533448714 -0.1802656990647089 0.8349665229585427
Ni 0.8560947106577406 1.6607773645672208 8.33444614789741 0.18718865143678728 -1.735415186780295 0.45475667256359104
