# total energy = -340854.5301170654 ev
CRYSTAL
PRIMVEC
9.44079956636287 0.00000000000000 0.00000000000000

0.00000000000000 9.44079956636287 0.00000000000000

0.00000000000000 0.00000000000000 13.81756445601286

PRIMCOORD
 96 1
Ni 3.2004594356961764 0.32636372675846226 6.265381085784214 1.0990059621067978 -0.2967245880861019 -2.443375898439534
Ni 8.415453365616488 4.872358984802653 7.641983747850595 0.06675997913436889 0.9877257890728666 -0.519333270893396
Ni 3.8842187979724137 8.598888104647047 0.8820265417849702 0.12689911051811048 1.2802867326995822 -0.5495612165400019
Ni 0.31239417537691216 4.441509206874828 10.828659615920184 0.6660802693753689 -0.15057639953039229 1.7178100721040221
Ni 7.412273984793676 2.6155641283416076 7.3836088845302426 2.224386300442066 -0.18342481351898088 0.35331045490094637
Ni 8.724630116440563 2.156420273580299 11.636199191803083 -0.08405296188686168 -0.6800696416759255 -1.7924916200783128
Ni 8.292317014552381 0.3621245321096643 7.324787981723764 0.05749166645856551 0.1531485311329427 0.11256932415899967
Ni 4.559424795680371 3.8655260144788213 12.465917094445151 0.8311859728701879 1.6479277452905876 -0.6120881314296298
Ni 8.037575915053585 7.476471423054499 6.547176685110075 -0.5680338214228927 -0.5461673603671046 -0.06978822443773142
Ni 2.747603153564531 3.3237373987564465 10.35637511199487 -0.531288386372743 -2.6503417325032483 1.312071995530979
Ni 7.9355114290186215 3.7322219220901696 9.753431827769239 -0.7910132573060442 -0.24057426614677924 -1.2944733086126095
Ni 6.272920508459964 5.827569662124988 9.82488263247356 -0.8369688981005521 -0.34852048971147076 -1.5018806010891166
Ni 7.509551985358312 8.476676951957876 9.080309414564836 0.13804252872943967 -0.9053509862193763 0.40929854023079193
Ni 1.6507710392788706 1.596429795951032 13.44873267021964 -1.9458859486734745 0.19359738317660852 -0.0924031336237699
Ni 1.9644038475822267 0.620642895586129 1.826364250041865 0.07621058302430746 0.22376002280291787 -0.6359086308879951
Ni 5.921505619580164 7.562949148711727 5.265252027358767 1.4268378131206652 1.8439843886409661 -3.762722059034423
Ni 2.169486340426326 6.909541957613217 12.728671544766856 -0.6191977458912175 0.5414604418097384 0.490735147540729
Ni 0.7855793315978269 3.635774711903026 4.838026572452755 -0.17781852307579699 0.2610358764352408 0.15752711981661258
Ni 8.46615046024305 1.7782784806245593 5.259573386312606 1.8656536460842836 -0.5709610223720166 1.912860899897706
Ni 5.2998100748225525 8.39078455588479 9.916603778308739 -0.7019481869165717 -0.648096945424071 0.4333558382903117
Ni 0.8219198020533252 8.828261775233072 6.146853733155245 0.4471899159599266 0.8709527112451646 3.4817318509644424
Ni 0.1166514657197887 3.4110742371903995 13.283530003655153 -0.606836139002071 2.0996764842657902 -1.046399134544359
Ni 8.948886873565211 0.018832507329807503 2.686963952727311 -0.7680756746732642 -0.8898089247197192 -0.08879124790279547
Ni 7.514848274014829 1.7564135884169023 3.392529674252791 -0.6295803746771221 0.01910303937803807 -2.4139334248087008
P 0.7672689004938757 3.6642104007326735 7.2456268758683215 0.6112772054925603 -1.6093915368886025 -1.3107285941292073
P 0.2811224703040956 5.863624076348236 12.46036212787564 0.42363501145812205 0.25034060150492365 -0.9734386830262332
P 4.945317485226131 4.045514861602733 5.344841745522597 -2.1039684267729246 0.7672814609067431 0.5824011458881583
P 7.266659089538536 7.686444250166114 0.9512899131885524 -0.647997186621413 -0.4349846321429863 -1.2904343626565453
P 2.413030651428453 7.712283719066096 4.932635658929695 -0.22814683901670385 0.3051837745970486 0.4272193863752707
P 5.55190775039296 1.9891481837118765 6.778012735576482 -1.7509623904862748 -1.6855807797566713 -0.6146242675879221
P 3.95341041929794 9.140799450766096 12.11779704467609 1.0322662946874028 -1.2033431281639921 0.7793070246127095
P 1.7864636540028145 1.4230778310473198 11.233279075838617 -0.740854377063466 0.03575221789894488 -0.33744340596170275
Ni 3.1057021286632516 6.39195955243507 1.0005548384939136 0.5889798275469404 -1.2120959346559579 1.4056195271718372
Ni 0.3597256248946532 9.282968454114588 9.561906323357867 -0.1222307585081637 -0.12187054695526753 -0.0708446907267038
Ni 7.9498142406311425 5.825709824575373 13.663996121507926 -0.7551628232663382 -0.06717341252270366 0.07815665100708474
Ni 2.9945744748738172 4.582356498259126 6.768313257919251 -0.08684955079539236 -0.1708346355587961 0.8654384662951548
Ni 6.9231555908444085 0.3234333025178505 11.168115843763955 0.6749261498017731 1.2908151430347319 -1.5440374369628247
Ni 8.699253246728048 4.21471287461898 3.0341436988418455 2.0262018121154073 -0.8832538972100208 1.4174872251437007
Ni 5.608741364853278 9.079830766017803 6.950856785453954 0.05161515307313047 0.07400097696749837 1.212452546664428
Ni 3.6281182233104485 9.002614464909675 3.3869341122443806 0.4973606232770467 -1.0076742071703355 -0.044509138155968506
Ni 3.985329763233211 6.2524906178134305 5.539199489857241 -0.6555294904427162 0.8527788685496153 -1.8324079966572766
Ni 5.6747514366649945 4.005854061877186 7.681778606932511 -1.3054125812329325 2.0713809797552067 -0.7244232280906362
Ni 3.410394499608814 2.659029570364083 8.197960941508587 0.7989417681245015 -0.7682577087770833 0.0754042850729282
Ni 1.3681512581353386 0.1201152951459499 4.130415973702672 1.4664932227287582 1.5044126234823512 -0.41668840493695986
Ni 6.740740458186227 0.1806421504662135 1.5339156522846062 0.4846269777604621 1.012899974345649 0.7227689803166649
Ni 1.126117475092289 7.749338858062233 2.1558443847959006 0.727896017130585 0.9400824761632908 -0.5137483206064507
Ni 8.234133365728638 0.6596428393295793 13.321431038308376 0.9837740035139703 -1.2871595485600156 -0.35028683758327417
Ni 3.0043457026091045 5.303709125116923 11.166139884377488 1.3058900350899834 1.9887436672689491 0.6479737895826453
Ni 2.4212158248067084 2.450331251217941 6.0571094907865115 -0.7123902081855021 0.1668208864137127 -0.8514866321007528
Ni 9.575991996576272 7.605017352372055 4.5413362233704095 -0.9597647850835664 -3.1915535486372906 -3.0525234591836012
Ni 9.34774178115981 8.343618320362575 11.752419212974562 -0.25684652094424154 -0.6021479894977824 0.9011904270837835
Ni 3.647840053976163 0.7932414846702511 10.161202626642297 -1.1192387442139047 0.13862436937483869 -0.07098635851089065
Ni 5.522131467999632 0.42707156987018047 4.686476246398413 0.49599099662302965 -0.5958017355647803 0.4445432223656989
Ni 6.801019964553192 5.706208181412798 4.053424363628457 -0.4784619866003309 1.4200588425256189 0.309367473661093
Ni 6.8225166655708245 4.584188013409509 2.094867203327837 -2.0013636700258046 -1.2249470795870132 -2.935048727303184
Ni 7.063455315843541 7.370573972323373 11.45484426095618 -0.14220745874040672 -0.19381541272468555 0.41030666978033203
P 9.306834795868024 7.046395790705701 8.196109600678742 0.17255290380148347 0.5145201657754687 2.1809642247026892
P 7.374208680224905 3.6251254897915253 13.65606490564279 0.3369045027390972 -0.24247971069960825 1.282087533353747
P 7.991410404304259 9.038914339926272 4.916013242820013 -1.0047840301067341 0.6966396302194647 0.06303959285998821
P 0.8918761281581344 9.072004343029828 0.056412554791724356 -0.6881228509977053 -0.6522274226526766 0.28566370228624993
P 4.965992836666013 1.1755589433528677 2.1107985528962394 -1.2399340399141485 0.08138492813639532 0.5911123005089111
P 3.3821665083735404 4.237587932399271 0.3270547932997405 -0.9506337693165758 0.19890542565308325 1.7308746185974642
P 8.521973909130734 5.131612786579194 5.332461080738002 0.6169637143543761 0.5151829961704482 0.10296625385159686
P 8.007185980676882 1.5990354566804421 9.29781127947248 0.4184953762387115 -1.380897598945125 0.316781506736977
Ni 6.219863213897342 8.983751747020685 13.167545058397309 -1.8331237917773786 -1.3987153438528361 0.29887351610830465
Ni 3.737971369134411 1.7760221294856864 12.826554700595098 0.2094893718165166 -1.0916549210583653 -0.2851852199879346
Ni 5.539729118722892 3.1944928502578174 9.845636342551321 0.3431309432647833 0.2235471354611634 0.7419684360632511
Ni 1.0996265910099552 6.3720017017757495 6.579744611987775 0.36188019884782835 -0.8642429033251567 -0.3859544661882127
Ni 3.082052925303934 4.627946120224056 4.307059001397226 -1.4470906498324303 -1.1292848155959971 -0.8210853941010763
Ni 1.2658601929065116 6.386021289395944 10.140212896570933 -1.7264268672387557 3.6429176505795646 0.8894181170392038
Ni 3.1965320630025733 1.9636580244024318 3.780803333494048 -1.1395124068612763 -0.06865899592929466 -0.5076756320498095
Ni 6.866860101969514 4.437902821372529 11.700064313912911 0.5248943099209411 -0.3645168651397271 0.6370825965914383
Ni 5.943191136592681 1.9511867279402924 0.03270387439401753 0.3552446958091817 0.2937361948817393 0.5266981958988993
Ni 6.89349259804801 3.717956873676625 4.822219841440975 3.0669321784097634 -1.411631537693872 1.8974057416849
Ni 5.2815515681171945 6.710680951800572 14.04956121530256 1.193793536802344 -0.35632430202660564 -0.676217357809371
Ni 5.390394548368524 1.0958880343112367 8.835890885506391 1.8701924144949018 0.22950798103028863 -0.8739701579152497
Ni 5.446520102848023 2.4539281959204953 3.862340688645115 -1.839281326738342 0.9327946842526257 -1.5249950756193928
Ni 6.8248485431076515 7.716843625342563 3.150805549441353 -0.7612452820149922 2.616775980732661 -0.45803997130055313
Ni 8.627786392664161 2.0142701518312958 1.1804606065800762 -0.5488824453054224 0.8403272730498238 1.0220091357357688
Ni 4.354191250040365 4.184360703441253 2.4684254880077487 0.07559711781002465 0.5069079006458496 -1.4878544620133538
Ni 1.5910202176975834 4.801515223521886 8.804427532198767 1.0282044659132032 -0.9542322853011113 -1.534842400727118
Ni 1.2012284778574527 1.1172431233327047 7.753643862745605 0.8605443714276471 0.16676277948226764 -1.144888583571525
Ni 8.3373496293324 6.370359002620251 2.2101469208447875 2.020645401073552 -0.05321746456324383 0.10914384341721849
Ni 0.977802511110298 3.4665200540883134 1.4661127726014578 2.4097016461155403 -0.14910675696340128 1.646352687493984
Ni 0.8873700344402093 5.782565369744202 0.8242139163911752 -0.683833736704048 -0.7054531147460367 -0.9767944868723435
Ni 0.6770073022991577 2.537328220861101 9.454738140981167 -0.4509712373792298 -0.314608153234742 0.4261168973397113
Ni 3.384045227522644 6.832552235698949 7.735100243887972 -0.5545082761326321 0.5713523442731644 1.5178556363611344
Ni 2.1815422416997183 8.42951071643566 11.020239876970074 0.7138066289170545 1.4973577735180987 -0.6736771078860204
P 4.680257591606883 6.659238033994214 3.1196329727658507 0.23395521816836481 -0.09897410197306825 0.1668471116659578
P 5.420085863564154 6.797611835845522 6.932050712363431 0.6976421033420501 -1.0530102121029734 4.9182287844414265
P 2.83889568709132 9.050356589216289 8.090833354570785 -0.2685578958438987 -0.5164207252322912 2.6670855276204906
P 0.6214604688439801 1.8866871840876531 3.0844121811600194 -0.5438392264545603 1.469632282578372 0.3831295951449079
P 4.080662959050534 4.607997710364479 9.30368440099337 -0.5325672530851666 1.4772633167610687 -1.5074658084863781
P 1.165410083627811 5.765704101400991 2.9726416089080017 -0.14667295071092806 -1.2422112659840994 0.5920270990136965
P 5.597761714750728 2.111066671608976 11.64736388158062 0.4829606458016328 -1.1615323627757932 0.4555061491351058
P 5.30461544189237 5.983465588301603 11.789409210452463 -0.501074324683208 0.16255054117313295 0.5053097029207944
