# total energy = -340859.19751471636 ev
CRYSTAL
PRIMVEC
9.36868224667455 0.00000000000000 0.00000000000000
0.00000000000000 9.36868224667455 0.00000000000000
0.00000000000000 0.00000000000000 13.71201346892426
PRIMCOORD
 96 1
Ni 6.703339112009947 8.315736199203569 7.167447712135009 -0.8158807099716852 -0.4817650828316348 -0.7272355007284508
Ni 8.73556559562622 3.7388069351372386 1.7440992139920393 0.3881954397035895 0.519211657713867 0.3149010018848125
Ni 3.98701143838247 3.032323962834378 2.1117047640235733 -1.1120764221375106 -1.3367664129538654 0.1716967264487753
Ni 9.550341167974816 5.3351086259402924 4.871727972438947 -1.1969323395416418 -0.7020890833698101 -1.1160541758383358
Ni 6.651502192202607 7.3418710307500685 12.926808689466514 -2.96975090667106 -0.6061280571914529 2.226119223972772
Ni 4.5414219577099555 1.8331045075480987 0.008833730649980335 0.09361952252937425 1.0197547924839534 0.5922559271950509
Ni 4.8350552019900315 6.099536898985678 3.9971071305538763 -1.7667605338607961 0.27733667047779337 -0.991841096792821
Ni 4.6647419243508415 9.571982824355613 7.248773496714731 -0.6905404593002623 0.2818952363827532 -0.4059185680149655
Ni 0.8798513772778854 1.9690815641329058 8.388831596280896 0.5143759268881206 -0.10498122739909661 0.28285502919286126
Ni 2.064876341835789 4.950749061144351 8.84871866810934 -0.9996546792999687 -1.9274585952062224 0.8281780392817993
Ni 2.0410236764048317 0.8790494180630818 3.5321047581263345 0.9388198074007832 -0.38542636159888455 0.004805391808443337
Ni 3.0874773962169573 2.3467144149542096 7.6742709459990195 1.6468018592162605 0.6357677344347568 0.14127234852064702
Ni 1.6909253832039461 5.472181818367763 6.522969490665498 -1.3244852815936674 -0.9007605386352163 2.1530983515303563
Ni 2.0755379024251175 9.412527849636486 10.178112218092 1.3883663965183444 0.7251153690616543 1.0083177542916053
Ni 5.490806759010631 8.982842599312276 0.6663316100729094 1.0290701563476081 1.1379568894486982 0.7352941093668691
Ni 8.575604712056634 7.463635796109909 5.822738240138787 0.13416504805190443 -0.36873630253771333 0.4801573720248828
Ni 6.609736605992391 7.530481345147569 2.502510919189916 -0.44764525832979035 1.1408064430823515 0.22091869669938083
Ni 3.854950491047522 5.29101023780851 10.469122231295614 -1.3505472687880418 0.5301267619644741 -1.8454542883182734
Ni 2.6736345878580847 1.4835495979273368 12.305599464513449 -0.724702707004268 -2.1442002777097784 1.5921664312595676
Ni 4.137238260921907 7.935573804129964 10.477678648946084 -1.092432165544022 -0.4287512496387648 1.0382016863352312
Ni 1.9926625377738012 8.736633625421637 5.804624829555829 -1.5222288257281653 3.0821263696516983 1.4306155349955427
Ni 6.076761632032554 4.841828759376749 9.066932145204696 0.4455338684137424 -1.64504528153647 0.5073177344897586
Ni 1.7227789034181076 3.594800917721979 12.065215000480793 -3.3593681664228403 0.4504945548531274 -0.20292817365923113
Ni 7.302082236529614 0.721752050904343 4.397456225629085 0.36460891063290113 -1.2479214289949991 -0.736401483498435
P 4.219186126014045 7.07853610540311 12.497609673759689 0.2436706456839158 -0.9614797108921442 -0.005751300661480417
P 5.198635029187441 2.8657675268439755 8.677977241683742 -1.1460808041074133 -0.30760986754003794 -1.477004406672727
P 3.9012598882294633 3.1821198259826815 11.825418889703858 0.488831502760113 -0.18965665336130563 0.027969745740048603
P 3.3927746501048666 0.9840395575572006 1.6922679153941487 -0.6341453683399854 -1.3970963201921747 -0.3899815850697348
P 2.6201487799455405 0.2521890038767267 8.18989793072928 0.4431707674982045 -0.2191693181084419 -0.9053412160273634
P 3.579033425215969 5.803299160993975 5.857018249098674 1.8534185374706726 -0.03164488059879066 -0.26532319095668494
P 7.337271007683847 3.826516539915174 6.0860769129587124 -0.4418939576683099 0.19658860459444855 0.3807659800087378
P 6.848759800470011 5.843209748085836 1.2090078546744427 -0.4830588619423939 -0.6251395652969491 -1.61670041184519
Ni 2.356345420477785 7.160118591881027 8.6832696103805 -1.2458604327009124 1.7213779919609384 0.34200531430077225
Ni 8.582593749138917 4.718733641113846 7.935114738691584 0.5473960905678831 -0.16174090078764403 -1.420932503379824
Ni 7.220087528025394 9.442413946543303 10.878865304229278 1.7023685407379714 -1.211518979106565 -1.286761027570016
Ni 9.158308652280228 1.8887919558283863 11.201823461339455 0.1672505177519636 -0.8290277888766047 -0.5236169858704143
Ni 9.326054910937453 8.918404801655509 3.6670999767939523 -0.28509394582570896 -0.31475676299746436 0.6036636548113603
Ni 9.437635918511178 1.2697468965134 2.0506453132459916 -0.6402980182049424 1.0416585345355802 0.3347069808671461
Ni 3.2155098101130557 4.119540819838215 4.200195806756956 -1.5126771774839884 1.1669882436840417 -0.3102573324652141
Ni 5.220698276276956 0.5371262371383365 11.941888475762214 -1.5931141398848176 -0.6528997661293531 0.29478289097869875
Ni 1.582604677110964 4.861381199578795 2.633762412364128 -0.3794413476600433 1.8982400646607374 -1.4908153444138905
Ni 5.101847171148469 4.928966874527314 12.17292205787553 3.4101991330317785 0.3971277091962128 0.8510215195388763
Ni 0.5836735988536429 8.848270845089857 7.761850326091375 -0.9367027610577804 0.9390545491194086 -0.3213197609269628
Ni 4.498457180150501 6.890637810869218 1.1182103321722163 0.044338159795742994 -1.3051421011803652 -0.21478944387319138
Ni 7.329026567157828 1.1077530088595553 7.4103560992105155 0.5470016833429417 1.3002006980146896 -0.08866269274473118
Ni 6.070184816976571 3.6220450461875036 3.13574578489207 0.3568611483666822 0.05437626075803538 -0.05225535776029065
Ni 0.18688647683297033 2.4335152575378003 6.091657837073882 -1.0044747263964313 0.5002659698492997 0.1784456151368346
Ni 6.628333440588012 2.4172137501340822 1.216226424475917 -0.25834521697695506 -0.9538597324530411 0.1504972095530247
Ni 8.634224557933107 5.2958444779351295 12.942262331111591 0.1275943368129222 -0.17110897226610533 1.3294788781535167
Ni 5.119909990846381 0.5539711281221785 9.584725169309518 -1.7173714419047068 1.3678075985303861 -1.2139245032242643
Ni 1.3968049674382417 8.827463001444078 0.8573131379898827 0.36577362036496364 -0.041112967990225964 1.1531071148265755
Ni 0.2882256407896012 1.3822366662814707 13.276465717725609 0.931757244127047 -1.4071593608551314 0.20758289882242315
Ni 8.270138821885238 2.871473054435277 9.307427159689858 -2.1664004679559015 1.1094711233041796 -0.6755794671150559
Ni 3.1381432307223065 4.6855591366790375 13.298377192159986 2.4942989105416467 -0.8856781903807973 1.4138629981275523
Ni 5.277987769250367 1.2385398153859373 3.1141762673658744 -1.9848070512187044 0.01800337855595609 0.18365389881065144
Ni 8.474160618856944 7.31594788650519 11.96274503655656 2.7772490705514747 1.4680158300208717 -1.0789786111422772
P 7.2266268683517145 4.0388577268722266 11.430691004078207 -0.1638584613512791 1.1295362694851707 -0.09293689464005285
P 3.7789985827015773 0.6994068064741086 5.203380266831109 -0.15378462205504484 0.6957849955286534 -0.6771259856665693
P 8.180311894881301 3.731602418359388 3.9128742438204918 1.2615809287599626 -0.40786000801205236 -0.2787122106690813
P 2.340634140066271 2.7339876399815055 5.6664620593633845 0.3402708481081688 -0.26146550777349165 0.5831002288377118
P 7.063265153065143 1.234174009380114 12.616629415171664 0.6830127834646494 0.25366118123772446 1.881663905469611
P 6.897767378187741 0.48282722759208985 2.122825390051282 2.8182262842947847 -1.0480415552437885 -0.3255389412146329
P 0.7061456997358868 3.556820279207799 10.108688407653474 1.241702701778797 1.1335376773350798 -0.7908998716566314
P 1.1512236952694703 7.472264352614981 2.734738071443021 1.5300004992537843 -0.418428270446202 -0.5006099834522797
Ni 8.870699470793594 5.337179104754213 10.54756901976892 -0.14317265086715342 0.19274223426516482 -0.5935911010667068
Ni 1.9510655878470724 6.903276163448308 4.777773203962553 -0.4817000339216542 -1.240523593869031 -3.231470953657519
Ni 1.602681763528302 2.72638026985977 0.7902221294729252 1.1190202004451952 0.3712734671372702 1.0342848677793284
Ni 3.6534301322808687 8.272490361171636 3.1065941926866625 -0.5622097585419479 0.7486412200977365 -1.6242334869974413
Ni 5.296359755468005 4.350694321086454 0.7552385324636013 1.0225333836703552 0.5467921384352971 0.2950762538494015
Ni 7.578945539285175 6.710262568315319 8.647920634756955 0.44396215305124825 0.8841465842276193 1.773944967424377
Ni 5.019224760922382 4.0493693885429 5.2019955755700344 3.1248313647193924 0.1503524564450443 3.023097183502684
Ni 6.956865026867427 5.502096021321827 4.3071899074198425 1.9301402558034435 0.922538039521624 0.8906784718088661
Ni 4.535304208092354 6.75933572680996 8.406684557492692 1.6636772948153604 1.0574829031623465 -0.3536902068378683
Ni 0.3419569081814426 8.036905473140662 10.097937844581194 -2.368552168460424 -1.1054108371918767 -1.7602273607279684
Ni 4.029657680739783 7.949964100320832 5.312376454926279 1.6733279305312474 -0.9279473834626534 1.5860595470308811
Ni 4.207381586169974 4.7057486472853665 7.631462625435911 -0.49228603696761675 -1.5184572745008753 -0.5283012787199611
Ni 8.502725731543114 9.099173528870878 0.5407238111860536 -2.7682391537433806 -1.3005704226492827 -0.0395340535388803
Ni 6.434270553024439 5.9052960064562035 6.940143802491476 -0.4212981357948293 -1.3846454960233316 -2.059319163494666
Ni 1.2181348250840418 3.063381145043186 3.944946054334945 -2.7559868187385894 -0.7655171699174687 -0.8463413404543876
Ni 5.675622757029681 1.7848838991533071 5.450483949892469 -0.5578620230962135 0.9312389097297316 1.4191522715509495
Ni 3.378890262764458 8.811058438533784 13.447194027995826 -0.003318265739955575 0.3118809841115661 -0.5147142840641458
Ni 6.2978812744133315 6.495869639909179 10.690077921734115 0.4025712488092873 -0.36111632409861033 1.2435610951437746
Ni 8.049066022916538 3.03602459238867 13.298472752720627 -0.08186803842040094 0.31583482655299155 -1.3164022474752166
Ni 2.5629623424787042 2.3984108045253105 10.289769111993293 0.9003113669129398 0.6187246629095408 -3.155220261423895
Ni 6.2045879349155015 2.34319179036582 10.401343561489327 0.47526250582642665 1.1593932049456035 1.6418982512670561
Ni 1.7255707707780548 6.595627370274 11.457059160737842 0.3215046232442592 0.03777850430035429 -0.3675821343286121
Ni 2.226186315673271 6.595889693381647 0.05259671995127224 -0.7094840902823008 3.041793217250291 1.090459100978051
Ni 8.73581855005145 6.420798387710333 2.0011037206305544 1.104135570023879 -0.4462388649005669 -0.025656010005207428
P 8.61389451709054 0.7779304181432253 9.244049896882576 -0.14763788572735864 -1.4116968437141688 -0.17972011097388402
P 6.043690183104321 8.141815978834245 9.430163457416231 0.8373327091978741 -0.5978596465350735 -1.5338119025800745
P 1.1494904890225233 4.8263329586608 0.33172911758797186 -2.3329778709002404 -1.0127588207820948 0.5513591889806891
P 0.8532424454801611 8.839604813855123 12.010503768908245 0.2732825550130777 0.013186673893603095 1.8774745499786116
P 3.8237808846497225 5.0904642220131135 2.321896775234411 -0.28987285527159107 1.4884707554411138 -1.0402079181319828
P 6.052009573089666 7.792607710462873 4.56523714841125 1.7656788707608428 0.36312924076358105 1.3765814880682743
P 8.977380657463788 0.2994577541380596 5.790419096408554 0.3052596221403065 -0.1560839596121828 0.15077000359843712
P 0.16535256029995535 6.755578885161173 7.9339904968016715 1.5545180247791743 -1.0372354657672203 -0.3992013038957899
