# total energy = -381174.9625577158 ev
CRYSTAL
PRIMVEC
9.16435158200156 0.00000000000000 0.00000000000000
0.00000000000000 9.16435158200156 0.00000000000000
0.00000000000000 0.00000000000000 13.41295488712479
PRIMCOORD
 96 1
Ni 5.231387717119437 2.4515374078441923 6.950244366931214 -0.980562438555208 0.3949348153099521 -1.02365875552405
Ni 6.712832670504895 7.617418338657163 7.1376911011832895 1.8119075627110794 0.5811677877016893 -2.1264244417835956
Ni 8.345562742573502 6.104255563866181 5.536398421356667 -0.27377235016530266 -0.9744650674082186 0.7048738452037989
Ni 5.465124508494148 7.1220393048300705 5.3005584112554125 0.2552593789627797 -1.0709904507304782 0.42594334787632454
Ni 0.6998622979817594 2.7387298629745853 6.0140471838537195 0.3621869314549698 -0.4844994510436624 1.4668842875195898
Ni 7.004414850123369 0.6499284946034655 2.7059159850998045 1.066163204545164 1.2522133715021337 0.21285751695780117
Ni 5.825732585490952 6.0106966968540485 0.50112508237412 -0.4788139706231109 -0.4998713055140424 0.3873629164999651
Ni 6.455763439575588 5.085234635416089 6.687766335599266 -1.9647344488385454 0.13113731696917416 -2.045756594318883
Ni 3.1724694669335616 0.45524283890434447 2.834104188068322 -0.8331916904463069 -0.009655263701576919 1.1610569658012713
Ni 4.594327805242824 3.03158588748626 12.658811631738123 0.7904728114215418 1.5265261675519388 0.7596769090866078
Ni 2.2337465885138643 0.58387368006237 5.323615003822346 0.2866168102281386 0.28816204322807143 -0.6603780767842691
Ni 2.9501697865424084 6.19192175270329 8.325917121727787 -1.180034792455355 0.542051281316202 -0.13436687965006536
Ni 8.955129599201179 1.7050826291320595 3.917763122279014 -1.19178216279927 -0.5161178492798918 0.3581742107511509
Ni 3.1288838100122467 6.692387001751436 12.722282099085817 -1.1239636604933998 -1.532299065479974 0.2166735482697817
Ni 3.0692971949360515 1.65438543525302 11.50713487884156 -0.16642005143086822 1.140851437387674 -1.9674217658627215
Ni 1.166658635136882 4.843543186722687 9.00372815652955 -2.449830910036258 0.20040309324453226 0.9778429827415162
Ni 1.6246746068806692 5.2185026385594355 5.970723627392445 -0.29962427823140014 0.3440753094559235 0.8864582630799314
Ni 8.622188700136554 8.017836359654426 1.7471176777373338 -0.5922556700847348 0.7514450080951187 -2.289824475441218
Ni 5.912858077574834 3.717015247897502 10.630772664772678 -0.34414987144760084 -0.3237993328157069 0.4546139763381396
Ni 5.7215980565597295 3.4865318013939155 1.756654102168015 -1.8086258066360141 1.3002282088185155 0.32870036966175004
Ni 0.739016074396945 3.045048320206489 10.99296250888147 1.0005000580193995 2.219868100856738 -0.4084343924582837
Ni 6.8264523034970015 2.085100803134613 0.3465655408108223 0.7157691519600641 -1.1366181160326168 0.6261934604827603
Ni 2.1997926652814277 8.97322002955498 0.6383172609366644 -0.4328375038929965 -0.5074861417468227 -0.2608805818042991
Ni 7.79641645703124 2.1036952728346443 11.71405677699681 2.2464929025331184 0.29896453316021415 -1.0372241529133104
P 7.64204295180846 2.8866058428068664 2.3766142501149647 1.4251038611486941 -0.9219970794164896 0.9789362158056948
Ni 9.090001363900713 6.140179822724792 3.0764490550414747 0.3203417132844096 0.00025582476454794653 1.588902158685999
P 6.949520383142993 6.871146846980023 2.529334506282108 -0.7579362722464172 -0.9095305715183627 -0.7435406656463776
Ni 3.372050719337343 3.3737919461697756 5.473156146367538 0.35994030151263817 0.5864195230189321 0.9853274640440192
P 8.786972908946932 4.424109135844907 7.446108194965862 0.594593317078976 -0.7148638665369753 -1.150247019669961
P 4.657039464265648 5.140074116285968 12.122481692117738 0.29238379461890296 0.5084780733464469 -0.19316800894867378
P 2.2538348475490877 6.837971893646306 2.6533639264266364 0.10449657445319423 -0.3742829433875554 -1.1868227619114657
Ni 0.9015834265190832 5.860612108250103 1.0161708150559516 0.7518967509205567 0.748246298652163 -1.4316159512355988
Ni 7.239260528059787 1.0202122941775456 7.408055973630984 0.980806179134898 0.23725240086239785 0.9879291633329242
Ni 9.02340401973604 3.465444628017981 0.26954649583645085 0.349696769407759 -1.0794923175539022 -0.8968092672969523
Ni 2.5851353276505256 8.520143643404252 11.319689061024661 0.53246209496587 0.5457680680461569 -0.07126506609357404
Ni 5.068766295321977 0.05126171794681756 7.362170064420509 0.34881179569964443 -0.707659378368736 2.6727818066743194
Ni 5.315131563407699 7.875431497816685 12.297923125577778 0.027213070079682166 1.0546441481619708 -0.6770894760016791
Ni 4.072289672176012 6.83633147468312 10.567598205986496 0.13885833976251571 -0.8881881012868447 -1.0453827774647029
Ni 5.864424478577956 8.802378184238087 9.796151323617904 0.8638310125987186 -0.5247017342941609 -0.2969775846371724
Ni 2.3020210090487243 5.000244437289876 3.8539306630372074 0.8626120525899531 0.27418475511237295 -1.286445038991494
Ni 7.303447647714305 2.9458167194613267 6.044776171705457 1.7190606566816717 0.20448394818212529 -0.08825825821746089
Ni 6.688602124478833 4.07002607729385 4.232390897242322 0.2773274145064127 0.5617456744213358 -1.332020670738764
Ni 5.776373386967361 1.3069923534792047 11.588967957790022 -1.9854264299702582 -1.2484533902390693 -0.08926407377415595
Ni 2.172482897067484 4.0106319136043975 12.986892675069909 -0.11974115931709056 1.4623653166033137 -1.402577912132036
Ni 0.6959188774238868 7.868155002527466 12.400893781836796 -0.8656858064192705 0.22579967894076597 0.7921062332599068
Ni 1.1095463950330906 8.61822970018071 3.027116433137958 0.6147978170513089 1.0009186336140568 0.469298832043824
Ni 8.691993567413606 6.851205217572794 10.272244895623043 0.36156138205582894 -0.33469798200608164 0.16681780108991914
Ni 7.22160998658997 4.35731017594174 12.550434924381989 -0.6937324838749988 0.7180687466275182 -0.561804295573413
Ni 6.639563678266479 0.8227195975375081 5.148670278227136 0.6269200542361396 -1.428295114392482 -0.0623407670207507
Ni 4.544382088207255 4.620528686895061 8.881173280581539 1.959421264155748 -0.9140238314030258 -1.8435429302281734
Ni 6.365412095675831 6.319874431831842 10.77834255525652 0.41601271902617387 -0.6719374994870945 -0.39110567137184904
Ni 1.4821964302289292 3.747147636450337 1.8764990793036553 0.7173043576576679 0.6297449252794445 1.2253399441500574
Ni 2.8575456834087407 2.1047216802306044 0.6359528581852559 0.4761873316335412 0.19931911615173414 1.5260055191617783
Ni 2.802614559021365 7.883120388934637 6.680657547947065 0.8146715201549324 0.11279763811972188 0.36697561109286475
Ni 0.7059648398118483 1.5824910957770506 1.6771561000453645 -0.7671845303175626 -1.1101306112650495 0.18038422692044417
Ni 3.774714006513271 8.858152428986429 9.20179729089464 -2.9267522916223467 -0.5474716810008249 -0.15748572505571587
P 4.525952576838718 0.45970221246572196 5.5742765200083015 -2.629976538583335 0.2773392415809546 -3.4912876129736774
Ni 4.1839114764866965 7.69973254607248 0.9364620328430594 -0.026467964383541515 0.923913579712912 2.5468535447099105
P 4.291922526208019 5.158741900799997 6.5443689744670355 -0.8162460637309039 0.11495479367204073 0.38187643946409716
Ni 5.352173873179766 8.186038871667423 3.216641642366853 0.08014925595708132 0.3258449024908259 -0.773663710284003
P 8.692387634538841 0.28229685842573277 5.612101465419789 1.4154079740171688 0.3696757836328472 1.3995404108572929
P 7.1278036820805974 1.6102315885232277 9.649588595391347 -0.10511903852854154 -0.42579833765802794 -0.020775541984454544
P 1.587494831832357 7.9706857699025 9.407283135130717 -0.5100695862032828 0.10260989895344265 -0.8204063657561808
Ni 5.120563211410973 6.7915819450896 8.326870214309752 0.22590406572911417 0.38469411141855037 0.670449087867026
Ni 1.0173713451351554 1.6150520375435413 12.561326756436443 0.1318618538400245 -1.3498985794604494 1.725669163137125
Ni 3.6965329217370444 5.0698476888284345 1.342046915356774 -0.9880497480711887 -0.20614745192747722 -0.47450788704858926
Ni 6.878954874670721 3.501139778082851 8.37561265196059 -0.08180478928263331 -0.992892935096103 0.6900846027097663
Ni 3.104662428337934 4.503435764589839 10.527023955050115 -0.09416356795830234 -2.0117920644479805 1.2892825084402892
Ni 4.931429320001787 1.1949581533397875 1.8312436774935554 0.6764112189877318 0.2743433921774243 -1.8607610938786727
Ni 6.495380932189305 8.656564183549476 0.7208715743678219 0.30434173831172745 0.0693483086868354 -0.29874470383992424
Ni 0.4459758464151028 0.5094563945497228 10.514187447554386 0.5297349258426941 -0.209254115877259 -1.0446965500309555
Ni 4.8507463671979085 1.862929423667955 9.214149920617988 -0.2341429086991387 0.5662096237299604 0.3944380781791917
Ni 7.509370631528841 5.864598601261199 8.397583268845192 0.8928464259944623 1.4199364580151417 1.8523111633391067
Ni 4.954138583637409 5.396364377316557 3.233970515090258 0.3340233245365602 1.0995317527032806 0.7789529837074004
Ni 2.4223856049285692 3.712882125258412 7.746719093928086 1.58796036359802 -0.4216922859094544 -0.7624768404292481
Ni 7.993697457145861 8.441449354930045 8.69679935347112 1.340286253181666 0.1631596355120416 1.4458495783364778
Ni 1.661524465265994 6.207354521049694 10.811096864844929 0.3316908197486417 0.5250349492638635 0.636562205311594
Ni 9.125467405171841 2.42056189893039 8.825255155510726 0.1886554657903009 -0.32367694830522964 -0.8659747984145989
Ni 2.8648130143462094 1.5629526978468062 7.436491124239784 0.5916316633474907 -1.079428297085186 0.512237540388879
Ni 1.9158260619669094 2.5298467935449134 3.9221226044063204 0.7929577826269247 -0.37818356399354225 -1.003416460335246
Ni 0.9729150747976245 7.6268026348488 5.055168230195852 0.1475707799348491 -0.48346098247681896 1.296016484730013
Ni 7.944274108160022 8.034689602522025 4.175721295328038 -0.8603690221920471 0.027649386286152385 -0.1537385993084578
Ni 0.6951435732658668 6.801506938034466 7.551198565784573 -0.7027310878291833 0.31635058984714554 0.5969793008126494
Ni 0.06147080579592275 4.120503326730899 4.280797919619124 -0.6204933247741895 0.13530816051741212 -0.440668312791325
Ni 8.221156667572064 4.417978184524394 10.131073555530802 -0.47077361681713753 0.5879022782120455 1.3475614466868404
Ni 7.767081367080624 4.867984512838991 1.48205071703611 -0.6332218280844514 1.1930605152910614 1.1399926889318044
Ni 5.108585403674186 2.1276417239564682 4.231962005580438 -1.1174014338948497 0.8517992782451653 -1.2432438210136718
Ni 0.9026345776647675 0.1348900934030334 7.500028491355252 -0.67766720288202 0.15138835390872635 -0.10119090711872897
P 0.2628656834109592 5.2585783487606355 12.28005630540667 -0.559128805623779 0.07816179321340733 -0.09928006324926128
Ni 7.810080505489961 6.75513531818126 12.988582581532544 0.43734747594820805 -0.059409195196252526 -0.3819846829071873
P 8.739153321517282 0.44565784340939013 0.08326455069175492 -1.5264276943008614 -1.2805649260616332 0.07309749131662249
Ni 3.4173684387393406 7.487220393349948 4.340458765944492 -1.307261204405897 0.09359766815250331 -0.0374925976288193
P 2.2350112690553154 2.3364423142203927 9.63388181292763 0.2738044889548188 0.27196049376754455 -2.0429319803858945
P 4.105437132454481 0.6941409931844555 13.002438164942834 1.551396191320741 -2.339453451322255 1.6038970894329345
P 3.643434667699598 3.068509060685582 2.647824992229151 0.11214740613023265 0.2587496515042253 -0.07944785901468253
Ni 7.6261153084675755 8.64480632025468 11.274795651108672 -0.21923719523189983 0.36813646417018536 1.569055299163401
