# total energy = -340870.77077682334 ev
CRYSTAL
PRIMVEC
9.26906477280866 0.00000000000000 0.00000000000000

0.00000000000000 9.26906477280866 0.00000000000000

0.00000000000000 0.00000000000000 13.56621322643146

PRIMCOORD
 96 1
Ni 5.0295057927614515 4.420444813393944 3.7461741093000467 1.3539971750098552 -0.20749213888082974 1.063304137829814
Ni 1.831965775542656 5.606162121565584 5.938663868115785 -0.4679374329199231 -0.1366837007087001 0.10878106076116105
Ni 8.429250458733115 7.289646747973599 8.579368524712576 -0.5105920343656561 0.8358792645807992 0.7746381583821305
Ni 8.951460300864117 5.451767309084424 4.112624732610378 -0.3953891292385513 -0.9817626295108962 -0.6790527703756369
Ni 2.9320554630322437 1.1688568792886949 11.780899801237034 1.1109042562062803 -1.178187711944287 -0.44964300548610947
Ni 6.577624996735963 5.330629901128833 13.153258071445018 0.7615712978958432 -0.198665027507503 -1.4048129721101419
Ni 2.7500481064926463 8.5961677777678 2.3697735999299647 0.19828758956342626 0.6898308348277474 1.2356878630432846
Ni 6.404534480540177 1.47156599773798 1.220695978031769 0.0655297062716936 0.30599547186506654 -3.294860730768074
Ni 5.867049219608133 8.108207130096657 5.613101870386179 -1.2865969911883262 -0.10786317693258199 0.4770779617686106
Ni 8.87944893638275 6.484294783199744 6.3660947418813185 -0.16991083819294608 0.6662116527469106 0.17447377497328018
Ni 6.126888913327554 6.281830600632295 10.28534639068642 -0.5552734364334307 0.46077511084352907 0.5996010547062126
Ni 3.6524193725956917 1.403855479326809 1.2760137567967067 0.06902717790199081 0.32534919380133004 -0.9731998275425499
Ni 2.4820238285491247 4.790178539458722 8.596298471581571 0.6004430909915336 -0.5537737119594527 0.017054641489441594
Ni 3.563380736064862 6.409688080572568 7.09059821578733 1.6367431894286777 0.14747256379408796 0.17847826814698295
Ni -0.05492755113658578 2.1291968766913247 4.831444415977071 0.4895051317883698 0.5396313590207997 0.5506819604080064
Ni 4.37927162752366 3.9041764418038802 1.7291903849686563 -0.9999074187407231 -0.1546737095282175 -1.6981964116381527
Ni 1.2237112048133096 2.71947873076095 1.053670210938849 -0.7050653923893148 0.5569361688478344 2.107937181612686
Ni 3.919414784345696 8.809884605010287 7.200308720649521 0.2669910655774112 -0.26806938624325444 0.48776115251406965
Ni 4.11945974099866 4.0008435186704245 6.089005318557081 -1.494603093591097 0.08722210364346268 -1.5614538326670593
Ni 1.9029390047657 0.6669870729689827 5.623656554481292 -1.9440386110520906 0.1551262236846038 0.10323879078669318
Ni 4.145459467780773 1.1171076904742434 5.456290612709974 1.814435985559888 1.1176562302181332 -0.9201875370115764
Ni 0.005364934709977531 8.718945810194134 11.799403635310162 -0.5302509462471643 -0.7471399529618616 0.9956969802038013
Ni 4.6246423110801995 6.935114288191411 2.9316448434613176 -0.20665833012562473 -0.09775668462619938 2.5526639807441005
Ni 8.1272179820147 0.8493818764174897 8.978933808950456 0.02420076561591961 -0.07419535236649158 0.22238782504573956
P 1.7295426094313018 1.2757106583775355 2.8355283490442766 -1.0430957812027388 0.07698242819332549 -0.42072889355492055
P 2.0247808616465823 8.560036963152228 10.928656564513789 0.5719318709257183 -0.5367519805904756 0.23483196434636328
P 2.606952284010557 2.7222594502028867 13.167014290524282 1.7146977517272854 1.0483377463279686 -1.0727529419475397
P 1.192140770082516 5.616988389259527 11.533533488027663 1.0854307945255242 -0.7870136492283478 -0.24865498627238466
P 3.3090561359052844 8.4701363035944 0.3627170440062902 -0.743863596203435 -0.7514717475679961 -1.557710306464227
P 1.2711317403631457 5.1232160379547365 1.8881724576225327 0.35785822217262886 -1.3273096384163399 -0.8161437338250846
P 6.639737000004033 3.813135687274856 11.42560078979535 0.14532466421314974 0.20139939571953056 -0.4090563423129987
P 0.8510808959965134 7.182459282551727 4.5174807990397845 0.4967957519125122 0.11658050220092181 1.0067768921670468
Ni 4.884815691132651 4.3760459929710125 8.13440984939803 0.1071790063813638 -1.019723939246018 1.83128802412022
Ni 2.5064200071197207 5.795102738580412 3.666214521747142 0.44795790447420275 0.019347551288676355 0.20808323549760938
Ni 9.216537016199185 4.139147234647575 6.458046645480818 -0.06836846127206936 -0.4185640246931179 -0.20667195697237956
Ni 7.018786136199302 2.9773533827414007 8.934992880328965 -1.5792324968067188 -0.05077337389812545 1.08729792964125
Ni 0.21706666726354149 9.034640888437266 3.676674661381229 0.9241174681936021 0.9796754079645644 0.36760398870548305
Ni 5.283719164143352 3.122599628258588 13.178111214910572 -0.4499242841719542 -0.809336223984948 -0.6179798143237163
Ni 5.743149630340218 1.7599636801260947 3.140076449951163 -1.3145654513767941 1.7076655274708523 2.3396406276323964
Ni 4.684585353183559 8.807984446724964 10.599011543736939 -1.1775251386596237 -1.447239773815785 0.44256861513783136
Ni 8.494245141155995 6.414211384198119 11.807448256655688 0.14110316993263441 -0.5942210213412218 -0.5056426607801807
Ni 4.597335646160376 3.954813342841557 10.79566680339018 0.2235653902936085 -0.986170785880921 -0.40712261562539565
Ni 7.470810619615809 0.9429883080849415 12.766797391030506 0.07715932009082195 -1.3789613011543607 -1.261461372462963
Ni 1.201363489564941 3.561508384973958 3.3913088900913064 0.30269571806787227 -0.21913306555386775 -0.44159416703970406
Ni 6.829363527814539 7.829681001727419 12.456171564330026 -0.7796158141023799 1.0277450097782816 -0.013688039010053847
Ni 0.6403190466143241 9.402353958374237 0.8056689667902367 -0.12868936964931385 -0.6952638329178606 -0.01573592267801806
Ni 1.2832278699355726 6.776622549065796 9.59466388044621 0.6814019873341038 0.7103101857280218 2.2374963554614626
Ni 4.681776826547203 6.570589776547862 12.411795916569112 -0.011217980203006486 0.8877088476575808 1.2311642641413183
Ni 3.448676059084952 2.3978792582361046 3.4806422828829815 -0.2602347206901841 0.6968545744437482 1.1363157543008495
Ni 6.036700912760724 2.6693330901580152 5.520241598435646 -0.0031244045615946192 1.2810475221250066 0.24133454135157145
Ni 7.18804852863002 9.013275694058382 2.600615951308863 1.0746175059601042 -1.1345895156383623 0.15711060110448424
Ni -0.05127275888339964 4.266513454153106 12.91618783542266 0.2428777174689753 -0.3466870360471578 -1.2272145354649509
Ni 0.8592710416594991 2.782499102380054 8.455359560479945 -0.4748501008793564 -0.16889782354739943 0.817489963440334
Ni 0.4828737849053585 2.0292948962073267 12.493613951615712 -0.15034500024587658 -1.5921708021349417 -1.211858878944487
Ni 8.760665870887998 1.6975272595897979 2.4833900887015967 -1.0497109725264115 0.9402097457697742 -0.3998397088107372
Ni 6.8791384058252145 6.2485639270419195 2.892099305371048 0.6921805660068466 -0.46405995224238783 -0.8410605516714225
P 5.2948698491055195 5.87373221533359 1.1902832494953017 0.33254596866008534 -0.4739183330937064 -0.3083236057776109
P 8.376787551928565 7.642149282563174 0.6214045929702672 -0.07047496609211089 2.1807613646632635 -0.6254203297621616
P 7.200904721516577 3.3396811260258197 3.69246544018551 0.8995824591667153 0.38775423840111284 0.25708254821444754
P 5.228410654443221 0.6819250978110694 12.706590180580163 0.4275253476514637 -0.06186074206053862 0.46592117382084275
P 1.9880753650130112 3.4591408332514426 5.367851684672123 0.1471357492799595 -0.6135839992488659 0.8012318497102587
P 4.862532859337929 9.135516120725942 3.380496525994574 -0.1998896439432235 -0.43708368076386017 1.0921897105159126
P 0.6504390115700144 0.705973686451423 7.551809269333518 0.42265593537430435 0.25693162445888007 -0.3514060387893819
P 4.535177297568273 6.053311076893896 5.020923565657152 -0.31487914750794155 0.8730160215320965 0.8935203121330353
Ni 7.799704846143336 7.722558419759191 4.582015735848263 1.1974951540236474 -0.3457149019418756 -0.7825144758064135
Ni 8.60924642820971 5.6342751951235694 0.9302600282927143 -0.623029718042798 -0.21708801009938097 2.0115077004383424
Ni 7.270654434185168 0.827858181030415 4.714842361431278 0.5419270970335118 -0.6709016020234123 0.8263715822006801
Ni 5.32072127085073 8.476420729533176 1.3832382984778056 -0.47184011040843893 0.256675542584016 -2.6884974176373633
Ni 1.2592487992812673 6.755007089937138 13.41419058790512 -0.37994811209313273 1.1708083887610803 -0.4415535436097557
Ni 8.1724324801406 8.828941802252363 6.803293356139897 -0.2626163335484832 0.588813220062089 -0.7022160958659777
Ni 1.8839466909772686 3.260106204662383 11.02995539306412 0.17477665092567965 1.4880534653980373 -0.33845462083503647
Ni 3.327927951851232 5.797503426365284 10.734795000993214 -0.7362708714578416 1.4608820471895678 -1.1810118116566435
Ni 6.094882832550856 8.614780059899166 8.47669880147737 0.30930319608206086 -0.6819977119365738 0.4455518661358714
Ni 7.894379074076491 5.115216835026763 9.093608824922986 0.1758508578264649 -0.9563642440424498 0.6674470678159086
Ni 1.4104365153393936 7.882320020763291 7.553097669341615 0.05508999899560834 -0.32433077983914466 -1.8051478753897425
Ni 6.902876480794553 3.9636745687965305 1.5366042447654495 0.07768485357698879 -0.7702253740264154 0.6417226664666109
Ni 0.9434332231956514 7.149461411840738 2.251407642351504 -1.721150706441481 0.883952208828626 0.38323989547052706
Ni 3.109520977816677 6.305346218046277 1.3239617021340302 -0.07834022777280057 -0.11846152127371856 -0.651888294145703
Ni 3.3828286226998783 8.345606417919644 4.881571518450392 -0.252324721814488 -2.9067586221092387 -0.9758925438833645
Ni 6.257230502635958 6.164187630108738 7.7658162183044475 -0.319502762322882 1.6986211578803971 -0.3048762706589588
Ni 0.8376843166317405 0.9629631427428571 10.322395769624313 -0.46689819302213137 2.0992928756741267 -0.17591282141265188
Ni 6.755034897131557 5.7648207038577155 5.41982425794841 -0.7311055252068183 -1.2058214145011557 -0.5239566285980203
Ni 7.952116078755915 2.1598960193303114 6.981363213949711 0.17947225662913607 -0.7722902269752442 -0.8270534387590531
Ni 6.05884470858335 1.333938923491701 10.769565116895196 1.1789312749785308 1.2176140362607095 0.3599917235758639
Ni 2.8936908037983167 4.995080486070269 12.982051956124385 -0.1792935649594267 -1.8508088677619674 -0.6053317865424026
Ni 2.443028872908359 0.1695191455258571 8.932279825060114 1.0234854631709793 0.15834447351158534 0.035080645753217
Ni 2.981913762626178 1.9865923146439777 7.261234283622366 -0.8200497537477102 1.1112966065486927 0.19187911493392115
Ni 4.759664778115864 1.3312138184386024 8.813087066900918 0.005634829688274167 0.9119651491017843 -0.49448895815620636
P 5.954020854687124 0.7543823043096274 6.761333226667546 0.35769624267346783 0.033743929219664466 0.1260925554564151
P 6.926494057921405 4.2085632609831345 7.061132785674083 -0.05725101120266914 -0.38669700078119207 -0.03397584272481245
P 8.679311289081722 2.735060028700605 10.336925028708434 0.6453090982662887 0.0764484100667264 0.6270856332797264
P 0.5216917014083213 5.429790356428313 8.207138639495419 -0.5678314756040995 -0.28925656184383086 -2.0876383221543335
P 4.090605142256158 7.28080406014824 9.022820976996071 0.6391777885575701 -0.22524560620950887 0.22161855097988284
P 8.241996811513063 2.445716901702231 0.35251273056086124 0.37875383467471546 1.2787165599989847 2.081356345800364
P 3.167498978181067 2.8124659888993304 9.325699719331313 0.5875729198970849 -0.08120803623889886 -0.2251684731146703
P 7.59715724199263 8.482315854750084 10.237023975130917 -0.6828544035099142 -0.89142203484311 1.669694704654034
