# total energy = -340857.87564119935 ev
CRYSTAL
PRIMVEC
9.36321561920342 0.00000000000000 0.00000000000000

0.00000000000000 9.36321561920342 0.00000000000000

0.00000000000000 0.00000000000000 13.70401250704425

PRIMCOORD
 96 1
Ni 1.0168639282312533 9.280510203800912 3.7035777510929377 0.5343595690988991 -0.3679616291552179 0.02840606194651882
Ni 8.406397858872118 1.4914197787178431 13.027746756062859 1.324480653607977 -1.4169372661775017 -1.2100403376785096
Ni 6.920792636971199 7.299347439077878 8.635322859580182 0.30120010735895225 0.1011374281729742 2.568076458644429
Ni 8.871496861717656 5.753546104816242 6.138026886004131 -0.19146645287653477 -0.32699367138328844 0.7549658767641837
Ni 2.3735657625337883 3.531720612451655 4.021990747488719 -0.13292346233531946 0.7773843536686998 -0.6165651933643769
Ni 2.8968384231950273 1.358611930261718 8.98245939212295 -1.1097194918695599 0.612232627427294 -0.12225698376040879
Ni 8.937292176939115 7.003610277946554 11.659428916628155 -1.9936616733958568 -0.2102002818406122 -1.0061742255860413
Ni 1.268734424809776 2.7222144543775757 11.666814621003661 -0.5187897396851001 -1.1671736202219705 0.8018376016150578
Ni 1.5918121751607768 6.329917560499666 6.957800746180367 0.7608657871883864 -0.07332709082892533 1.6797644301852106
Ni 7.006756318349914 2.072051497447484 10.620006193326024 -0.5109581594558232 -0.21794701566556657 1.5700282045996317
Ni 5.991568405690688 8.229264548304368 2.255392619882579 -0.6356913726708665 0.27615087769980823 0.1574831539525546
Ni 4.7470472561282016 0.4136443884627264 0.5156098051073402 -0.8785989149365127 -2.181431651257411 -3.05751705574345
Ni 0.01225364010677742 0.921238344792339 10.18583576387447 0.1657235395844759 5.136947902386328 1.6525557309809022
Ni 4.720137374820889 5.052971595708501 6.01957003792369 1.2671159996455792 -1.7397153568175459 0.06528108059599724
Ni 7.958761252908325 7.857329539546424 0.28724285204225286 2.021478438497809 -2.4272535389563745 -0.961729365009105
Ni 8.165416781904035 3.5508402984744563 0.6556835087807491 -0.3962766740498272 1.1691333150515026 -0.4130073565409468
Ni 6.0499480542470865 9.372578701676622 11.622057514658124 -1.9881451144530016 0.6366007718590133 -0.027370421593152863
Ni 4.044300481027665 7.02111949090573 7.0229088013851415 -0.8913706127798843 -2.747873188492519 0.032759710929524226
Ni 9.348627596462949 1.4609706019567517 6.365554894961655 -1.585009508499812 -0.54207930634066 1.630770516785011
Ni 4.009647220513274 1.7628687588779899 4.271211454084649 1.5579422199693749 -0.08997652646014827 0.11408781768605512
Ni 2.637889335708944 4.202351558434559 13.364741989912535 -0.7373515061165302 -0.7235426252578958 -0.5019970936077935
Ni 4.463847440532885 6.388006949375991 2.421444564922423 0.2406915084509339 -1.7927387030921127 -0.6439268732067813
Ni 1.556475399915894 6.782263863853012 12.729561114081896 0.6789221583350437 1.3925904619020208 -0.29424295931482874
Ni 7.256754171831199 5.129431613368732 7.889879821862618 0.47803235526208 -1.1021504212730502 0.21922382549546113
P 8.084930581584741 2.672823492687921 2.481152853756311 -1.583533438174918 -0.6021850133833048 2.4287298663915853
P 5.20944028969823 5.74224470372441 8.482166871229468 0.6953358238063767 2.6064311471632275 -0.32486042709036955
P 3.72705601392456 3.3964127854607176 8.12013439916972 -3.679370236979644 -0.6024521510017624 -0.10377049492044711
P 8.39614513791474 3.5782838830644805 11.916049372422822 0.1112637179736987 -0.9011251210634869 -0.033740843895870926
P 6.714474183732993 6.129610291603594 12.180263395976791 5.448737098115036 -4.028399290896417 -2.752197784009802
P 8.955016743854474 6.478699054575231 8.498625531411095 -0.8084155119428916 -1.6068204337273166 -1.256332792987146
P 5.767871824510112 3.046752866344422 5.293736382398854 -2.75507690532981 0.5721149334708018 -0.5991269432832714
P 7.807236336695306 7.807320605634683 3.727272304202291 -0.4783653131214665 -0.3576170526961002 -1.1433752322507922
Ni 6.3541776518243855 2.5207367835457295 13.17198147269833 1.4494468087694328 -0.4147351378653309 -2.2030278893709476
Ni 4.617553985954188 2.9645251079446977 0.4486965219568289 -4.524810405776001 -1.7279317339190563 1.901496366814506
Ni 2.723881106734117 1.243800181970051 2.3311213704133382 -1.4352442920168056 -0.08862438330762801 -0.7210291148074228
Ni 5.7748006039698945 8.689719396268753 4.749769142870036 1.6930796592368778 1.7910309763723866 1.2506755947013686
Ni 5.843002265571305 6.503118320563217 4.196305730195125 1.2697269549058647 -1.10343751551559 -0.12512710621935225
Ni 4.502367709043073 5.107933670612439 12.153951824139046 0.5322823748548963 -0.5364321353572117 -0.5633680405161071
Ni 6.189609776439102 4.264167507074388 2.8310431079735667 0.4139491516289258 -0.9879247924575502 1.0605756831550575
Ni 7.813275610683899 8.842377261555603 10.347406473982623 -2.9688579625431446 -2.1806639198534508 3.864439270970267
Ni 1.868448376700273 9.183291937407796 10.640809385493242 1.6639279773735858 -1.3016055487820164 0.14051310175711929
Ni 5.394382521981463 7.006025987541991 10.846342264952156 -0.663356956906935 0.6600788003762955 -3.2136539800807555
Ni 7.259244787150525 4.5136971997813635 5.023466231068418 -0.8303763324846989 -0.24372129641619314 0.7510770832327387
Ni 8.507033698917693 8.06576407948451 6.895845285629793 0.35334002258730113 -0.889556442389281 -0.9059917051271686
Ni 7.804689542083062 0.2475372004515137 1.8325001834841421 -0.4023771305206103 -0.008746635844378483 1.1375228872350733
Ni 0.14276469180414 1.552046598990926 1.473934910118931 2.1612055540185233 0.014545244804026563 0.02429358244004203
Ni 5.469213340147097 8.682818706455432 7.667956633695127 0.2507380940536585 2.4814346529844684 1.682261228465135
Ni 2.4759993399527116 8.29259733785296 8.133400202870556 -0.022601539449599785 1.4671133728112604 0.41892577890791083
Ni 6.971213552364334 2.8949002375893853 7.08904400132875 -0.696084271936627 -0.7555495171817956 0.35327728767016575
Ni 5.578631876318718 7.162944115875057 13.146231693789758 -2.7601579193971433 4.21540025180243 5.352389378021221
Ni 1.5012792446248016 9.109491072945644 0.5326049775363245 1.1295128724464032 -1.3496370982689467 -0.6461773598038549
Ni 8.939333357915105 5.411685744199942 3.7829656462357004 0.9019057079832532 0.7230134922273033 -1.3430509604109966
Ni 1.9896739275999806 6.365600774717538 3.034781059023779 0.962281123747517 -1.6882644972364218 -1.350433626028313
Ni 6.6890624169034725 4.526693342876196 10.662187479091312 1.9045508373701134 1.1581302790727797 1.8290506501492694
Ni 0.7513849342651016 4.4416566198306136 8.561444280429495 -0.25270627352362285 -0.3379645685724954 -0.3480517776051683
Ni 4.389924854269411 2.0195144953544695 6.726298988570504 0.11396517606526178 -1.0051684100293463 -0.6418195970557914
P 3.2522192669733845 7.921879547108222 1.8200162082764046 -1.4484566769420215 1.6262492318758897 -1.3588678728385952
P 3.951295661603335 4.259598257917127 2.364298051845557 -0.4777094247050224 -0.5164027275101623 -0.30222752018220206
P 0.29551712556739934 3.812963516010357 5.245429681062499 -0.1663624587200554 0.24681613329143298 -0.0075778123472579175
P 6.752788461502484 -0.016264841621061402 13.598422567766033 -0.9792858858356297 2.118016934446191 0.05455906619280282
P 4.021978575308586 8.917694966926518 6.264816995867282 -1.6569626017993462 2.7735957900696038 -2.736396298201171
P 4.8368873087181985 2.4071890693446982 11.492020241664362 2.1438971446470627 0.6271463113143328 -0.6935293667252572
P 2.8942354492898663 6.326125458227759 10.957865651965074 1.145824208011917 -0.8007212286224275 1.485279502197326
P 7.157597719832441 0.22588663728279557 6.530852164833313 -0.869492067539238 0.9640204750361269 -1.943485566762098
Ni 3.4584253616257565 6.3711999775782795 0.08159948664060099 0.26661362763333435 0.6666950201412325 1.946758581086415
Ni 1.1792220847617954 7.125978141135576 4.928003567578964 -0.9630961634496445 1.1947330178974778 -0.22451052781569722
Ni 3.748797400283494 8.175978488972458 3.9349971124065233 -1.4482728430659895 -0.02866394359359579 0.5108843687950944
Ni 6.3907129186515 6.9211484391596745 6.4729528492313575 0.5529301330122348 -0.9749085827035403 -1.566705825094618
Ni 1.2926387139460203 3.6631520682313106 1.6521964881527675 0.577501908814328 0.31796498552211694 0.27149306721282274
Ni 5.254308818308054 1.4191076655179944 9.017582686054746 -0.22447736058491666 -0.560768398109731 0.7026295292543124
Ni 0.0825638978356786 1.992632703693617 4.077025855473448 0.9715239825020235 1.0280244886919134 -1.4810767769698878
Ni 0.3366637760214632 7.696563129648535 2.015942428646488 -1.136658739462565 -0.4040146661240332 0.5831791617047634
Ni 2.164822236484659 4.008167832466455 6.417068497602029 0.6353671565622284 0.11823295020268025 0.6803419215007057
Ni 2.0720421342319977 1.6472049579770793 5.737637065383655 1.3527561035139026 -0.953911411626583 -0.47031158957905456
Ni 9.347054576261268 8.576799017505298 8.993299186691313 2.767597406394324 -1.9902423633016626 -2.7761000445486963
Ni 8.159021705726968 3.049037490923052 8.992285150454158 0.8618528058264254 0.4755730950883099 0.13486978742841288
Ni 3.3341099496156064 1.3055318616705043 12.388947933768357 -0.7244319698413847 -0.4457315862468452 -0.09428595246877956
Ni 0.018880924027903007 5.141126269510984 13.147080937434355 -0.13940907005966313 0.06021626447858017 0.666583948484665
Ni 0.9310762753036793 4.926100025870621 11.071087526267185 0.45765404871604404 -0.1761560477717095 -0.5399506900334313
Ni 3.6933765278207327 8.254610772625485 12.077976821041 -0.5767465187055422 -0.2967076188052374 -0.42882195497570014
Ni 5.448099289225738 4.8933568613154135 0.7817629505884978 1.0056204099651003 2.147840702675843 -1.0574073127294046
Ni 7.36093867054604 6.106651687231455 1.8131913605085204 0.1396857207598175 0.14553343778984612 0.6417776880742625
Ni 7.39382228333354 1.8339074747717168 5.051970667973027 0.06911819495390031 -1.176900360591431 -1.329919051014729
Ni 3.313791772010573 3.6437608489594098 10.626680293324581 -0.461582951456805 -0.10423149371726564 -0.5966954510236433
Ni 1.3114868667197215 6.732676274638147 9.625876152295241 -0.42494910228385524 1.1742045589268229 0.49787124436487806
Ni 5.415955370461646 3.8026639789755476 9.092694400684968 1.3150819860018963 -1.4164130182429153 0.09011947979591577
Ni 2.9532798861457827 5.437163053537867 8.85617676853915 1.9858120954444507 -1.0006363264869476 -0.490447183986665
Ni 7.414683527436773 0.6360057751149713 8.544301169195828 0.46318552005723457 1.419856496706826 -0.717968473604228
P 1.0938763756051697 8.726048672355173 6.377189626524796 0.8594058869478296 1.3541588973987 -0.23017621074190683
P 0.10998126542234145 5.52131027111226 1.5750155029000998 0.08965925233004558 0.3231046207415274 0.15870854171922347
P 0.6736337291893247 2.0650478122638134 8.39405058661048 0.4314732765556182 0.7661090378651968 0.17605577474841938
P 4.857907727484696 1.2190906563019943 2.2532278444621716 0.8263361009770542 1.6001823595855085 3.6677725048397156
P 1.8376902138281375 1.7913610236024673 0.12973296849046015 -0.17261589582893497 2.3355158068307453 0.03252188388710528
P 3.045835271226775 5.834566008418248 5.045282523151242 -1.2807155927068847 0.3068025411473942 0.02880663981904716
P 4.2089807149987815 8.856131825104816 9.850073665504327 -0.28556060104948244 0.800748225205621 -0.07864747460057422
P 0.40337855900366726 8.887330059104803 12.229734881319628 -0.4368751642974799 0.3094615760367961 0.45439234724563676
