# total energy = -340868.5429210973 ev
CRYSTAL
PRIMVEC
9.29128187718128 0.00000000000000 0.00000000000000
0.00000000000000 9.29128187718128 0.00000000000000
0.00000000000000 0.00000000000000 13.59873020441730
PRIMCOORD
 96 1
Ni 8.987317498862563 3.662307375030794 0.014368038148261443 1.1533423707658332 0.15723838493160017 2.8391509502625945
Ni 2.454533656140142 8.80181705807749 3.6375925654896824 -0.36804570422859195 -2.0159191992424765 0.24689480904816838
Ni 4.071857784716008 0.19973189709113537 6.3714806870831815 2.7016023304504375 1.1027494883096298 0.5857690339191267
Ni 0.09987849177597388 1.5156031756224486 9.414373612553948 -1.4392451856460828 0.28696185227238324 -0.43000800486400137
Ni 7.972523702591796 6.906618565236196 10.43499954639951 -0.44152294748213633 -2.013924537409951 0.6702256590023102
Ni 1.559941172287932 3.2133433480247535 9.102771895418508 0.16658537336413892 1.7490983406943423 0.9381865446921585
Ni 8.542980530184145 8.699166976945833 12.742255236750903 -0.306290377397666 -0.7787966606351943 0.6004546609557595
Ni 2.868190812373165 7.009491637130629 7.290048394446626 -0.791838838531133 -1.1729514032460122 1.47486242062906
Ni 7.658283261430163 1.211629600830337 6.152581804803189 -0.7533129145417929 -1.9729028435819507 0.6984180622761262
Ni 6.207672601875412 8.37075733106608 10.652538185026563 -1.1310254524361876 0.48571249751515705 0.07833302868394897
Ni 5.6936788936745435 1.0118484599457551 2.282492566145012 2.504595150261332 -0.7494930265750704 -2.027739331805856
Ni 9.112452481907562 5.884243083031012 8.119638141821175 -0.18825745902093385 -0.46921527119108225 0.4924328469581261
Ni 8.46629029035244 2.942465318941454 4.928845663810421 -0.6246464277106145 1.4665055640239324 -0.7834112765890702
Ni 4.723864192512243 8.163199387329653 2.7295639590519833 0.2738937062345154 -1.5866203046303577 -0.7138367108240415
Ni 6.350841962859996 8.368295141393753 4.9628294560576265 0.6326651842500329 -0.20975753787623874 0.2034624488961464
Ni 6.961465001597543 1.7296371427611905 8.957551948544554 -0.2959756257352193 -0.46752477086253674 0.046965570116261054
Ni 1.4639343576306731 8.10766539611641 8.71957341912446 -0.7861392170431946 -0.757535951484205 -0.8455430129228083
Ni 1.6752459792071797 2.577680304883712 12.064738685692983 0.4759523328045997 -0.025028660833853668 0.45703544129543866
Ni 7.155829325203002 1.5107624178138324 13.374691417728927 0.1672767430042087 0.15299760737737522 -0.09209614390631235
Ni 4.0763175999715475 7.403906548792357 12.271929623799009 -0.5533389384148792 0.8263605264570865 -1.6498306187402552
Ni 2.9131141597909376 5.2123626235022815 13.18260903292922 -1.9533668304315517 -1.120832828173902 0.9306239018535521
Ni 5.055665156242562 7.147727327488773 8.746770859157822 0.5684565107826082 -1.922523105577818 0.2285687570454709
Ni 5.00608687665182 5.829192238470453 13.396530575558394 2.574111351984599 -1.6745137233092324 1.613605317859634
Ni 0.5197097047533842 3.7905735200364514 6.847287227158497 2.4695466432976305 0.7126784288498823 -1.0570933810334118
P 0.4641785009246762 8.067006747036746 4.165141324682854 -0.3506892152280154 -0.8674382703340028 0.3139730907539044
P 7.7846725675157815 5.061444333511198 6.064285824897121 0.3554789233071749 -0.3694302432809444 0.7317305603853269
P 5.19845357467407 3.5155329967146494 0.6124850116067341 1.1442774323500873 1.4608879607268388 -0.42019976052432795
P 2.400151783867913 1.518892289373409 3.5667158806692068 0.6268863727847269 2.1685869340842587 1.3534402740651208
P 7.649196387847002 0.6484877993852508 11.166529105842898 1.2151226372974233 0.9178264929785676 -0.15747518353275458
P 5.768873237139288 3.5951964467167143 9.824892173800885 0.5349077282928852 0.8618078115211029 -0.04446208696811697
P 1.9656728651605917 4.9819295440176505 7.9432766057972435 -0.11008743827741041 1.2142124667783283 -0.949316850277365
P 0.9859722401818467 7.193700589747953 13.466183598568131 2.046678334802204 0.6807085608115051 0.8378214759088345
Ni 0.9248476847201501 5.7892025616791205 3.460455207436921 -0.8867945633734275 1.5874474285173434 0.5143291328105852
Ni 0.4685965054121945 8.863130226559367 10.561576536377133 -1.4538729628615863 1.8341671454402284 1.3073123693588067
Ni 5.621875868060367 2.2732235834389165 5.60532809520596 0.3535467392814685 -1.8620610436370189 0.3739978080469688
Ni 5.790577671382911 1.7154028990705956 11.03829362206712 1.1258809321207706 0.8932845419731454 1.1837091559831485
Ni 2.407185284177169 1.3545388059250145 8.040766309026969 0.2784579285664301 -0.75655404718691 0.4186115901016017
Ni 6.340463601109086 3.6406029407871707 3.8262473964398724 0.11975658593605826 -0.7669644438869565 -1.134653536107078
Ni 1.292881860017188 3.352480292715787 3.9567545986114383 0.14774998582519072 -0.3113837327601734 0.21071784490697906
Ni 8.182608874973031 6.609641325626211 4.607658131260107 -1.327013961552792 0.19040612993282047 -1.1677410626896663
Ni 4.7142941722764 0.5762443670145886 4.249303613323945 -1.6527202815832247 1.052405231529123 -0.2753628345808741
Ni 3.6497269794974607 7.4745760380290855 5.20189506544626 0.2459113620889765 -1.1828995155976596 -2.2833026151622997
Ni 3.7469695346317757 2.4887441556628382 10.074075059922343 -0.39108767364971997 -0.42211034728347957 -1.2096580146384264
Ni 2.7942043355401296 0.8649997513753516 1.6058874898299442 -0.22352091020891826 -1.561515796253246 -1.173790868428172
Ni 8.089361571005135 3.877800073409368 9.468455376424606 0.43205794541449466 0.4746071316306149 0.8991422863055031
Ni 2.1526320371854992 8.963503943654342 12.660839451004682 -0.9868500713361326 -0.1872418732722259 0.3443015665341167
Ni 6.776670698227928 4.315187163314572 12.757063681655648 0.005482363270809913 -0.21349617898306458 0.20825035720309296
Ni 5.766123017731705 5.69037119736002 4.780714758354049 0.41197043063600014 1.3710127357312454 0.31816141780363916
Ni 6.4874423876244425 5.369310955370125 8.411807143108783 0.5239347742211493 -0.7738650276615318 -0.7885524544703774
Ni 1.7617199387557243 1.893024332904218 5.76860843560849 0.43951543013380434 0.05556719574234301 -0.8774254634537018
Ni 8.460046548994685 2.963417159360705 11.67038974213191 -0.6113839062737535 -2.463380366585919 -1.7814857558861124
Ni 8.589678512422351 6.028471650138787 13.148516532685157 -0.6762428117306676 -1.2091684765965176 -1.7458160703986447
Ni 3.2246601292356836 3.4170454098214966 6.852468045880348 -2.365598999369371 -0.7155824898705547 0.08061565407053858
Ni 3.189697035888614 6.963007354373417 1.029318857081151 -0.821941057233152 1.5404787730772889 0.23065135060611244
Ni 4.841343159368567 4.982682137842023 2.325110746552578 -0.2722906234134536 1.0033560394109557 -0.04370772530059569
Ni 7.22618291085913 4.684450575191418 1.6299166027755172 -0.10962875347343701 -0.44809288739017017 -0.1658891186280627
P 2.056968999954188 1.1420007351532346 10.393169266687089 0.15555816901569985 -0.8757275069259886 0.23472912021991188
P 6.434825858890865 6.611415960446644 2.8557739433992015 0.6049121825064807 -7.533332262567671e-05 -0.13926508828263112
P 9.120405819113273 4.043844570142155 2.54274508538199 -0.38808076850259615 0.8198962588889817 -0.3667508966765684
P 7.941453656311541 -0.057942291451233835 1.3495865527350097 1.4049371563928321 1.2294961324102762 0.03833849056888236
P 0.008718938824578724 4.828539773072457 11.180413068210296 0.6109743295401607 0.1240385011408638 -0.23614811205462558
P 0.22810932991085867 1.44661540838833 7.1702428906319975 0.3812580891538079 0.3481821325354455 0.7299138188915623
P 4.904681827279003 0.9903298513377796 8.126260967475652 0.8479840182641332 0.690747690215062 0.7367105300984216
P 8.559472555347856 7.911461398718043 8.753244095175601 -0.2531688149823382 0.8256563013012104 -0.9221521169371151
Ni 8.373646919700398 6.8214639677007485 1.6422637871361125 -0.5406304897092754 0.9709521691589535 1.5356006190493812
Ni 2.0994022838542845 8.909651674443708 6.329868752492646 -4.083355849637955 -0.7211610123995967 -0.6550183551342526
Ni 2.309115804964223 4.529100343790144 2.2007915380480725 1.1324120483710691 0.10228414018290771 -1.267711981358365
Ni 6.64492032255388 8.77018024360851 7.859766565137276 0.10814959782474924 0.2371477569637335 -0.16038515809069798
Ni 4.100549262859976 1.859612883614805 13.422572180138028 -0.23988006829323208 0.35962457004443227 -0.5539963694932201
Ni 0.7993141056866883 8.501476374462285 1.7557595814923321 -0.18360710473311603 -0.08970938884169066 0.050437587825261525
Ni 4.056229848758057 0.3577115612368217 11.356231064249963 -1.1448459032590474 -0.2815903035478247 -0.21332185818872937
Ni 2.417210577220349 5.043660820179737 5.2442958298601186 0.5472896468970058 0.370591096358265 -0.26371239482613934
Ni 8.969227373232284 8.596414691714571 6.756175059744192 -0.774947462092433 1.4059242028964498 -0.04492154310303876
Ni 7.822525249497169 3.2195034678464665 7.316756183930057 -2.717651670603816 0.30768622930392814 -0.20023777131126158
Ni 0.6434955936835819 6.781938854998534 6.105666406571276 2.198823878591929 -1.8759342020746854 -0.8833562271158399
Ni 4.538976976324806 3.604738593107211 11.938488748834102 0.30298033918782663 0.9324558128559683 0.7016954474758174
Ni 3.63006662724596 8.715649710827764 8.963235425610831 -0.4721902946590062 1.8511749928521346 1.2966093811190058
Ni 0.6315024071588949 1.1857255072210815 0.2622705856401091 -1.0445916490219753 0.573363204055606 0.3592273346060136
Ni 0.8878786036362667 6.855144864161851 11.15669707146079 2.458807659613572 -2.3255918628488144 1.1608289089508652
Ni 6.2529490180009155 8.35998873548031 0.5372302748104049 -1.0243688942171971 -1.370366360396498 -0.5449820818097517
Ni 5.208079342600607 3.076492058652183 7.655323059054299 1.5671508830518364 0.44087297260296326 2.0045186707150187
Ni 2.552073532291492 4.578929487989009 11.124372702139915 -1.057572120442043 0.9193601560142747 -1.9841030831731439
Ni 4.17958090570084 2.567441312359537 2.329135729820702 -1.0817672296310081 1.95819716194066 0.8817729417891201
Ni 8.228331272624088 2.039454933794415 2.314517756192495 -0.6830806605881073 -0.10189230406112773 -0.3482183850900197
Ni 3.8874444238994714 4.726168430394273 8.947379853249213 -0.42606778926933075 0.7286768611606677 1.152120325433274
Ni 5.345014253509219 5.688550106130674 10.735272403657703 0.5224309359821131 0.20360283112875258 0.5182420947117461
Ni 4.382613995209253 5.458553716889816 6.756801292136324 1.7441253129597833 -0.1984004609922067 -0.15045530057149573
Ni 0.21300356398907683 0.9237345891626219 3.997714285220851 0.483799082542528 -0.5255160026653402 0.3290279282044979
P 1.8626046763487292 2.8046663188270817 1.0184852225229042 0.2650825357007886 -0.04883399078356751 -1.7429981413338758
P 4.505361118836181 3.9136086733986337 5.171841485392997 -0.5921404846631092 1.5091781631917944 -0.9187466907999919
P 3.1971486438780774 6.52149493535684 3.154674478338138 -0.47052576247238964 -0.7506993881783459 0.4341811624050845
P 4.207621994120041 9.0830734489117 0.0541663145348775 -0.07151472021053489 -1.0360463305551253 0.5879976661393292
P 3.2660434982943727 6.665537676828966 10.274561409094208 -0.25495136080405767 0.2768057376749878 -0.22979723013593326
P 6.681973954301984 6.776745028482187 12.304402653628403 -0.7633985809125692 0.12406498350342504 0.07889661449690283
P 5.179359990611293 7.531717420990679 6.650010086714264 1.1367186461662229 -0.4870219603552 -0.06635271639362121
P 6.95275907056746 1.255577363660961 4.0967537742518765 -0.02797205973289376 0.18024564446005087 -0.551574904535921
