# total energy = -340870.0075058054 ev
CRYSTAL
PRIMVEC
9.19129780319908 0.00000000000000 0.00000000000000
0.00000000000000 9.19129780319908 0.00000000000000
0.00000000000000 0.00000000000000 13.45239340560280
PRIMCOORD
 96 1
Ni 7.775461249784975 6.71086996969032 5.267607323153832 2.138845441155768 -0.40729307976498885 -0.43319437301178293
Ni 7.641470507799411 1.5350294847212913 0.0525889305353684 -0.3551840177745754 -0.26018715528170033 0.661399576070248
Ni 8.923270541811123 2.896894915456575 9.64957701879805 -1.2490385733185778 -0.2406647689780565 -0.37562943011312083
Ni 2.0536668559669624 1.8563756447774908 6.49811164225628 0.8260170270747388 -1.1794796912828331 -0.5488305090215645
Ni 3.904564487147019 3.7608033954063 1.573432565950821 -1.2457480754927641 1.4607493782664456 0.5591177498801855
Ni 2.0707718615119712 7.09965268304245 3.080854148922761 1.341080209837871 -0.9402128310935678 0.8515935899922624
Ni 7.592968028346961 7.210940919011802 11.025057519234474 0.7618955140044813 0.26664910885696014 2.4987538609892064
Ni 7.99630975770301 4.7327647744356165 11.341067211682166 0.24001762231236082 -0.5411272268400358 0.29322146002884986
Ni 3.3607245768339578 6.954071714301241 6.3128316192700415 -1.4921903703845463 -0.4669712123519119 1.0572928986387276
Ni 6.195173813798975 7.380566323274634 3.6033987409406967 0.8899979008020736 0.4327842820575579 -0.5220871794894493
Ni 4.1369664566287705 8.604461179998031 3.472358405607442 -0.6996640188680854 1.3726939800884101 -0.28045001929579444
Ni 8.144216124833733 4.031294103726587 2.2037846493922206 -0.2839364351824981 -1.3811163998241505 -1.6224483700725605
Ni 5.268911568337517 5.495651698262188 5.529861709352205 0.6078244710572693 -0.9819490344900895 0.22055848514648466
Ni 6.93234348587115 4.871571756563891 3.9120636671707545 0.6813976164587296 2.785066766823681 0.6617376761359571
Ni 1.2006684467221946 4.729125020434637 13.405740646982899 -1.98429463035866 0.5406513156448818 -0.9877340166029828
Ni 9.135534377413716 8.10544722994451 3.4676634905980976 -1.0688155545663465 0.3932965083755807 0.23283550274162484
Ni 5.04518618415103 1.730758175253777 12.584068938651109 -0.5182269252030947 0.8394212162957867 0.4478907986816931
Ni 2.668868003814385 6.899723569332066 8.853867969876783 0.11618249543155475 -0.5278377088199812 0.5715950564115897
Ni 6.74901385631675 5.502517597854946 7.307958745733877 2.0476697521811964 -0.0189783408747157 0.6409629054824509
Ni 4.835247746937951 6.064611425960799 7.874977271298633 -2.910861588534019 1.2900867495091395 1.685152433970001
Ni 4.112940403703111 5.887522687736362 10.876246728382293 0.8253464833702752 0.08638469534383188 -0.5004456899602736
Ni 0.46460081127809494 7.29289053182174 1.164850877615078 0.4366553349771899 0.029362512322517173 0.40016701024316886
Ni 8.08946356275334 5.926300773923568 0.18373588492521695 -0.4606874362257291 -0.8615337319241099 0.6239411741134737
Ni 6.96770240920895 0.6995653146373041 2.7481760375842184 -0.08790010354709378 1.2706486953891858 0.847184405180973
P 5.584117941341558 3.353316390660246 3.207440381253807 0.43869627666661865 -1.0085308987436759 -0.5776356061787148
P 2.720899941692028 1.5235771274353802 12.039394458481258 -0.09225452386104757 -0.0570185834768889 -0.3453983991427213
P 5.423665452465033 0.2201462927521899 0.7891970143008257 1.3094322439152868 4.0019282411890815 0.013067888927551686
P 8.030400281919258 5.898386801951407 9.339539831779238 -0.032137503964493046 -1.0726809510590234 -0.05294955561383784
P 7.396945216279042 8.8654205123107 4.760317528397073 0.028702767251331213 1.4712325371859565 0.38096858293784713
P 9.015505217063223 8.647072037443843 12.822996729700273 -1.4249629646954556 0.40126924216841214 0.7540096834985015
P 2.140175352576108 5.243378142542764 1.6397928182530277 1.3254250197991173 0.216570189922698 2.962456944112808
P 4.126644628994679 6.807764633019433 4.468656503434219 -0.7710530121340333 1.417284107993959 -2.3084773146557147
Ni 7.530200654426024 2.9544048669316525 4.622162209295743 -0.06798099602566356 -2.8505764184907165 0.6018014047916409
Ni 3.1324311175502815 3.646996743789806 12.700902284693164 1.2850440448789093 0.3052848189512871 0.7704115218952925
Ni 6.060346663697025 3.038119208954187 1.0204298506792322 0.591248054755827 0.3705157630356393 0.16884383038101244
Ni 8.274309756474814 8.74749615919815 6.807422716734492 -0.9739868422202194 -0.2103272943367797 -0.5915738135263618
Ni 4.025623072871525 9.179588268642746 6.05433004003783 -0.06360395000389046 0.9695563172526915 0.5493742973401764
Ni 3.656068554898309 3.491378877651956 6.256358446207365 1.3612664549777589 0.2196218322648282 -0.16748860190469864
Ni 8.36663634470674 4.6183974536422046 6.041201189999953 0.4770802757614558 0.07389607595851791 0.10660410771450028
Ni 4.347759684554201 1.7053810015247237 7.909281033628068 -0.2792241173084933 0.8903174889250215 0.04734815026666039
Ni 1.8749512579996628 8.753700285336183 5.053539235757318 0.580513184836826 -0.9352680854937828 -0.394096892789689
Ni 6.310827916309907 8.991433207647653 12.245310783697294 0.9133347757558011 -0.30221826421082143 0.08546501174303991
Ni 5.012171041798709 5.498721591788267 2.927698631514362 -0.5938777790691901 -0.09916282094510664 -2.26330380344287
Ni 1.4812144350350878 3.2190866749271434 2.081690204385112 -0.3338695725675153 -1.0888267075809506 0.23025308672642927
Ni 6.116367624898975 6.505324972912767 12.676392769493637 -1.9340110516127595 -0.15791021418764417 -0.17866364468491164
Ni 0.634470704067256 5.062888624064885 3.2292743096106937 0.1756395131466072 2.082228463992672 2.0318410126790556
Ni 5.706389778399725 3.947019092527134 12.01140052221665 0.31982517865930726 0.4643566575472003 0.3320551450665959
Ni 7.509437512284071 8.410570749062 1.1575447148489701 -0.16736313207042788 -1.7862806061715946 -1.4292456512312097
Ni 0.32853007855914323 1.0625416206446086 7.879457109935191 -0.4035027594846212 1.3348368000313204 0.7042583231069871
Ni 4.365223150720517 0.8890852833827649 10.377593077209678 -0.9499945930706801 -2.070300345096518 0.5711129745688487
Ni 2.6086650020305022 6.886607587111363 0.32738576196035035 0.9800291917595574 -0.7983182756078896 -1.39673533730833
Ni 2.8953140122036243 1.7423024455195109 0.9475116072666743 -1.1891974327912294 -1.4189147016188466 -2.508925145095253
Ni 5.480054065586272 1.4179507310231085 4.6114267732524485 0.41567898983583895 0.21383093661466399 0.8099142079756051
Ni 0.8146495566733337 3.3155401559531072 5.158145398093558 1.305553734796487 0.9105014200720641 -0.8940275907867571
Ni 3.264831764984912 4.8399996479947855 4.267718185205381 -2.5422479276170993 -0.9190860764172818 -0.03751522333663861
Ni 0.7706765488665474 2.510106713766598 13.1221909424894 -0.39661605966711694 -1.6103328177559493 0.8194275467826792
P 2.830469404938694 2.4984981044149883 4.411120816324792 0.33360526316253514 -0.14930576034808482 -0.27228728097934396
P 0.9596082745411426 5.917550658244445 5.4535197074412505 -0.10587674263017251 0.2338413182983199 -0.18769361609766386
P 2.3850315308238383 8.574626226747576 1.5792975331933086 0.6462632346494418 1.4011275528387548 -1.0172045152582738
P 6.5422188430136075 2.871517741727522 10.129343471746893 0.2245822615938971 0.14308934712472776 0.3370196881607228
P 5.225611363543032 8.606308630892467 7.929352071031956 -1.6704552369691426 -0.3149557663821479 -1.5217775971233598
P 7.920573462329088 6.39166538206399 2.417717624708395 0.09679740603672361 0.02620596897140648 0.1783391714659574
P 5.181355263758392 5.122080583070718 0.5912182940222798 0.346731516131848 0.5307386845168601 -0.6109686731132058
P 0.24411903614955216 3.4542368425055945 7.483781842226156 0.3271605359784559 -1.0702417454899116 -0.1828630274782399
Ni 1.6136978041515588 8.222599514026552 7.247530557149428 -0.6484754118094121 0.5337103655506744 0.9275316360814735
Ni 7.167585566429424 3.185768219741407 7.919828048062725 0.7015236977846434 0.679596558694249 1.1564549482528859
Ni 5.196493331535193 7.5938320103572945 1.4267477223219414 -1.091682688972507 -3.3805090621665133 0.2824025150364749
Ni 8.669756160864091 1.118277651609107 11.482411911183345 -0.12887834573166837 -0.26642362310971535 -0.9144244092755541
Ni 6.009610698834883 7.720285887997395 6.16402174754766 -1.0924848731588281 0.9606505301226294 0.3733249503496603
Ni 1.9466066170694565 0.8185935426375267 3.081929530786687 -0.042526817618617076 1.0207392678844096 1.3020377512234287
Ni 6.2261209141052865 0.7828164152415323 9.1005982537831 0.0008129828195985999 2.0895771910482597 1.9092574988171633
Ni 0.5580413848254702 6.707993093421869 12.155111980948266 -0.5620107551572644 1.3483893419047746 -0.9225465241620563
Ni 4.215404993609481 1.7371185534575093 2.671779807015169 0.856651207020828 -0.735323677053224 1.0495711045144376
Ni 1.409522310773365 1.0184969207135606 10.105357860532356 0.907022203274212 -0.6171102672345695 0.763558246418885
Ni 3.727981270311606 3.0460880643048167 10.541336050763858 0.9343080355733586 1.3983903564132498 -1.0532688650809987
Ni 0.8452915058866327 5.2984432087545565 9.880608565750645 0.705253854251037 -0.2745853329849013 -0.32791438342534496
Ni 6.8667268095757095 7.67924674250655 9.009861760102108 -0.9049020716074156 -0.1346484154462262 -2.251979636679302
Ni 0.36484305862750405 7.663658301128616 9.76343789907264 0.6472567089109628 1.1085290711058844 -0.8206246524145738
Ni 2.0713233393909074 4.966940664427947 7.3110663235816835 -1.6124753180202487 1.1159186787017363 -1.3727096638176939
Ni 0.3645654814284394 0.5265299388230483 1.4277560077105964 -0.314024255706814 0.7113178010569299 -0.6104572806944261
Ni 2.7818658212084393 8.101090554700914 11.038724979334113 -0.47422352303895104 -0.8030455058802299 -0.6861821823315667
Ni 2.0448707837979283 3.0201502213988447 8.646848688902875 -0.06855178092746902 -1.0176876255422795 0.4418834161453486
Ni 1.390110289434806 3.262157097272071 11.083493953546164 0.3065012078568915 0.5770902751982061 0.17476122430671195
Ni 5.947780837308137 4.918245167717869 9.67280894357804 0.5019251027192775 -0.032598759871627726 -0.10086052036250372
Ni 8.894308761868983 6.652918835912094 7.452800734117311 1.3533407723727788 -0.9308591577928097 0.19502923052712862
Ni 3.7052328078054826 8.96411667004434 12.961609775441122 -0.11648742826648324 -0.4922672679145393 0.8499784229863426
Ni 0.16311888442118225 1.074168612592183 5.183920555025244 -1.5702740020618504 -0.7587212300415579 -0.7930943082047889
Ni 6.456114763515683 1.3332437288184882 6.938758092732977 0.0576274207054814 -1.4293991460899385 -3.087994398396701
P 2.595411150340066 0.6828812705398836 8.327448326629522 -0.9271387715184292 -1.0158104631242248 0.23808158163191256
P 3.460808620562919 4.586172762916358 8.853841315112634 1.7312530849828056 1.1886017081887594 1.0727051194287398
P 2.234974399965263 5.616572414516961 11.660925300595036 0.11864638359101501 -0.6987857300281901 -0.24244397236566634
P 8.153104109982591 0.26733717398256984 9.442719504668629 3.0118740610933545 -0.467685207699801 0.4605809925548519
P 8.953445573086922 2.0246958847268406 3.071450531957099 0.2412206414815265 -0.1153988231879948 0.02252543479602572
P 8.056191064057513 3.7407939396988934 0.019626178581545747 -0.20523162498142716 -0.648510893033038 -0.8005798179485567
P 5.878395728839966 3.5879978020416012 6.271627030415515 0.31951690339026906 -1.6427225469405644 0.028705338354492498
P 5.330631134288473 7.756242245704043 10.798155622465313 -0.6821414366032896 0.01116064460250981 0.23836568853123466
