# total energy = -340858.72886175965 ev
CRYSTAL
PRIMVEC
9.38954339798950 0.00000000000000 0.00000000000000

0.00000000000000 9.38954339798950 0.00000000000000

0.00000000000000 0.00000000000000 13.74254587254997

PRIMCOORD
 96 1
Ni 4.663250859107732 7.937769513062564 7.076929627997037 -1.1189078432370472 4.5630455379978 0.7105079035611247
Ni 8.578418039502926 6.1673242118319855 3.4622691411326647 0.41293999363812106 -0.07448640124434913 -1.1605671706490464
Ni 5.484225560988327 9.32076470737485 3.7010189317160505 -0.40910570749369546 0.3296347085505613 1.103717508649854
Ni 4.128253471748522 0.045636935335053995 1.7298017249217743 -0.7983918091583024 0.34346210135195687 -0.11798303897540326
Ni 3.7662771952894514 6.994909152062485 2.0281112653647004 -0.17934421569170403 0.47847998432245986 0.735441690688327
Ni 0.22976963155234947 4.794638735855203 11.089107689902955 -0.19475669359203235 1.8057415431096837 0.0395340535388803
Ni 4.441000373678399 5.8927551921900525 11.357073043875157 -1.9855758110639288 -0.08870460172626013 0.16415182422198182
Ni 7.480038675960978 3.85966559106808 9.636739734226175 -0.05826531139979643 0.6772542837143175 0.2265265298044615
Ni 1.6127009769714835 7.277290271572488 1.0123814771457196 -0.21062477097254048 1.1535439452536778 -0.43331521486036345
Ni 5.30398389143609 1.77373164131931 0.176164729933589 0.8335534446611 0.15780325629613468 1.0250605209675832
Ni 7.178202423125688 7.686702519826614 7.456718806691342 0.21656119106163352 0.7259409502867433 -0.6570341000127007
Ni 1.6825497881716867 6.402936017107788 7.714157543882186 0.7278065427405723 1.5791841600672867 -1.6635610809524706
Ni 3.0719298717992225 2.569007163706028 12.887346977695397 -1.1827154246113116 -2.903522374560129 -2.678673489568406
Ni 3.3527335480666336 0.46079370606428316 6.093527097753749 -0.7476202350323898 -0.386072994043948 -1.0808259487636611
Ni 1.0165964430480952 1.451670312623657 13.439728165169686 -0.1975424838672856 0.8619237682736769 -1.3598793448222453
Ni 2.2016037313289956 8.735120124476738 3.493245243854734 1.165659240459973 -1.7582445259699846 -0.3121131547270302
Ni 2.3861082534534734 7.013350214731823 12.480430470000083 1.0785091277050263 0.3519868509935164 -0.8399614050699727
Ni 6.834723546594619 9.114551561578526 12.453920972935757 -2.1106260412987585 2.2832236822952487 0.838508217563214
Ni 2.460201138139695 4.73770993597527 12.40163060735249 -0.8110372658364549 -0.6786012846605152 -0.14276821633988315
Ni 0.7356819701719781 0.22840720884699262 1.7368100798995711 0.7544899655690297 1.1954668107397088 -0.293959623746455
Ni 4.5743412753928885 2.374784464462017 2.889891982649915 0.24556991958915772 -2.242889501452576 -0.38655430455574075
Ni 4.0254943119454545 3.6765695004102015 0.540335342617621 1.0579552148130749 2.60840344039825 2.4583332910803146
Ni 5.990209260135598 5.6693591825012195 13.372183547848838 0.5326847524996374 -0.8180887733665976 0.10149404018144456
Ni 2.723972183204368 3.480797526552931 2.7530440865835946 -0.5077152270384934 1.5814367035468895 -0.1076348629718598
P 3.209702637861943 7.054082052745867 9.756039513172981 -0.530480802869783 0.04498967733681284 -0.7059243979555003
P 5.188436173916302 1.677366760374602 11.868859480664815 -0.5460534604970595 -0.2316707930095623 -0.31761814370565944
P 6.053194315321908 9.493673143757663 5.998813837442206 0.591060107114737 -1.7707855958597893 -0.16174887120744402
P 2.1789092056305295 4.080432528685928 7.1537370295965514 -0.46577873470570746 0.22795786293434933 1.0107027095840142
P 0.2986259680457557 3.750089622966673 13.139151050065534 0.9647596671949967 -2.121505921436056 -1.367369225441387
P 8.944093795947598 4.0698317345139925 3.3171622029462076 -1.2004871467724356 1.8428752147371874 2.6875947033174357
P 5.775470409194793 6.678894689130098 6.0776137000898025 1.4987235435173738 -2.932768158799123 -0.8250708611113854
P 7.752222751652804 2.1468814740800664 10.883546178398507 0.22827565128508426 -1.8162447566338524 -0.11245388162705794
Ni 8.431377794389984 0.24249246246729436 6.019015439444793 -2.3047630990289214 -1.5801892042930334 1.650953676601105
Ni 5.338565578712652 6.89729546188406 9.145114524403725 -0.8888385903866499 -1.7007901405072579 0.04466263301469728
Ni 4.171604992290441 5.839516482752608 7.252985439230543 -1.0979620942233155 -3.115655354647079 0.5938633808914869
Ni 0.006561412725729515 3.272443564927376 1.5549966008306089 -0.39775274437472147 -0.20684910598019213 -5.334657507959096
Ni 9.053162728721029 2.231039948980916 9.103378005276841 -0.04805880318043981 -0.8002373470074734 0.23396087459531964
Ni 1.4449098415839816 -0.06066583803797709 10.296616167048546 0.5924456746083538 -0.36525425752638385 0.5455389827544863
Ni 6.3867390552418986 7.33518619439282 11.424274003918155 -2.2322837009122716 -0.15760451002176729 -3.1097096785866056
Ni 4.020067156027492 8.610164084760068 10.978699808281942 0.4980602204472326 0.43042298091423287 -0.3718635353127854
Ni 2.9568234628056365 3.100389576967634 5.4196611846508045 0.22087550216627122 -1.9101954372504006 -0.2650938485546983
Ni 4.673654472874344 4.65895044836305 5.072716627757591 -0.7158172315891801 0.5364210796136182 0.6949910388724482
Ni 1.243626205920754 5.38885597161335 2.3123477585933694 0.007289848793193897 -0.12865028888126231 -0.22473112846693558
Ni 0.05399362870354179 5.679715848552279 13.63913295325647 1.170086165883075 0.28518727687046364 2.4283897094433464
Ni 2.7090052514859755 5.030551006510548 9.330309177946837 0.6356857162439117 -1.4294413121817833 0.6150083904002183
Ni 4.784713988787236 6.873305179236323 4.254334378729848 -0.4887852229032098 0.6862474883518633 -1.5183086647381527
Ni 5.192295276134784 5.027846818094677 2.101290547506255 0.25616620704776527 -0.28446299710992945 1.128574934013166
Ni 2.7283758789232677 7.104907649603873 5.3544113716662025 -0.9714774455348043 0.7618831727093072 1.5666446328393793
Ni 8.222798483729772 0.7406518553404507 0.04099756208407668 -0.05719521826406924 0.5724378640278593 1.607627503009644
Ni 1.4019808504820421 4.536445079398264 4.638260590118709 -2.1632716925189324 0.03914350296868097 1.2169121250976784
Ni 8.58926296179574 7.9272438352355135 1.3338606541685116 -0.9974011073791016 -1.14363902743514 -0.5937775060459
Ni 3.2969127142737573 0.15422794036415302 13.083755562575572 -0.3172255362529311 0.07113573960456136 0.07490394839774198
Ni 6.28951033633101 7.553004815473921 2.26343856748425 -0.7323525102400419 0.08632684552270294 -1.0224961026745165
Ni 4.915754452439613 7.746701700303735 13.295418399193322 -0.6172740465059434 0.30566997020484776 0.9357594233079044
Ni 3.8604543126893756 2.2167396748233803 7.539393733780708 0.5221915662777975 0.4862056351014917 0.5314560222988589
Ni 6.921389029506014 2.3143815336311384 2.353094619876391 0.1693112569357342 -2.0526530643284007 1.9018167262684023
P 6.305500728248464 5.194483039679568 10.85384893144811 1.1092569504108445 -0.2761765887314212 0.04614333132528182
P 9.488978372202334 8.301370180479779 3.260006176122995 -0.9720880825356099 -1.279226666866184 1.2120555683363254
P 7.217694841449126 5.6820820134161645 1.6429484511481653 0.6013920851683643 1.2458313792351898 -0.45461346211750736
P 1.250198886098216 8.698209830508732 12.85327889842699 -1.2933636204881984 1.239025669167266 0.5376721784118997
P 6.332073135251633 8.628464304282746 9.480624495696778 0.8048270232606848 0.9889635181347097 1.0458576602185923
P 3.581340754181883 5.84494363867057 0.2914054093936578 0.3622877186988922 -0.12691248025454918 -1.1607985699335621
P 5.893318564776692 3.6044671988634396 3.8445728394720042 2.159157927460875 -0.3254463815008266 0.01802189049871735
P 7.004270526543814 2.736028356558456 7.058680112007159 -0.2553362549473022 0.7664052289493768 0.4340024707353751
Ni 6.906224917382298 4.936702523119496 7.484767249871507 -0.5317069619674004 -0.1669306725186996 1.6099335254350018
Ni 8.146489666869435 6.593224497788433 12.285231258272564 0.45898588015359015 -0.07848240977761968 -0.6135662586370529
Ni 7.1494985898364 5.143075291148702 5.340160862087154 1.042323936033721 -0.28642937680768094 -2.869597953898542
Ni 9.198090326634071 3.186313285973288 6.768822099318138 1.0772300038822866 0.856887234291034 1.0178830293825374
Ni 7.7572085990445645 6.326214060350581 9.352173668034322 0.6690828036471186 0.4134907239352685 1.0244324004652807
Ni 0.7645735943234804 2.3849439501077514 3.277005943924846 -0.08514388095819529 -2.3950957232769072 1.558082087981349
Ni 7.697904244757632 3.8185018340709442 12.153178601872858 -0.6006096984763849 0.8645979726717303 0.8008718952676788
Ni 0.32811101132185155 4.967556561781127 8.667986769144138 -0.47188176227965184 -2.6256619703683812 1.4274386799294578
Ni 8.837099952201621 8.707965565800707 11.45151212952787 0.07057549622571715 1.3343971413907405 0.844874526100874
Ni 3.8827450880340835 3.19757134816297 10.654773716324511 0.3258744701771807 0.8674601247108737 0.6567901023226946
Ni 7.064457497883148 7.480808618496053 4.471700423833015 0.13472503432043248 1.4443876490789704 1.399792378967099
Ni 0.611634838228421 1.4163844096137952 5.2906047314577105 2.70248678993792 0.3748028204467674 1.0533691381042891
Ni 2.5653640209790916 8.65313063403445 8.192852413886943 0.4286923713763714 0.20304721573559867 0.8596401144458228
Ni 7.165629824900514 3.7424371453314844 0.8545310510494738 -0.03812508900649563 1.3573087558815915 -2.53680670199687
Ni 9.349571825638357 7.310707655503328 5.576490967410922 0.07838342230591017 -0.5155136400369895 -1.015972699733702
Ni 6.998740085651636 0.8547930193022611 8.207583668073259 0.21564947788064148 0.3578376533473385 -0.5956484978163676
Ni 5.162436529042885 1.3550613035580719 9.770455278710777 -0.18854259436152046 -0.8821490941816162 -0.14218509014290354
Ni 5.36284693719682 1.974376788051013 5.565579379362023 -0.45058737167724977 1.7816737035272026 -0.573522869561922
Ni 1.6847469412595812 1.6693856487305407 8.003851239566771 -0.8205737445719802 -0.21247596524866633 -0.5014664179153041
Ni 5.288688325708824 3.5465243283275543 8.701106504558371 0.17323064659479845 0.6724141820131968 -0.15864323569892677
Ni 9.068176608154975 9.00028082192179 8.587235759438148 0.8201777946851423 -0.40156877568670196 -0.17269919957136065
Ni 1.46265607806313 2.9620628278613848 10.745873880447071 0.474187527594693 -1.1260046021828285 0.0037934056041612086
Ni 7.913882515389044 2.622799856187002 5.0109991608912186 -1.3713490360247413 0.21116701662925566 -2.1599089466942867
Ni 7.845367019310555 0.3222481806035552 3.689117685823288 0.6721231331353392 0.11239397492339998 -0.5041146541714285
P 0.2559298376129605 7.305299278671588 10.176506070531289 0.06006148406827075 -1.420177370381354 -0.8030843295379653
P 6.165568367270291 9.348632871327291 0.9296774424727114 0.9394497276752982 -1.063618069525807 -0.00414513251662512
P 2.437544170613671 1.2997756737225032 3.986025367479793 2.1133092445578763 0.9502069661918022 1.4949003131165415
P 2.845566766487421 5.710541718584576 3.769758837874884 1.6056323269564863 0.7367881774138925 -1.3021197694142734
P 8.804076929081429 5.987824316185489 7.149257278578455 -1.0158490296716443 0.3141435548934977 -0.3496540890952817
P 1.234001924232327 8.626173255763744 6.5737599749200335 0.4944848443911484 1.4524375159666405 0.35253603862876703
P 2.2027680346747176 1.9152508350831843 1.3671287443638926 1.0669828722329817 0.1774202591961138 -0.2689577023854787
P 2.8741109775438285 1.4638016023226306 9.832901374122535 0.33941415653482837 0.08455329856204792 -0.9175686113314907
