# total energy = -340864.66416227695 ev
CRYSTAL
PRIMVEC
9.33416672460661 0.00000000000000 0.00000000000000
0.00000000000000 9.33416672460661 0.00000000000000
0.00000000000000 0.00000000000000 13.66149651349265
PRIMCOORD
 96 1
Ni 3.7397992806149922 5.820954451759386 10.517371420704785 0.20264303831864452 -0.08318495745961157 0.5909336088392015
Ni 5.59676643277604 0.6140406977435382 6.648080177038994 -0.03657419957960798 -0.4788990741377494 -0.24287360370391717
Ni 0.021967961640324232 2.3904801258071107 7.124975828345756 0.3579286703992481 -0.16809049715475566 0.9568524965327779
Ni 6.690656112212146 4.013729074648812 13.044297463852919 -0.3323935022426211 0.22899735994245726 0.6590704137164392
Ni 0.4915670947341079 8.602806858687021 10.23616284337497 -1.0236579841931017 0.5915684142097232 -1.6362788481977497
Ni 9.177100807224344 5.37127163043614 13.208604002355631 -1.662714159571143 -0.9468593898758079 -0.4995499176188815
Ni 1.2975425313879205 5.210285255075752 11.500343195670116 -0.435013942719025 -0.6028079916792844 -2.125327094954359
Ni 0.6585338707840879 3.6347245645813704 5.043031920104014 0.6012907837038096 2.6630383541343106 0.6490562240135467
Ni 2.5250228065309828 7.714810231242533 6.5096619502462625 1.0938357307597677 -0.18250050193249862 -0.12823736971355978
Ni 8.9102836483169 7.670099572114785 3.363938517936741 -1.4552091651745067 0.9526181467364562 -1.059213512700208
Ni 6.067609810308597 1.0123557321540875 9.621122456363668 -2.4167559818591604 1.655224536062317 0.9771441569022784
Ni 0.7497426819880089 8.800177816360552 5.080219240764754 0.43565183341334 0.8010143343828141 0.3728315556530095
Ni 0.8933917758736829 0.24611117662287524 0.7018948093878533 0.5537001784090401 0.07981012745010772 -0.832951806521359
Ni 7.350899068943266 2.400355674315912 2.8579165324458007 -1.414178472485442 0.29327082520954656 0.7893109299029568
Ni 6.967470163797213 1.8230934607258493 12.391865337927246 -1.86715748432332 -2.4671064092872546 -2.0754548927142644
Ni 8.884418672024001 7.112933819715129 11.570290641662933 -1.1271245747198848 -1.5540117745667172 0.691123585497242
Ni 4.860216662189107 2.113890094226024 13.193249297916145 -0.24740311614315452 2.4931041189025964 -0.3145150793003035
Ni 8.559178962911847 4.446405044003217 3.1137557777415235 1.286499032157881 0.6387862095461063 0.7066705320929055
Ni 4.503287456680563 1.5515345450674884 4.181169092957201 -0.36119911362040374 0.4366303952765254 -0.31439089501761336
Ni 2.7441050362569444 1.4389644930673564 13.42502972820106 -1.3719077367416888 -1.0592281679882274 1.3690353002899005
Ni 1.2434883712608258 4.995067370418452 1.2806346215875029 0.15100268843453352 -1.2164161592978664 2.737929704126562
Ni 3.660766890044087 3.813380517755709 8.94736455947575 1.1885726547230369 0.7762551251602631 -0.40679737107549296
Ni 7.717003760448174 4.68572374742207 11.128736946234124 0.19540949668468283 1.1665334155348104 -1.3948314354173978
Ni 2.095548456400132 7.520622224458889 11.511449920784125 2.2963594483462577 -2.659716231739613 -0.793800333132878
P 5.01862680750372 0.6104629115966351 11.530945261630515 -0.1255654793083515 0.36644030741468503 0.83632483675865
P 4.654164929361337 7.0591970212603385 0.6371763636546101 0.05291484572116048 0.4197765569439803 0.9470799905270464
P 4.103010380401819 1.7203336180666908 1.6529456006193484 -0.3954027560853061 -0.30262912649599494 0.47105849504740804
P 0.9213774748709296 6.950005937653578 0.6212261393712083 -0.18573829214350593 1.815039680582158 0.24691254965998122
P 2.7926053671186923 1.965868876596 9.388823046402868 0.6343659689912237 -0.9096902370246785 -0.34883570695904437
P 3.7711900836727406 8.277753832911516 4.411912497307023 -1.157579291665316 1.299631455774781 0.6982679098515071
P 2.3794191381105803 5.305111055927274 3.1883880420675808 -0.5562340005744872 -0.7676712401459941 0.8762633248248006
P 0.7582871783064932 6.3700181473484205 9.579550877541697 -0.9975332620815917 -0.2340729746931517 0.05665374393830242
Ni 6.613910592515207 6.0234218645234705 6.807168916282332 0.6893837199879999 0.48902562104879 0.38370500803240365
Ni 2.874335331904195 8.320280297000455 1.0255122403045176 -0.6390530900542477 -1.0775061403618087 -1.6964398339583624
Ni 6.83289014640601 6.666797981788237 13.214697346463899 -0.15614386631584076 -0.7520795563553242 -0.12697264406852327
Ni 7.872408304042716 1.7769173374053975 0.7568347819473538 1.2281954113209814 0.4722450591563416 -0.24141630243210035
Ni 0.9701372955706218 2.7748611159700816 2.6927493837611296 0.8924569038655275 0.6951129091622932 -0.5675250001072741
Ni 5.154224249079667 7.070622041463337 5.575530269815385 -1.3282226371489125 0.6840512520314929 -0.07237244022513986
Ni 6.407840191353772 0.1131590379272635 4.318413081562403 0.6192031452078562 0.4213171619582228 -0.4642669260468714
Ni 8.125429564371702 8.7521068571731 13.543707125559704 0.32154576089483977 -0.36871984747748116 0.24207090529696373
Ni 5.015994572456951 7.842520301845004 12.334240858986714 -1.4779474873122869 -0.12358984363921942 0.5627481475439212
Ni 4.6512620034764245 8.71755177155913 2.435229988435555 0.816205954521588 1.1099730026412626 -0.12731794322308396
Ni 5.186940503827633 8.120230433445993 10.094575666942598 -0.4096656937622235 -1.0870001958951732 -1.7061516619294874
Ni 2.993345959018762 3.5921607638251016 4.980667551245931 0.9980104588283264 1.281370195571748 -1.7142470373431122
Ni 5.753085724720169 5.564918255543498 9.053528572778728 -1.8565858794550607 0.036685785456807785 0.6859034747488832
Ni 2.494332065985674 2.8682961259635578 6.993046714334987 -2.152333962560506 -0.11337279389690152 1.968644325415913
Ni 1.8005514478253253 7.563858085227098 3.119711909597351 1.351009553136441 -1.179951231602613 0.08358219289803025
Ni 7.61452394279399 7.092426655184092 9.071902880188532 0.3069478084760069 -0.09378792978643848 0.4779868467361252
Ni 0.20189989542066758 7.393910909707497 7.461294260071423 0.22758093921090483 -0.3379167460536954 0.417242734778533
Ni 5.185428368800765 3.7825964355420743 10.941000715565115 0.3608165334700044 -0.09746820685150312 0.34240743483519737
Ni 2.8050758140069325 0.48174008389283607 11.326173243075484 0.26574408054418747 -0.0003195881229478367 -1.3963507002754016
Ni 7.052261735303779 8.843535021297585 11.368182594321903 -1.0568663526242703 -2.5918414222745105 1.289002258195709
Ni 7.729875576510211 4.111821833891713 6.016372701731555 -0.7397320905335647 -0.05214582876561987 -2.267763124765804
Ni 2.98279835049802 3.6183244334566416 0.5526078787353402 -0.8722498327900333 -1.1876424295992838 0.47313748906362385
Ni 2.707076396432357 5.862435489163083 13.129982315125359 0.7618201806818558 2.7297304561452216 2.0766463419192043
Ni 8.74138189948254 2.93789167386679 12.18772150880004 2.7350130447003993 0.7706755741899566 -0.3620763740190345
P 7.259900276493078 4.268187796670006 1.368458863897954 -0.5609710010388402 -0.09474643704496587 0.9975108934840885
P 0.8066913672498666 2.966584902709941 0.24214695596910607 -0.1256878638188287 -0.623021747622998 0.1958411849054627
P 6.401511626241326 2.585732227609661 4.891307838491532 -0.35748824042771976 -0.3523828008803544 0.41285283324095345
P 5.5737950482012195 7.840550792643342 7.880552364604086 1.621739259820678 0.1255143143554419 -1.2861460196938366
P 3.885626969039375 5.263434001020093 6.680020762523178 1.3945146755079274 -0.5171208366231095 -0.8547275076355537
P 1.65167148684671 1.7361643650146366 4.685292508914408 0.840209773635353 -1.0302585202287546 -0.2978183353709129
P 8.311972888519517 6.301328013627941 4.755716930832368 -1.604284040458708 -1.128225263983231 0.7811867581339256
P 0.10835847592530101 4.590309894060101 7.1166562854479345 1.7717389609119938 0.6325618259029494 0.16219264361308197
Ni 0.8392209386611816 1.5061891625951302 9.77242370021864 -1.6024058495993887 1.4859204782154345 0.45594837887884704
Ni 2.3579598885626285 0.5146495558942344 2.814090752333776 0.57803772671314 1.1538704753551614 0.4901620486460785
Ni 4.710561965363393 4.944709540357033 0.5996287441541349 2.386753521959799 0.5138550213876442 0.30715709627333554
Ni 1.8267431199573627 2.775309155978042 11.645196397077184 -0.2036534818610299 0.09655777922209179 -0.309275428167919
Ni 8.160442024160467 6.2553199053104755 1.5024638966122732 0.18271827437025953 0.6727078019942156 0.40794536863700714
Ni 9.221195411341146 0.7830600570799883 2.5149997781862288 -1.4682125194127102 -1.1495739048623363 1.8219531198725396
Ni 4.052045829496287 0.1228161669321836 8.417640324147005 -0.2918317787701748 0.11698493672819207 0.4048109367730835
Ni 4.089625185163992 3.897920066757798 2.825279618115912 0.08991019199858709 -0.2728102433623495 -0.4072162037804664
Ni 7.931624258428192 2.711388781508979 9.493879094102825 1.1024306715176306 -0.5704745696539014 1.5002921735560744
Ni 5.834227636995223 0.2632319054270744 0.35851228020333853 0.31847277839647087 -0.9990977783552343 0.5558925580746684
Ni 7.7576260545032785 4.7604904237505155 8.460236794487185 1.2739726175560964 -0.3664400503043689 -0.2615498399571818
Ni 0.7320348340900446 4.03543101253441 9.377169339112472 -0.04196451735724385 0.022669416573057734 -0.20132303395564038
Ni 1.6851438091081092 9.28493843664039 8.284550039782271 1.4172046609062754 -0.5496157239270213 -0.5561219004766552
Ni 3.1329010873316947 0.7793198564301994 6.214792819757061 -0.41269111085210863 -0.5370404583651719 -1.023736659949837
Ni 4.21631783158172 6.517852681641794 3.2741008958405167 -0.6616656852474411 -1.3035325906014001 -0.7382822454609157
Ni 6.3577343837968305 7.225345190879106 3.3019969868361714 2.2339970840589527 0.5060373251154381 -0.1848360920442107
Ni 6.342454352692004 4.879379706696261 3.800191340021365 -0.3299278143109479 -0.7584281242811712 0.15766904471111556
Ni 7.709816451987137 0.06876107338840555 8.719327130090674 2.664819614404449 -0.8488144845852286 -2.479677046863413
Ni 7.462498367592818 8.491636931711767 6.341462130757707 0.6550054996184461 -0.8263150179311317 0.06917450211313247
Ni 8.80450886977084 1.8833641759633992 4.627954588895634 -1.695156082149932 -1.9503817796612992 0.5856096255231269
Ni 1.1075268971784111 6.10822277019687 5.381017434025969 -0.2687684691928081 -0.652409970977128 -0.4697536601930555
Ni 4.673467986370978 2.85442555405044 6.580511076755101 1.5729875443382715 0.5275939682402913 -0.25477524023750964
Ni 2.1256044736008306 5.305503090934239 7.765850388899408 -1.1709202317485963 1.2669414217409278 0.4343464843383552
Ni 7.003808075276194 2.3866717857394444 7.373628698597124 -0.10743123160148593 -1.008678222954818 -1.6160121275289139
P 8.16672391843875 0.9296111434338911 10.64983351564169 2.6767888709511833 2.4359914330500048 0.020183416926410402
P 0.9507782335599856 8.917237602607125 12.31421347063087 -1.574044010627244 1.8169142718970515 1.5812626398628704
P 0.06579000808561601 0.2511749621295147 7.01530123489707 -1.617444489100066 -0.4676291576508849 -0.540097757134257
P 3.1176023878932027 7.557128150940855 9.465381882763156 -0.7155737481198063 1.0770320289388675 -0.6698415361900141
P 6.521885041713441 6.483820309370444 10.990783560949652 -0.1152494420943241 0.31977427081671383 0.35052209352253183
P 7.1993308679168875 9.214204120383592 2.090400663392 0.22658926472159685 -0.3600390318740315 0.5042606928309896
P 3.3289839299823387 4.217923308276912 12.105028257997425 1.4099387233724816 -1.1238556741606258 -1.0659557165200482
P 5.903076451551853 3.0504617258669215 8.942227967467817 -2.2584217927602204 2.0482657338939823 0.30073396635581107
