# total energy = -381168.7349372746 ev
CRYSTAL
PRIMVEC
9.25345530106608 0.00000000000000 0.00000000000000
0.00000000000000 9.25345530106608 0.00000000000000
0.00000000000000 0.00000000000000 13.54336718670299
PRIMCOORD
 96 1
Ni 6.740623873937287 2.058347814166201 9.590355857144797 0.23749665566272 -0.2966731660228762 0.9630349711944058
Ni 5.911930699128444 0.22329512591493744 3.913112212550655 0.25698047541894453 -0.5033448658849395 1.496830954480351
Ni 7.279683902952857 8.474193919699259 5.542230182069817 0.9607400045126421 0.15059491147315354 -1.1627330679521135
Ni 5.174393310875815 7.449669873822584 2.5375796289924266 0.5707471065889977 -1.6270483307384174 -0.11153291247468534
Ni 3.1252064172954075 0.7601139680962844 6.940839957394622 -0.6611697194476291 -1.8851806603736179 -0.042100014493843624
Ni 4.063812132223502 7.911870704468856 0.05801176094591711 0.32388186522718415 0.7571132621244897 0.7652790857647336
Ni 8.15600461135269 4.7905322314207845 13.179064140878761 -0.6837625171464805 -1.0469760900937517 -0.017663478718034094
Ni 0.49294913672155966 3.019004512686161 1.8355597775927806 0.5419129559661249 1.156919289483814 -1.9671057772841993
Ni 2.175681625305458 9.192715457645013 10.53113243264807 0.7962585648653835 -0.7133775117994359 -0.2571923343194345
Ni 2.4219068130502914 1.0242649491328344 0.16317357719774664 0.7002322326667296 -0.005970615761138104 0.28148823075232166
Ni 7.1920999500795855 6.815863717657579 1.3220735225397957 -0.37913281528068893 -0.4649107302784574 0.3793865831627079
Ni 3.7407832668401966 7.155206424447708 7.435890553777831 0.8615121346575549 0.11119095575423432 1.529773985065275
Ni 4.12153518536914 0.13465350311948926 2.3965939865225754 -2.8973535267452553 1.9946821442405709 -0.33664842086423313
Ni 0.3964559572422267 0.6571998160972724 12.704206434295875 0.7677820546922455 -0.997152224593089 -2.2563548829288624
Ni 6.841070129451218 6.623687961368929 9.914083358390958 0.06799745108589579 1.4573362388198385 1.1171276114081727
Ni 3.8586260180119973 4.623747956028516 11.842848562852836 -0.04173363229336038 0.4176080885377517 0.5388620849549428
Ni 1.833488854333083 5.7386412447747475 4.813461367905167 1.2157440729315063 -0.49365129274625946 0.9311568915388866
Ni 5.758388118037458 5.932815747373025 8.108941538525068 -0.27865667484079754 -1.0278951622029007 -2.3636364763263615
Ni 8.27567954664165 9.091945331201282 3.262285251006348 -0.14330866222438546 -3.801815939712091 -0.32836124115477644
Ni 0.560045014575632 7.510853719189521 10.528599761977027 -3.2293387378058642 0.7811993565394159 -0.09653412507300795
Ni 4.341878459095321 8.03016687494238 5.430389221899982 0.4730423582466562 0.5722797411834402 -0.7235536810014893
Ni 7.999843302457887 2.3090609276525598 11.97344720193122 -0.4232228636213679 0.4735324105091974 -0.8064249638754241
Ni 4.569531962379864 1.4274935101899522 8.98049856822029 -1.0600879448853615 -0.18336824924943257 -0.6144286066373483
Ni 0.1755843112277128 8.796260425748299 7.160323585138561 -0.7436877327472031 -1.0616876852723134 1.7831171208419485
P 4.205861922034128 1.5975257483353658 4.16426023842846 -0.3556835831188132 -0.3557602019930195 1.0469912596024031
Ni 8.828101564875286 8.244338094092072 0.5291773389290758 -0.2793542151284544 -0.742414008241102 0.31149634707863777
P 1.9827840995161088 7.877531132454837 12.381264551390858 1.1151974842649957 1.9986699252437257 0.3721129323194301
Ni 0.569897168260172 6.417557994733434 12.749224493538184 -2.169571666595031 -0.07036029489111754 -0.27283441173206563
P 7.438417672375791 4.013399308636226 4.083826430339677 -0.01743079388193772 0.16964627167764978 0.9626403068591487
P 5.75188293907603 8.970771336180102 1.1308249624558895 1.2030302249092635 -0.9912222322618993 -1.7041670273992906
P 6.002216660901765 2.941793683021653 7.464819630573151 0.38365332885886183 0.6400905301798266 0.752551096675104
Ni 2.4363792168848177 8.515566117617526 3.9978257436403757 -0.68291379599294 0.010044271609879475 -0.4957706530821075
Ni 4.988445129894477 2.541202356678627 11.322349114151395 -0.23054516404555137 -1.3047165836071724 0.10835734296018112
Ni 4.807040395385488 7.289103920282491 11.578874322809407 0.7210771944365388 0.1792388004620913 0.012291929993475604
Ni 1.649965078597682 7.049217349306616 8.470874705341558 0.009726997479776798 0.855623794197578 -0.2464250685006014
Ni 0.33233228917821184 5.394579275864666 9.31634624500511 -0.7782456732277307 -0.8725118282021684 1.666875232927368
Ni 6.351192214489684 3.2182591621547427 13.488408071459713 -0.048794395794883705 -0.21879650815005544 -0.1829887544228268
Ni 4.29712875005199 5.216200421185528 6.04065273750501 -0.3440076894427817 0.5862308040468936 -0.11748475918274605
Ni 5.018019172512858 3.811100272427516 9.230942406162157 -0.5921188873965545 0.5454597927771186 -1.2519310643750245
Ni 8.222685009071105 1.725778636536478 7.860421493906218 -1.0102298837126538 -0.587977097314039 -0.3558681883257936
Ni 3.9774218750629267 0.41523491909759 12.012939097765614 0.6696276204069952 0.27069679656377255 -0.2864563733908744
Ni 2.5929384243505185 7.343347674296554 1.75057512026754 -0.8709737942910871 0.6298220583742831 1.9994222300287179
Ni 5.629968667643878 1.233800187258807 6.353951594811586 -0.6724149533441452 -2.105210526710142 -0.2911105843334341
Ni 0.009087818290210107 7.049791063525119 4.8913088352831116 -0.09270138159047905 2.8475916248307795 -1.0951765610583784
Ni 6.180595515580903 8.191047445957135 7.4061499489669815 -2.8763542987857686 0.4789288989344204 0.6742134400054647
Ni 7.081021474613053 6.655501340130503 3.7834888876437285 -0.13747817158553743 -0.6355695023810215 0.6610807592782485
Ni 7.720786855886392 2.589940304886077 5.82600404007024 -1.2661688052409612 0.8098707563321794 -0.5835931093137303
Ni 0.2156212355696862 3.739746879864834 7.605223230714874 0.48127040258340337 0.563005772080682 -0.7700677654026287
Ni 2.521177879761801 3.8144222628217586 0.5157283672327196 -2.163798254446364 -3.1047384506242595 -2.6956869934072674
Ni 0.8287514715762084 0.4031841444724596 1.7093898421430445 0.8948439160404653 -0.29669553462037934 1.3376017643709674
Ni 7.3487979593723445 4.2712931033090245 8.901879362683905 0.23885111280808546 0.44470057387916956 -0.9722320643126418
Ni 8.359386301812448 5.252871863894114 5.847524800682745 -2.180929514810012 -1.90748652295967 -0.5381426902904152
Ni 1.9285958662328684 7.847596205086107 6.253825508845402 0.5511995234743732 -0.476154935733709 -1.43048620850653
Ni 7.546979208045015 3.8070657659877116 1.9870962096100278 -0.5525537235094227 0.3310542146059073 -0.45939108601180884
Ni 7.365667008087397 7.226319227176823 12.556705434063945 -0.027722662726249032 -0.7182476954075437 -1.4251285437390424
Ni 8.118963030438618 6.573145589409732 7.882334601016539 0.6433290917217823 0.3863496447441024 -0.7943289519428384
P 8.133750051747809 5.552794851799918 11.198224192286974 1.6671397994426642 0.08903550270311764 -0.4207785158459334
Ni 0.10860965363593733 5.561511606539129 1.5042213094963002 0.6296922176646381 1.1239091531063805 0.14649220215868966
P 0.6150494026019704 7.506902493845952 2.7321307472147875 -0.3024046691900147 0.2761207957928212 -0.1126773104917737
Ni 3.7373872488048567 6.17782873249489 3.7564290087861156 0.07146278392667693 0.25442968397263277 0.1630822453068869
P 0.5888565724907101 2.8593361442943723 13.151530485118126 0.24198528756169294 -0.19610240898664938 -0.37969151599763645
P 0.9167758889140079 5.733348268436289 6.740722885907256 0.9034879648687084 0.6275957401469255 1.6699014213482013
P 4.279574945656787 4.864041679030425 1.2017378905540426 0.9911533266971768 0.1569391085236265 0.5464344979855622
Ni 5.425161945092996 4.618223643311628 3.408269609941296 0.3529952376533727 1.2718799966931258 -1.3726502713346684
Ni 9.16902661249387 0.7515859838418727 5.410168571734248 -0.059884592170774284 -0.92755246201708 -2.0991229257551653
Ni 6.2632473768660635 4.4581296159835295 11.124927574145486 0.7523443799809365 0.41701647770033984 0.605714366692802
Ni 5.807523964815807 9.152425913977794 10.27112699951297 -0.13210739419192732 -0.7812188969234417 -0.22866568763465134
Ni 6.605782525678514 0.18372365036636348 12.645996649410023 -0.8698098558899731 0.8654135265944902 1.1333417592741901
Ni 2.4651111950857163 4.707103079904101 8.174410658966027 0.6736840498645559 0.4269928721867614 0.3163284783599585
Ni 8.29451958130092 1.555783412211613 0.7018014698584094 -1.978378779094857 0.289656625495727 1.1118951593646398
Ni 2.0776320146720537 2.131986810147763 11.21614258281458 -0.09753222732021913 -0.16711759171852508 2.2756093602831
Ni 5.620456115762871 5.600542680307692 13.208046887713877 0.01005275625031172 0.2642916643683771 0.9916310376645439
Ni 1.5876523117040104 1.9117360709729532 3.3154972447726174 2.2081279296016745 -0.6453445794899143 1.4573627211823996
Ni 0.3566346384049492 4.578887205523538 3.6451154955590983 -1.7560855706454532 -0.35853699340720835 0.11156325149198852
Ni 6.158951684015072 1.5004107366708155 2.0780808072462063 0.8370401176581197 1.9352616361904087 -1.0234098727380376
Ni 8.082402629191677 9.123333051026547 10.889137507758834 -0.7981483256889286 -0.03629266378344717 0.6203989652881703
Ni 0.6021278778484327 2.8437903396639346 5.245562559681268 1.9612058668599963 2.0733926108685967 -0.4906829541465549
Ni 2.2773400834423567 4.73391033943647 2.3552588024248577 0.485638449744112 1.4006403287896911 2.7672909308974982
Ni 4.218141257001146 6.18808156078687 9.752185832656625 0.5680379351879508 -0.47434976420417013 -1.4929200494617192
Ni 9.038423346687917 2.9566824923373516 9.770388304256945 1.0545122505697968 -0.6612746204566096 1.2530366387343777
Ni 4.173817206894124 2.873799294673762 2.47682421859834 -0.8348325684838398 -0.07969365647690146 -0.962289094167317
Ni 1.208288411445642 4.334475694985589 11.553616091667001 -0.47635959554534735 0.0595637184962458 0.16846407844409053
Ni 0.20614662285474258 0.500240859369646 9.318919630878755 1.5519512924932626 0.1485639970860538 0.25861698258110294
Ni 4.202179046889536 2.482211580179198 0.07975367913620085 1.2511851873479356 -0.934714526983158 -0.46130450098443776
Ni 5.551018188413583 3.305167612803 5.2710650820392955 -0.8687631597930136 -0.20318451264441137 0.08994130234683866
Ni 2.1330787178539485 2.069248384317782 8.968891959441743 -0.19460782671899388 0.10297371005076458 -1.60138435031341
Ni 8.31906899777982 1.8995030032816207 3.357942843486795 0.021899371176252607 3.038913067489018 0.5043272844028669
Ni 2.584564047451384 5.948204243266131 0.007562848883605254 1.571115009905907 0.5090653133084846 -1.014805161788162
P 1.055689682778648 1.7746461331158483 7.033950999021321 0.9616229213382278 -0.8634327487190355 0.40725554165883415
Ni 3.110391635620806 3.6511450469264757 4.564981113143406 -0.07298693388068721 -0.4571866221613223 -0.15860878291656555
P 3.8948347879637257 8.530445673478086 9.216274754424235 0.10959610046328867 -0.23785249634024197 -0.16629612425849422
Ni 3.538650792823956 2.9529070826413886 6.963714498493694 1.1717620109236013 1.0048295386326889 -0.2595058129439595
P 5.997663960974281 6.606754138467916 5.806312687538351 0.3256489844299359 -0.3727757627144096 0.05902430105300802
P 7.679645994346555 8.599661517904083 8.680214695564135 1.295984088830181 0.7425641606657212 1.972547774235377
P 3.099870457129849 3.673547661813553 10.138808143124587 -0.7855974856071115 0.28031992147583334 -0.24897483150564864
Ni 2.3271329255354436 6.349017652532449 10.785165685837644 0.7634849699787883 -1.0853050675809373 1.2253553707690252
