# total energy = -381167.93036985234 ev
CRYSTAL
PRIMVEC
9.26743655158544 0.00000000000000 0.00000000000000
0.00000000000000 9.26743655158544 0.00000000000000
0.00000000000000 0.00000000000000 13.56383016008621
PRIMCOORD
 96 1
Ni 5.3970677434838965 5.14556805098195 0.8145974766474806 0.5594499364086236 -0.37995274007882307 0.5191916031092091
Ni 5.533261990702136 9.272996990104188 4.007962414837377 -1.3041036326135218 0.859844517147145 0.31744099469784687
Ni 2.0146758291722167 7.276114639066092 6.966274580131901 -2.139331636763567 2.0427682011145207 1.342278086800714
Ni 0.6988787036946174 0.4232985041178292 6.588141854677846 2.8474425008474253 -0.775810838533993 3.413945744558404
Ni 6.652842462799385 2.644778106160198 11.400697548430525 -0.16508307778699957 -0.39073903206104965 -0.20770451200195195
Ni 7.011316175146197 9.254211896261554 5.932588416752504 -0.8437095592584954 -2.6008024881225404 1.3315509301911972
Ni 5.473839187683399 5.029196850497502 5.435718514268355 0.24540716875904836 -0.9771593264109302 0.05654781448805746
Ni 8.127829125752616 3.571067654589044 5.011862110471528 0.0770410493454028 0.3639525079958248 -0.13105529877832914
Ni 0.39788811990119255 2.6807635621991492 3.1603181862740337 0.19539869805140542 -0.5893323257903528 0.19846833811566464
Ni 6.562744444872348 5.246768457869755 12.290756053752425 1.025962463956562 -1.1829409103585564 0.8096283013040702
Ni 0.19178867220718288 0.27941877178676333 2.7697745098214295 0.39109795806236514 0.9182892915475992 -1.0135370937090158
Ni 1.891381853601213 6.181083606332012 10.973586420924999 -0.41410290359797064 2.416539237862664 -0.7456934503233221
Ni 6.8509431860259165 8.353509740087032 12.444773434901675 2.5852491137689735 0.2666524512910698 -0.8734639077027924
Ni 3.832020132349742 8.05714638735213 5.481008476581605 -0.4176535970637065 1.6318832902332154 -0.34580334789062384
Ni 9.445556658259036 7.345462866606518 13.016448231554046 -0.568224340167144 -0.6708247260388898 -1.3600395245491932
Ni 3.6694878305183933 6.677706995004511 1.61684887435211 0.5613746642351621 0.21027561516323787 -1.2719543015744867
Ni 0.43242878258539935 2.4168733070590167 12.435916545811686 1.96929070075066 0.4972621500259694 0.7437111297859708
Ni 5.42941109696727 2.904099515091934 3.513872743311684 1.6270030793227785 -2.302810860398557 1.2840243453651436
Ni 1.9384048265452354 1.917608698975983 0.9605716496339168 0.05928475380324629 -0.44175228988412313 0.3899363336540962
Ni 3.8856507875383612 1.2401405538924368 5.435583209695042 1.3257428081498523 1.0804271706633457 -0.02656103831798006
Ni 8.775789752930415 2.4784832250984055 0.9218532265628032 0.6122156581464295 -0.1997708589771721 0.451773421565551
Ni 3.7791494069564333 6.194753075211088 6.633662576160648 1.6209756421817763 -3.057786764465069 -0.3580343427391769
Ni 1.9405734066928313 0.7255123895329748 4.671464533072945 -0.8434118255124183 -0.6780181584635355 -2.3610412047953595
Ni 1.1151691723098314 2.5578680863988574 5.686554658314882 -0.8902367562857573 0.9306902363151134 -0.5865383079849834
P 8.92913802516233 6.231340914624371 11.248918253202833 -0.6577511806843833 -0.6287290824204205 -1.367946952321728
Ni 6.119362479054285 6.61242717209996 10.657752184044378 0.3827817248871859 0.1777699292260487 -1.2214871460628705
P 3.071395279298771 4.491815275974035 5.110661324554879 -0.42396025600802467 0.8478611195330237 -0.2745290258256691
Ni 4.1073556716021855 7.608139087561457 8.825251915168655 0.6693779662900343 0.516666008473878 -0.5485754555879649
P 6.051552645977538 2.9131259982703885 5.670983511460221 0.5017862631485681 -0.5993346884187033 0.7534887779980249
P 3.773802096079669 1.0742627074744127 2.939932985171823 0.21740785533264492 0.5178340606400501 2.4888114050645136
P 5.291789664523689 5.730853004919617 8.31483116699299 -0.2713547418627456 -1.4525197912678016 1.1329432382841909
Ni 4.5938590195859055 2.413055123209403 1.3669496681385818 -0.8642030512261568 0.7468892704036363 -0.32998643546302525
Ni 2.9813992031735443 3.0812465643282345 3.2971361319706207 -1.2734532547175166 -0.06913182180065512 0.4443758435498992
Ni 6.664871595412972 3.0883732230184098 0.2981806970380784 -0.11413229777074538 -0.18203616070157036 -0.4987865570902958
Ni 2.656797971337257 8.354918390439316 3.06766328260887 0.341170991324935 0.13776947757371114 -0.06293829139543354
Ni 8.817910251951025 1.9603964534266238 10.476051116498127 -0.04417489474500134 0.12808824573020522 -1.9551054103892134
Ni 8.272336263536639 8.811636197421443 10.425390674716791 -1.6588217664952722 -0.05401193544008117 0.3400301928522725
Ni 5.0901580479799176 7.363951402480251 13.28669409466521 -1.08376677655954 -0.2327141466724121 -0.07807591836782038
Ni 3.7808638827141476 9.321002311320198 1.1797993479137567 0.0922871768711959 -1.6793062596018693 -0.36955391334300225
Ni 8.241327420913326 5.06709139846126 0.7704585299510304 -0.648798856587102 0.2537293154714985 -0.8520229642201972
Ni 6.320836549177076 8.743622480741076 8.490116388230776 0.5566425488668155 0.6260139974821024 0.3629582624033556
Ni 4.6036546999961985 4.847592164291145 3.085500317694672 -0.40784123895897506 1.7488687411820396 -0.389834003748277
Ni 5.630180841913919 0.8375955471358302 13.50504416670583 0.552602574469487 0.35416097582669975 -1.0367667536609175
Ni 5.460688695249902 4.2989413869494015 10.114629432591698 0.06007408247376106 0.2925912826440187 0.1071761781678864
Ni 2.644694699231444 2.1907293208981904 7.525891515117449 0.5247608696668704 -0.8747538301588096 -1.0297689821868456
Ni 6.920949401559843 6.1748558889850695 2.6308945594973205 0.3503012357609773 -1.3845231115128545 0.41230493115728345
Ni 0.968771477474057 9.1286659336142 11.53389470667555 -0.6001484425692503 1.026827640170335 1.3744479866650394
Ni 0.06418533865057226 3.350660211639166 8.210512267713451 -0.5338060105882743 -2.2019562535733237 -0.15516350468044246
Ni 5.51422667607324 1.2643563655405903 7.155530461935931 0.5741587033737079 0.11691011762619866 -1.0378905828527158
Ni 8.610986929149659 7.5599484176148835 6.770711281026788 0.5831909887793053 -0.8916562623411031 -0.12552588431966769
Ni 4.65865693579099 3.4119735717096535 12.571337888823475 1.392705904433963 -1.7008631598370385 0.9869138346945326
Ni 5.187883166169653 6.890403930762938 4.016900857368814 0.21002081883995444 0.6691992746203249 -0.05369774663377204
Ni 7.660796661914619 8.080648606387614 3.767055402287149 -1.2312858773208473 0.48686460884172933 0.3665246395983752
Ni 2.7911294638133315 8.735300322738764 10.41654676003794 1.6083011320379013 -0.8093256824619868 0.20862085316863424
Ni 6.986961351950121 2.314551540351301 8.764973727758367 0.5443223367385658 -0.05901607352289191 1.7009274374160706
Ni 2.8578828091258646 5.652394887271984 8.761013752129873 -0.5682945312834471 -0.15201853129355755 0.2986860826878469
P 1.413395279786898 8.968431956041844 0.6930087093976636 0.17877163101768567 -0.28030732307034306 0.31087182612076136
Ni 8.234061750675227 1.725846902334732 6.941100515546734 -1.2321387122394456 1.278480532728779 -0.46832104151158704
P 7.1131375002813915 7.018711589495691 0.7000019170018337 0.3980401937081532 0.19099131301232913 -1.277609185867419
Ni 3.170408571165924 0.5316339103886857 12.655134976654995 0.10200029039390175 0.9811651051362135 -1.034242444577167
P 4.611633962846968 1.4567205455561734 11.231787396780478 0.4120383077594581 0.9442515199393158 1.1818332791166741
P 3.4018257287112883 4.761071376863988 0.1921760510540611 -1.6878382083322805 0.05614003752667751 0.3043173128316953
P 3.5522640258733524 0.01950795389183422 7.366326646462426 -0.35767284563470014 0.10019409042309842 -0.3785296344790513
Ni 0.5931826633469887 7.413244897373679 3.6417123964997633 -0.20424097893338372 -0.024241646156184057 1.173514474838334
Ni 1.7880592037484533 4.263002268093091 6.995572653972112 1.3299807574905997 1.75332034919549 -0.3023005395119826
Ni 7.973711656288861 4.5980479008966455 9.946953703487207 -0.4523215807595371 -0.8924396774743468 1.0335996687868458
Ni 0.12915748266238763 4.9433989231195445 3.1722138678016147 -0.9084622781548484 0.7486957274847558 0.8013164390042651
Ni 0.7842104790152074 7.96108940773747 9.160183558502913 0.7893124725648535 -0.7625894547477124 -0.34034926675458804
Ni 3.3553588019589573 3.481794438513016 9.318229494310966 -0.6010881807747003 -0.42208257936933763 -0.8033440109572552
Ni 0.9266834144812944 4.756057693702239 12.518763721399068 -0.4101961123443968 0.5122992468647499 -0.3856557040008713
Ni 5.233182395919433 3.421407822095348 7.923230076032519 -0.49882718052024416 1.7374013639723884 -1.5705187710828048
Ni 2.458567503999331 5.968646158796375 3.290734186816949 -0.6754673670172238 -1.4523051041538344 1.6595082510393353
Ni 7.522739659954212 1.385639307384977 4.383423338340357 0.9368372297531156 1.2445429994410695 -0.4793929830550325
Ni 7.589789563235647 4.644579699704674 7.206693198777095 -0.5926714174659148 0.2056964804329877 0.10278961906441651
Ni 7.735899967539048 6.772976242514277 9.06709493880823 0.3656059844388478 0.35145771796292374 -0.7158827947197929
Ni 0.37165015360258874 5.512252712092736 8.480540346066201 0.4856626181138281 2.4638480502509568 -1.0849338002844475
Ni 8.39478690238358 9.141306717038647 0.5251902617706371 0.17765422958379082 0.5600454039007774 1.1979242711412659
Ni 1.1095716406468064 4.210733926074115 1.0989604258220318 2.2833954319864223 -0.18118075467981054 1.218468928061837
Ni 6.1669693004995825 8.536207983803717 1.9609775216969412 -0.637072055068477 -0.742585757932276 -1.3657748843710737
Ni 0.5781666359403669 6.663342468385822 1.5659576734012226 1.0550730081692732 0.27621438394789205 -0.17732795659262363
Ni 5.237093254134328 8.702484329992451 10.776666369112158 -0.5261495224842809 0.9718150313798811 -0.06005222809689013
Ni 1.6813724744359613 1.0272397345303905 9.21191624269056 -1.3043908248366372 0.4642121615495361 0.18913291964735168
Ni 0.9406818773571214 6.023370371495321 5.3285776805659815 0.5386443125171819 -1.4524115478247117 0.9320336377168852
Ni 2.545570198125953 2.364818116080188 11.254872581172192 -1.0273801702396952 -2.521011386835826 -0.3877131007505322
Ni 2.681097189914164 7.591874736454489 12.970710652056482 -0.38903053401037513 -1.0517123192271565 0.13170218833370867
Ni 7.209898805072194 1.3855002958370544 2.1743908302989965 -0.9014421380832732 0.33637048461249813 -0.43343965625336967
Ni 1.0971532756990352 4.08452997543326 10.092031715361367 0.4981694923315872 -0.9616023525129375 1.2511304228506002
Ni 3.194096138931971 4.365759604317631 11.342644472530655 0.007378808962574388 3.720488090065876 0.30211542008437003
P 8.500315202130047 -0.10892203500309071 8.239782539244077 -0.5302118654791127 0.6537189195965386 0.4599191906011369
Ni 4.309895496925719 1.2779238926178562 9.119912839813328 -0.22780771050973025 -0.628274254271189 0.43327433432009893
P 9.095757266502607 9.143289948455681 4.931672835680429 -0.5185948500654746 -0.8841882360988321 -2.021586681940899
Ni 6.166441056617476 6.933979417318475 6.927658098862598 0.5574509037007237 0.436857423685667 -1.3687123697328427
P 8.00853868276179 1.152655953066349 12.37618143018195 -1.188043007471812 -0.6206650744653633 -0.4282123464161593
P 7.042528901373132 3.9211358020047906 2.241775288039099 -0.0022533148105509577 -0.4237442833424767 0.8010703844317301
P 4.116298747851887 6.642249782847667 11.192628770474276 -1.6370686910888965 0.5636883999700034 0.5600893697648354
Ni 7.855848398523375 5.994835934425032 5.006450854282719 -0.5028257601566759 0.10241475222350105 -0.1283371285162177
