# total energy = -340859.09615897824 ev
CRYSTAL
PRIMVEC
9.33432640597592 0.00000000000000 0.00000000000000

0.00000000000000 9.33432640597592 0.00000000000000

0.00000000000000 0.00000000000000 13.66173022331990

PRIMCOORD
 96 1
Ni 5.820941771180136 8.808924900827959 5.875800539189749 1.9546022455005496 0.08261880054349642 -0.2756968208815252
Ni 3.436292144292068 5.72487288680605 7.023085362264386 -1.9465269246915828 0.4430316708171789 -1.623505350582165
Ni 4.929000239275187 4.690050825061019 11.087367631748597 0.3941755685464244 -1.1192855382914402 -0.9411697956901984
Ni 6.38287753762051 4.74204302152076 5.146838208115388 -0.6469628318196277 0.9689163696758474 -1.49840035585
Ni 7.418511685737533 1.3550734564195845 9.357342696188798 0.9302829735743656 0.7698685049076289 1.1362756450915334
Ni 1.3982913863313622 1.9387021967508804 12.937357326536508 1.3002858015293282 0.053980053760881226 -0.631869427821615
Ni 6.3929679441506675 4.645078041839649 12.987632940423728 0.665130760977906 -0.8065818011682625 0.9596804528998762
Ni 8.715544302374951 5.2023279765703645 11.097778205664495 0.5937201704454034 -0.6166487542171186 1.4198958345851935
Ni 4.967504334498963 2.98907524580326 3.6186503395697054 -1.1319376798378118 0.8747075503019065 -0.4672931144677049
Ni 2.41086041461858 3.508866529835064 7.686758749328396 -0.1698445037313849 0.6604490392315205 0.8133222052158896
Ni 7.512032299082263 9.58112569733155 12.541891798893678 -1.2616328650438209 -0.1778303501503389 1.4706383552453834
Ni 4.4778255865136805 5.5937629421968005 9.018668142061356 -1.0772449162806221 0.8647486393169816 1.0321804198418159
Ni 2.254846487934897 1.6772290536215682 10.825459509022332 0.1196928225776584 0.44746476688786807 -0.2271055422363831
Ni 0.25688625527647274 9.26066894748247 0.08537454694429636 0.8040783180201185 0.01666769046366807 0.07459490179775541
Ni 1.7067908644273133 9.272420864061074 5.534599182983016 -0.6803303515364799 -0.18563776200989965 -0.21177096876184176
Ni 3.476784450978308 9.014662782725473 2.8478151549767166 0.4852247592454611 0.10218412426993369 0.6491156164965725
Ni 7.801405742968877 0.6342954624827275 1.5045804243686023 -1.782874408703523 -0.9491682405146429 -0.9986550343908607
Ni 5.167296250661314 0.8669815438738278 1.6653651251295876 0.010165627679092171 0.25180073099021794 -0.8188228233191447
Ni 0.6425358055769214 7.329723575733035 10.6620378611339 -0.01633601815586219 0.8461436226212847 -1.2251062308726965
Ni 2.54746827730948 3.9014402832475117 5.320382932675379 -3.22164779691951 -0.9761308851464156 0.7423849547753796
Ni 6.1299172999079445 6.804191681140595 12.203736233298223 -0.6097623115099305 -0.15684063527254924 0.3703589257428008
Ni 3.820306320657194 7.958455779851309 4.870392805897848 -0.5846817143922188 -1.7500344793553666 0.5336175487265519
Ni 4.641213630828099 7.775213623890594 1.000129171873951 -0.19830121641018109 0.6116124773447918 -1.0344368199761604
Ni 0.7846070493428456 2.4741004740467214 6.384563316916852 2.2980892865531715 0.3534490373613397 -1.1010769857032134
P 1.7586803832997908 6.981851910084626 5.707651988556755 0.7058002136728103 -0.6183834775200382 -1.1514322982273137
P 2.7159715323348386 3.845649016059025 12.469771061599864 0.6646666768572941 -0.49124191197381856 -3.4361796162559406
P 6.722002939699298 8.255296684629807 0.6760955082576587 0.6411958474288635 0.2429728482859428 -1.7649180813354184
P 4.395086119831607 3.429030038574711 5.840061271361193 2.963943041740031 -0.14594198608217446 1.3077178323273413
P 6.079325252365431 0.6663859422329867 10.996612779231699 -0.7954365831847204 3.191790604348761 -0.34844592771979344
P 5.6324910612473325 3.7029551727412393 9.336589688937641 -1.742375163037896 -0.7418187978592644 0.16129481438916093
P 6.710167014185663 0.3752977826390746 7.709163932301882 -0.934144770522617 -1.5500815862743758 -0.8979912034201954
P 5.231152375613036 6.70039397474341 6.332757806979408 -0.12097168929008198 -0.722315180608698 -1.2706674644422633
Ni 0.4509207590911822 0.2689004664189023 2.4106531925788306 1.4628497124389 -0.14771064794682304 1.274989745966701
Ni 1.259723315156343 7.851045689247674 7.6035591003688605 0.8014961591152391 -1.0648313731076176 -0.08543955782174319
Ni 5.910448624295478 4.877988147057505 7.475739505715096 0.9265713290507334 0.0309599387166241 -0.9768430807220919
Ni 8.618943361412319 8.132961006568518 8.788618074365091 -0.622619884198889 1.2363254966272836 0.07088582837728437
Ni 8.156903553053121 8.561817285589408 4.007613575640928 0.6769925454124985 -0.3390290052812677 -0.5523372366232424
Ni 3.870254299697782 5.19068807190514 4.203017425096686 2.1371508270621646 1.249936402542499 0.4278130540952116
Ni 6.230130625077026 1.9895182681201498 5.498094500413042 0.08592343943669718 -0.028859604544169654 -0.34903059657866986
Ni 0.16558814497968952 5.558619204374372 8.771882561073769 1.4816917848460676 -1.1006190722301885 -0.009218690384790576
Ni 1.3204991124901626 5.507345751025475 4.060635348271138 -0.6005814163416108 1.041216047681523 -0.4845364749291849
Ni 1.5756902541441777 5.915377148484122 12.198886117448945 -0.1896535680375121 -1.1834718431613616 2.1885592634411273
Ni 4.623254387383118 2.7227109157897638 0.2415424900088744 -0.5218809770159141 1.2460699776085573 0.6379434019298368
Ni 4.048847961253299 8.441889863665752 7.250799048134103 -0.6654382649159959 -0.6338319508646245 1.3207263287718676
Ni 0.5206323068147523 4.817940427160644 1.4100545041013024 -0.8932143508568423 -0.4621712198601073 -0.4356983703805593
Ni 5.42027515702611 5.980325389591281 2.086282559789792 0.4353124477960503 -1.707094485458731 1.1186039388433833
Ni 6.103062443675507 8.242508657852454 2.732168455009335 -1.0453907478845028 2.611889599174637 0.05916108374118844
Ni 6.673903157229452 3.096681357255306 11.239068166334604 -0.5641182884185704 -0.8468236794074447 -0.2851947330696314
Ni 7.680796915238838 4.001429584589836 9.248799418394821 0.5384666492887372 -1.0628901902208467 -0.4102722169979709
Ni 4.63469827119993 8.819743384795075 12.115235620538062 0.020077230365849293 -0.9422951675438933 0.8257635163030359
Ni 3.1704225335626592 6.785700381107067 2.7784816474607985 -1.044733573916478 -0.5185449706641457 -1.1821297273111708
Ni 1.3602446730872142 0.15880489019202454 9.260535466619029 -0.32149716704509146 0.5878824807177038 1.131278191876942
Ni 6.107869621624657 7.4185583573681075 8.18071168524167 -0.2823783466667588 1.8912736606452332 -0.7544825093698619
Ni 8.92421316267253 2.62170417290092 11.199667042371193 1.3257044987127493 -0.8236906929344071 -0.4905986219628648
Ni 6.84850172720781 2.217509183475478 13.416801919369464 0.11688877746995999 0.4668380292081573 -0.5383712613614535
Ni 2.0654530110644935 4.0208076456042745 10.356889406113181 -0.29634072238412196 0.8432573022124251 -0.46576382230737207
P 4.996291396237174 7.50550760512798 10.145310102932992 1.219828270303209 -1.8114769029315643 0.3116740103070825
P 0.04586234450011604 2.9404340724187517 8.698108714625013 1.7843052276127787 -0.42278834718711056 -0.37095362190400627
P 2.122177710864466 6.258226946682738 9.047344125318801 1.0413690283196195 -0.29834489729834424 -0.46095174563070934
P 2.4957561106331845 0.4504447084593246 7.467269538198477 -0.7179317068290216 1.5161265694851698 0.752637228631007
P 0.9574591669051151 7.359257383560435 2.67556790174669 -0.22015173662636925 0.07100615600523255 0.895009237973736
P 6.790292869555577 6.822682981174123 3.8757232813684754 -0.09302174104437527 -2.661378192823068 2.433913210364737
P 8.214701700356303 6.474531285742268 7.209335971531918 0.018853899481709464 -0.2846627718255614 0.36721292391465143
P 8.93542368833647 3.680310097586602 4.856389449860343 2.5925829284262254 1.2114104785531588 -2.0393105815832233
Ni 7.980251431329495 3.7550687154404736 6.561865107738073 -1.2968094129449537 0.7370388599721178 3.19269126178616
Ni 0.5746276496587412 6.954661018112055 0.6473541847174094 1.0750962453687354 0.6368905351852903 -0.7131965061368813
Ni 6.736760509286884 1.6416372681456266 3.2276382189162733 1.1846054425451729 -2.7350032745083865 3.0078860229798843
Ni 5.844305589445618 2.439208763029394 7.64223494719315 -0.3266121196741536 -0.20654880113095395 0.5187097783767841
Ni 3.246908001747779 6.585824456009682 10.808094862150869 -0.31631022352751326 0.39844617089732026 0.4802836131901018
Ni 8.338194834855832 1.449928878398739 6.812080120140259 -1.743424687348333 -0.6120739903622426 2.1317929051843607
Ni 0.6210295182082959 5.110618222491916 6.443527321551778 0.36705994327655495 0.4217701903352413 -0.5933800134971653
Ni 8.274161357707927 8.556543391334515 6.424742923678244 0.10056227239579454 -0.9907830878419518 -0.357670531641855
Ni 8.21356291257029 5.675130262939989 2.9604011294110375 1.655940331182419 0.28786379526136235 1.6019960157554798
Ni 2.185623125467134 8.913730714445547 11.9673341566808 -0.665688176143273 -0.7788876776871038 -0.004765539709443406
Ni 2.78307600277453 1.7661105068872154 4.3553461598302246 0.4035919767643178 -0.4883512206895848 -0.09452506506277915
Ni 4.158012905166526 5.520395138934042 12.820891072736243 -2.1917962823211865 1.486093256347873 3.637005398860188
Ni 2.4598749610476824 3.704663354420258 0.7450929800334424 -1.3876647424656294 -1.1862730600555829 1.2038804887247008
Ni 7.497526756299779 6.206197412918538 9.418341583916764 -1.802509152215315 0.08301809286444413 0.9556391929509671
Ni 3.1359508672205005 0.350979996244655 0.3777471098116125 -0.5167408275758714 0.5580088330867229 0.32883920923245946
Ni 1.2757223501172041 3.2842919778377726 3.041224258941731 1.0821112432339879 -1.0916461793076166 0.228828952685393
Ni 3.825365525411445 2.306670666524571 9.10554271521231 0.20639607760317358 0.18696779367523284 0.4558707315633762
Ni 8.277969762762789 3.4169980922126633 2.889004735823736 -0.9949354194474286 -0.8838017992936908 -0.8945880912759174
Ni 7.539465883533822 6.253746470147608 0.9452480014816622 -0.4654935993651209 0.5782089621836816 -1.0311982584342048
Ni 4.233956982436984 0.02217182482061458 9.748682451688863 -1.2007805096431383 1.4437420450751717 -0.40362257289193715
Ni 9.072554273289802 2.3028622614697105 0.6240230365933298 0.03377863911234183 1.5621266903643678 0.8741879303530107
Ni 8.420066209209223 7.34417311255883 12.488050472430585 0.3156322236238822 -0.6115816241068565 0.14163050319101417
Ni 6.97584060406666 8.22383067129663 10.633839795373536 1.6717284472546112 -0.7241175239247594 -1.461604270067573
Ni 4.529864454603995 1.8703749295901433 11.810019024936706 -0.9397204648381816 0.5833851070679824 -0.8311805735535491
P 8.445688934394498 1.2245982459861444 4.740155620780337 0.2268664296423835 -0.39678035315912313 -0.9036154915855082
P 6.410983193552338 2.864107287777584 1.6827428400576128 -0.6319272776427439 1.5792749200088803 -0.99620245908531
P 2.396224191270488 1.292374787906105 2.275538822066307 -1.608325043297301 1.6187269553569152 -1.3077512566684382
P 8.599611972028454 4.869456572988528 13.272917016039424 0.36634363393582076 -0.025822103269426498 -0.48929790087357034
P 4.699385151175874 0.6602476893798582 4.502345927784792 -0.07652040095524242 0.5052227996339428 -1.0764884977305718
P -0.029442331431474976 0.02338995437860313 11.592784053563525 2.3895151438653364 -0.10881011422688358 -1.8378751904194348
P 2.8645179981266375 7.369459802003972 13.740968130416586 -1.9666740890634196 -0.20835834353586696 -1.5112977806379584
P 3.3194637186385454 4.086932011801906 2.531955560739203 0.8555494893162169 0.9439121343220261 1.0774467478787833
