# total energy = -340892.1815094461 ev
CRYSTAL
PRIMVEC
9.05162479536208 0.00000000000000 0.00000000000000

0.00000000000000 9.05162479536208 0.00000000000000

0.00000000000000 0.00000000000000 13.24796784027034

PRIMCOORD
 96 1
Ni 6.36582671268621 2.1181345207155746 11.26116990277149 -0.10519822850590915 -0.7009279731821735 0.6430938357825248
Ni 4.705215620789081 0.18810724663343156 5.935513373278818 -0.22357104672056335 -0.04287931586202938 -0.1379728518337688
Ni 2.786904769891021 1.5392650093833762 4.717005362134313 -0.06800670705727643 1.384342620070932 0.7165080870086177
Ni 3.5751112087404158 4.579913978223226 4.942114745923344 0.2063657385858704 -1.3237383761253136 0.4137128672484036
Ni 5.224407769596056 4.504504891737916 2.8325349158376176 0.021790356402214085 -0.10043525989962702 -0.9035980080840116
Ni 7.27794084387715 6.2392759458933735 2.8464056257319985 0.1228586219001497 -0.4545468705456301 -1.2040003021320167
Ni 5.042108045455598 4.662971687692582 11.575027752562507 -0.1451508576394468 0.0546588249954607 -0.3977604576842053
Ni 5.791464910520941 8.022690431902396 12.433005925951099 -1.9010119709789197 -0.5946380542739824 -0.17075775957427367
Ni 1.7782912663534374 6.262846376959002 0.5350605523020397 0.208198420919235 0.7233760177730445 -0.30769985615068296
Ni 2.7883168233649984 1.6633989923457504 0.37618824355484687 0.9294332239795606 -0.2277704295138916 0.2332131977960177
Ni 0.6323818121835373 0.15037554851627696 4.546808565558315 0.04740831408063448 -0.018137847251291344 0.48494373766993254
Ni 8.44692198458437 2.325045612777476 1.1555358571799983 0.48128737186426784 -0.6666667380064583 0.8172441659781151
Ni 6.7336123329084066 0.7866558955154694 4.662622294974021 0.9523489522354697 -0.09357555666531625 0.30194315617256384
Ni 0.9908270607403642 7.333019980987114 2.6784744508517484 -0.40045780201071035 0.14322998646765012 -0.2189417754786681
Ni 7.499180658049991 4.007978011513251 3.8427451259957754 0.7201042890003082 -1.4421006528170066 -0.06375795908325148
Ni 7.632646866215385 3.760859601942318 12.526682096512271 0.4948357999726639 1.075381380709322 -0.4466224734922308
Ni 7.873094228284257 8.927807657097281 6.791928331058719 0.07989111719968822 -0.2913844068201111 -0.028002655860513065
Ni 6.892160593486571 0.5280220088317508 0.4516127178023733 0.29365083425678457 0.9615619861933051 0.05673781901167648
Ni 1.941356287723364 6.45664166463761 9.386503271331627 -0.2554763800695922 0.975196032036972 -1.2057265407945041
Ni 0.11953123173469705 4.590205675658563 1.6472653762430718 0.20877614779957593 1.2419112182451773 0.16493472513459337
Ni 6.517649616013315 1.9392291558875643 6.989601334815866 -0.8077621946296087 0.10808686290761385 0.45220305290380186
Ni 3.499240489388613 4.378252828564575 0.5228643930017989 -0.5389001372817299 0.8237092048771685 -0.4190332510200525
Ni 5.958965228059131 5.591396846832931 4.85421441716823 -0.6478164380691747 0.7193630399589095 0.14975056119498725
Ni 5.096942788695067 2.668500465448056 9.33186856900097 0.14906227687871101 0.49213228499857176 -0.5888294180120053
P 0.08781252799423092 5.839836793629511 12.462654523092214 -0.5169603997858451 -1.2853896011437864 -0.4830254376012971
P 3.7448744324869034 6.375122731389896 12.692083342251644 0.3443910409241295 -0.9079210609393976 -0.25806085296731684
P 2.3685024636016236 8.577328743556144 1.4251104427995942 0.12058705225715362 -0.2029914227969988 -0.2032742441447402
P 6.38713423754354 7.7359530604365885 5.569643982033807 0.029549174412026525 -0.12971318292813788 1.824815529021999
P 4.8848722704782475 1.1438809850447822 12.634282381554339 -0.5376706357500031 -0.0039314738439222615 0.12745909678663855
P 3.9374024926888653 6.1179841731286215 8.249443590761135 0.8232839444142918 0.4588007607259776 -0.28489622799260617
P 4.683718011810255 0.8869940619538694 3.7012302130287087 0.3095466795514346 1.6775836204838077 0.2666174842880763
P 0.10213672429275489 5.544889598439998 3.836730321294121 1.0674181599981873 0.3517353971043426 -1.7531444857392582
Ni 1.5049231447662512 1.2686123752461471 2.5530026377390285 -0.023450260603140257 0.34638390298444216 -0.1607847075219618
Ni 1.8903865882876685 6.599974143871182 4.858374543941565 -1.042097936065844 -0.9735590106541814 -0.0648704754211399
Ni 6.345976499427024 5.531411729063377 8.81950315564319 -1.029063728589705 0.05593846303883269 1.0874344552191142
Ni 8.544073073919002 2.1066842153015886 10.052757168803444 0.38902822001753 1.3356965769284546 0.3077654192812958
Ni 2.1708240288695766 5.482243302969486 7.14315852946101 0.5916116087428327 0.27076133125312085 -1.4595880109684927
Ni 0.4360520695516355 -0.10549578226835186 9.356019209218406 0.9542803649302274 0.8311497203156137 -0.3653781846987578
Ni 1.3642789981081374 0.9603230850525121 11.453133141583862 0.1943586868226653 1.4123625023226256 -1.0855328673210274
Ni 4.220437749597899 6.7778385718433745 1.5902591482061215 -0.4277606035907214 0.06295577489693029 -0.0910946992249915
Ni 5.803277280928254 7.551743443456329 7.846228100616864 -1.8484619647963456 1.3266388376015603 -0.8778144713620043
Ni 5.232581386820426 2.7336269061228617 4.973751079877828 -0.3661474587646146 0.50834437598206 -0.375783696302798
Ni 0.7779319395012404 7.674601147317223 7.33025923541299 0.27592899149698935 -0.2514898846180185 -0.8058104702198767
Ni 4.946405216094276 4.424452321713179 7.203237784128828 -0.059453675280942773 -0.4344945798804453 -0.8146512084399583
Ni 7.9336495984183015 7.30730431483602 8.949426557848872 0.4245379828883656 -0.36092040603772035 0.2276848117786208
Ni 4.488094295915342 0.33805646362006525 10.505810905279262 0.27046488305862454 -0.10255487734579113 -0.5770013150288257
Ni 8.374065456302018 7.305774590239211 4.8341170945510985 0.18703541368837465 -0.1847792706643463 0.12721509909663253
Ni 7.429211598089429 6.077767803994756 6.69319139705331 -0.06357489653816793 -0.2229598954991257 0.6916177515248412
Ni 2.462648413491638 5.179366884426099 2.729015103270351 -0.6153812003586048 -0.20297599617803108 -0.5145821293616557
Ni 2.257475233397709 5.177755695205792 11.3176466107557 -0.04976678701048204 -0.28341552968202155 1.5138154048534898
Ni 1.201748022603369 3.449637585302729 3.94536430189214 -0.2085267507929312 -0.6584816310925046 -0.8306118455342728
Ni 3.7876524114485615 2.5760924275260146 2.620116815227203 -0.08985388483935493 0.379104790256231 -0.04565096506989557
Ni 1.2298623693352586 3.5961562364775834 8.129787446603741 -1.2147372289335467 -1.639582715760002 -0.03227248688046054
Ni 3.5413033899884496 2.151272519229885 7.023940483945541 0.9440329761706064 2.5499841199190922 -1.6701047956082593
Ni 3.9696443803446897 6.893654111584047 5.947304019786531 0.8472155155292248 0.0826751077027286 0.7576310823011726
Ni 1.0079346316750941 7.64812514468014 11.608041743816601 -0.5203208316176459 -1.0896900840225103 0.20623846897938675
P 0.10268887340757951 5.691353939865854 7.945309901528418 0.7820557910024403 -0.38027104265019024 0.43628895277670665
P 8.602021576101087 1.56838408647175 7.956451546535591 0.013926894493737303 0.0014562728305523307 -0.12765321507531563
P 1.744999390216963 3.228117170760058 10.506420079630535 -0.4372256056583631 -0.6598959949415281 -0.7431526861793395
P 4.016242144985954 6.231627322909327 3.7464593719951953 0.19515392903045098 0.8085137280836526 0.1142495400749
P 6.74224758299927 4.0626950836298885 10.219548744117196 0.7397135785908034 -1.0531634498513862 1.1193973812789562
P 6.097618017253943 7.534273807528271 10.184706324646795 0.4027046890633581 1.1697385527356694 -0.27367027736979965
P 2.2499985912854936 8.493447336226968 5.862861411717697 0.7293744014483245 -0.26271095014481854 0.5799909937847688
P 7.077212011576317 3.9302155025713117 1.5284845242070464 -1.2646428555147382 0.7992495291729074 0.44651243027692783
Ni 5.331225994252536 3.0957462091994805 0.5113507262139806 0.5152251622622933 -1.4193199074770653 -0.6435093260533885
Ni 1.5386947570188851 1.1435732298004537 6.882160358370862 -2.076439882335353 0.22721507123105383 0.7314166286893339
Ni 6.644363312053148 0.4973677761716679 9.182060557361734 0.24787311380103763 0.3218779474232779 -0.3241765136494675
Ni 2.751331884296582 1.6860190028038935 9.074950870385626 -0.9469198108000982 -0.5261708626405196 2.111553181098718
Ni 6.347053642782173 1.9315895845283517 2.5176433704906533 0.46407306486851047 0.23515875155816274 0.1674847452499567
Ni 4.045306912325329 6.7469091697883625 10.507983295239228 0.8871097806210012 0.608197795236288 -0.03479859573642394
Ni 8.281150527389318 7.3087706780589965 0.6244254339551628 0.03304921714548502 -0.4669092487657249 -0.36734893527188345
Ni 7.886200981042717 3.7577911011238663 8.050485256277675 -0.44712846659437194 0.09372776597246438 0.25328528595554445
Ni 3.093818213110011 8.672877695295304 12.39258680042097 0.8680090552358084 -1.1720697719720072 0.9405900119273284
Ni 0.04825421198573852 5.2353149775200505 10.108994008729573 -1.0448562155372714 -1.1661721755406498 0.848061665579604
Ni 8.575237818219678 2.2722474851254755 5.699924923420402 0.12447096069259207 0.2029528562495795 -0.30534266877241606
Ni 3.663165415117693 2.850582950592516 11.522989961396494 -0.3656247534919252 -1.1028991265136168 -0.0301109604527675
Ni 1.0459333527248278 3.0734611088601658 12.719943338325722 0.09609806597685384 0.8413438872397963 -0.4578566516451534
Ni 3.2319007499403316 8.525435778387463 7.9755550007460405 -0.4227973460481751 -1.2564996575823135 0.17651368822144436
Ni 5.546871904278467 7.930372910228687 3.6454966434433054 -0.708462848106638 -0.6008205289356103 -1.1006884920155433
Ni 3.032384835367147 8.472139811369638 3.8399364068100366 0.5945856037694921 -1.3030209410723044 -1.7617463684756562
Ni 3.214938005002933 4.1802123288392 9.055304318685184 1.2536891847167118 0.4561157576946467 1.0384246009793148
Ni 6.94986470179816 6.127560792202137 11.559964943677592 2.211997696969726 -0.7779528245776602 -1.3543301328692419
Ni 0.5646276848196565 0.31110796616669056 0.3883273776186386 -0.01782108734182092 -0.6791016213357014 0.29351019491386227
Ni 4.581371289821369 0.18767005315398844 1.5697653644212948 -0.39393722728337316 0.33454654402988193 -0.4683776057811353
Ni 6.06799204917491 5.546274497039477 0.3130241951438769 -0.4056069503118176 0.6284539743821629 2.0508260384219907
Ni 7.89747025396004 8.62565536854055 11.161572159244447 -0.27786066130206344 0.3143497573670328 0.5882524624626128
Ni 0.21030545137434792 4.689556309827663 5.735456171540608 -0.37692398055482823 -0.10081604027781348 1.9117566110899333
Ni 8.001183771298736 8.717167295604105 2.7782179255386077 -0.38284883067969544 0.2821891134740882 -0.9577102165473829
P 8.560103501498583 1.6881823411390262 3.46373458581794 -0.7431876531823329 0.622817859142308 0.2826992203412873
P 1.936839526931602 3.279050663696421 1.5811713168735981 -0.6936864611284118 0.04566587746823103 0.3734172529531504
P 4.795976262991482 0.9252299355742326 8.036416315799448 2.1296110670416937 -0.8792468329331568 1.7780615606959123
P 8.363067732129693 1.5378982140335644 12.224310758634575 -0.2097210282113485 -0.06438633669586975 0.43487973113400585
P 6.261244239363527 7.686151020604374 1.4698490037001215 0.8701176169383789 -0.1593978544767642 -0.3397224318038665
P 2.115636272261614 3.4439350616578195 6.002084453277 -1.1143683034954805 -0.32550217443942653 0.0029323431554465628
P 6.8717129729883935 3.9554966907304134 6.046279916687536 -0.1268029512598784 -0.2993990495944715 -0.24759749154214777
P 2.4406348618973186 8.425143775235712 10.159655047758458 0.31532266280326343 1.2007429715369837 0.13174435442555377
