# total energy = -340889.432835316 ev
CRYSTAL
PRIMVEC
9.07522054284767 0.00000000000000 0.00000000000000

0.00000000000000 9.07522054284767 0.00000000000000

0.00000000000000 0.00000000000000 13.28250260180564

PRIMCOORD
 96 1
Ni 6.539050171078495 2.0688325992762486 11.47670602320527 -0.8829970440042082 0.6738596562104718 0.027346510333752905
Ni 4.821546575885247 0.3125696456365341 6.282663399372605 -1.0146838057189493 1.1023648512767015 -1.2205556353875366
Ni 2.8727428405048934 1.9481140186363581 4.645023558001879 -0.21955369803105412 -1.1940858712317821 1.0722770307523857
Ni 3.662804295531728 4.253092925748315 5.134112591433655 0.4518189300915057 0.9594678226684379 -1.2579749565762595
Ni 5.047328982120388 4.320766843642742 2.715434786596027 0.5146001270837848 0.9416012268006623 -0.11624163080426432
Ni 7.155965497701445 6.083728217397501 2.811321749408007 0.09351050775533573 -1.1842619431628247 -2.7478073682515904
Ni 5.009376410759989 4.296517854959101 11.59978234608319 0.41214963652634184 0.05988304950887751 -0.025391443489911108
Ni 5.756593750676244 7.984288081579413 12.61691579615203 -1.0879137088483781 -0.5233665604225051 0.0703194143508531
Ni 1.8089364398742651 6.507531930921951 0.3392426256665072 0.6541621777815444 0.08810964845473858 0.2865440480086742
Ni 2.775991916718856 1.4117684979764924 0.2440118012833549 0.0073736667562518165 0.48828385778675903 0.31090113669680003
Ni 0.06772020151803697 -0.29879164615318704 4.777981888281599 1.4044956979800391 0.41001844911595187 -0.07739406180944736
Ni 8.549265922335419 2.16383200554135 1.3040365576084167 0.13739949582880207 1.172253348737723 0.38122697880555634
Ni 6.915054699199976 0.5280380639828431 4.915800906562427 -0.5696371613542706 1.5747055554706428 -0.9554905831882448
Ni 0.9276871711149374 7.377791107878926 2.6631814830620955 0.052249958443651955 -0.31714043273829257 -0.4287085693262874
Ni 7.201613855889586 3.3660808920884966 3.9251126484936343 0.6711139751445344 1.5147348313439655 -0.7207786893595135
Ni 7.738131805735451 3.9045681647428756 12.800944928758543 -0.237180667084198 0.10485987132988393 -0.9495978718528937
Ni 7.805669595325141 8.845526489542548 7.288825815601755 0.7521464050375175 0.20495625983285345 -1.0289745113100084
Ni 6.846418807952081 0.7865230266257301 0.2107892347515167 0.11115958829566662 -0.3842642229699834 1.1950276663197612
Ni 1.9866837049782267 6.72661682456408 9.145440740448791 0.2749938812772296 -1.0027551726021635 -0.1818117033955901
Ni 0.13325508998404523 4.705538034589222 1.424216070161553 -1.6502913604267577 1.2649210488767892 0.480673906649985
Ni 6.536654312915141 1.8827179810411807 7.0863213494764725 0.7765909112331271 1.176477928342032 -0.11366358566444294
Ni 3.4583214313776147 3.999821677176817 0.4175989853945841 -1.023088999063509 0.49066315665221305 0.010828458074071675
Ni 5.846538259225482 5.441756207482809 4.744311005866163 0.45500067025359703 0.2431849642967489 1.03066861118298
Ni 5.132799407053968 2.955245668395229 9.538364201804894 1.5859459042711523 -0.06826613136625018 -0.2365795431650893
P 0.19780077943563854 5.670742166489403 12.474461155333925 0.010400112287401444 -0.8310507328439043 -1.1431620877987216
P 4.137919304721338 5.862211164710755 12.791408687250769 -1.4494362672464716 1.4943405839583297 -0.40862953918822525
P 2.4013305212041023 8.483951561723083 1.2481422756838125 -0.3340382369348957 0.10756081520081476 0.02758767981028152
P 6.51802288560694 7.817403855193384 5.8581409283991475 -0.7942389633321935 -1.3214243832801564 0.24926973703824812
P 4.727563594295509 0.975831214889905 12.591931714622817 0.6944912164178942 1.1845424505177211 1.2515621110713802
P 4.048782490780201 6.583927135539798 8.066184684752658 -0.9769865482784915 -1.6842296650454156 1.4295832370762864
P 4.74136700439574 1.0728362448447832 3.8189852070773798 0.4824826777239497 -1.4496879782459613 -0.020823621613570587
P 0.34772523409562356 5.420247935334519 3.525601484710339 -0.14601037742626466 0.07659984804292613 0.3052596221403065
Ni 1.4668187844117333 1.1616645012951856 2.284032391101212 -0.5790242589961253 -0.08731234936442382 1.48607551573606
Ni 1.8340748001488476 6.538523808300183 4.770198071816794 0.7558274534335306 0.5537672842015495 -0.11671831333036674
Ni 6.0028226282827335 5.761149511274743 9.374909501176182 0.2626667271704444 -0.2513757276376574 -1.1775647336483073
Ni 8.638239382310873 2.343793624402351 10.122939980832728 0.6074645166146893 0.9457193627340937 0.14198505831695546
Ni 2.431659907499285 5.479028137319528 6.840635170044865 -0.5036531411539777 0.15732477399781936 1.4772815715935137
Ni 0.46333446569775605 0.044935953393355765 8.937689889458982 0.7855920862904727 0.9045043219483649 0.519275421072267
Ni 1.2294382466130853 0.8424581470417553 11.28978189531804 1.0623001220453319 1.7728391359547082 -0.7093318809751525
Ni 3.881871038733226 6.870186809958988 1.641345253825641 1.0201898231388429 -0.29478931873660197 -0.04102657892400676
Ni 5.580407423466589 8.066246396250804 8.129396316817838 0.5972099287662166 -0.7349362118068182 0.912860407222544
Ni 5.324685865409843 2.592037200918932 5.195530052442415 -0.3246971620396279 0.31770376144093027 -0.4756414864324002
Ni 0.9965136419894624 7.789052866927032 6.882926604238215 -1.4098009122430364 -0.765270086903669 -0.35504492109354985
Ni 5.1457315960038885 4.818969213315579 7.160039364101178 0.06842862508604344 -0.19666728035118386 0.11477147401664105
Ni 8.075494045752537 7.279560923181423 9.145560533356958 -0.7414135920010457 0.44921748791291666 0.2957606815109358
Ni 4.600483284214289 0.3238211037839808 10.622415603915861 0.4154136519895943 -0.662137225567221 -1.675582530893379
Ni 8.047578668061341 6.639857718345666 4.727826775684664 0.6872242504428357 1.508999214411769 0.953403618752229
Ni 7.419065209874883 6.097531627497731 6.9780158551844425 -0.4874137964769799 0.06918915740115182 0.5384990451885693
Ni 2.370293267724293 5.034251589645415 2.569221189523146 0.4597209585474018 0.28377471279365324 0.6432766412172922
Ni 2.308663446560145 5.1649529126326135 11.49073268372527 0.07629080144293958 0.5144641157265527 -0.32878753005891764
Ni 1.0033019067856312 3.2332196666661543 3.8785567682739197 -0.5193540968290024 0.5790029188398866 -0.9132800112584659
Ni 3.762976577376797 2.449175082708651 2.504349699662218 -1.651223128212408 0.10166116188692814 -0.4586508654116746
Ni 0.9991999072029195 3.521884274469014 8.344678693147674 0.5645191234014149 0.7855460635438859 -1.2075471389430106
Ni 3.9345073165644813 2.730978823952816 7.209542875879442 -0.6067194109185486 -0.1153563999858336 -0.16029774058321425
Ni 4.371987387104744 7.117277833495472 6.022592088218527 -0.3078384386110763 -0.6858854770267543 -1.1462607813287033
Ni 0.7517876208672591 7.599852673784615 11.328978679383725 0.04597363851663695 -1.303364440454652 -0.1779131396721323
P 0.37668063203500374 5.937789599500186 7.859283274384402 -0.4346138790671289 -0.928968111417684 -0.1876473362407607
P 8.684287050192905 1.9213511939252594 7.784342827583167 -0.7029311196551313 -1.543755901166664 1.504382541575364
P 1.7330857484753623 3.3515786900239544 10.359966585039064 -0.5379238894113897 0.26752508370401024 0.06083101524444362
P 3.9496084831698623 6.186269131744976 3.931062362932629 -0.482821292010291 -0.06313703766980094 -0.9586049604475103
P 6.96760930004839 4.094203968460449 10.531284056549326 -0.10100013126416155 -0.34463812393792903 -0.0822624456453422
P 6.467301479262303 7.898554475256676 10.606237208659005 -2.034721933771276 0.5736663371183217 -3.2002587897207726
P 2.246253156448844 9.035779408241591 5.607938919338431 0.9145403660281282 -1.992874401607871 -2.2137540175392
P 6.955566482689411 3.936776121643415 1.5736976540701302 -0.29158186754289783 0.523322337448131 1.0270227869002764
Ni 5.323633139853218 2.742114119280221 0.7763451670416348 0.44122341396384657 -0.06531964714341654 -2.0916870383024104
Ni 1.6614187336420128 1.3431416819489135 6.93580428292987 -0.9955720245901627 2.8254407997653535 1.1416078559377243
Ni 6.847861767982283 0.9008798778242914 9.255220958042129 0.8709210866762807 -0.6978207950117595 1.1534886665357102
Ni 3.0628142547976216 1.8366793883794632 9.346617501841884 -1.4240016292234507 -1.6154099751685405 -1.5196944893420858
Ni 6.429303531800326 1.6508551771944984 2.483628249115303 0.7721287616967154 0.16652726643269386 1.330500891660128
Ni 4.173530469240277 6.647816686562564 10.417400024329217 -0.5650603406168656 1.1365376405036685 1.0628868477867373
Ni 8.392863575414063 6.9885912094183675 0.6285506665897524 -0.3118706996989209 0.7522453925092271 -0.09653618195553697
Ni 7.4791794692463025 3.9590648627388574 8.394475334542138 0.3034282253585226 -0.2529836955547256 -0.46024700625420095
Ni 3.2575957084342155 8.290967001709005 12.394195369251419 -0.5989068568526653 -0.8192372851487438 0.15121660421755248
Ni 0.1155711156768064 5.426673191318059 10.020930874395756 0.2516621485298246 -1.6028717334922138 0.6561766371084119
Ni 8.61093204438083 2.2997788058710418 5.596170173632987 0.4103298097087837 -0.210131890496522 0.8194910530307629
Ni 3.330052267435034 2.5196078675790607 11.463742070984246 0.8673467390614611 0.5815498536314565 1.589304279220424
Ni 1.1001254323341947 3.4561706041627858 12.798156113555518 0.04655985003741013 -0.5806782496597805 -1.4868188216599878
Ni 2.834744893042916 8.612946743290923 7.9051340099855825 2.2781755783483795 0.34063003121980046 0.5484319880315652
Ni 5.584091962914777 7.848722440502982 3.5982967220054607 -0.4674990598309239 0.18721770490250983 0.18896425527997132
Ni 2.992944133586787 8.568850247776773 3.367765252979097 0.6389211924620739 0.05583381914016836 1.6276887925358936
Ni 3.4809096547434764 4.473330372370542 9.174529544126813 -0.869016156344084 0.7642452451835805 0.0359897878310477
Ni 7.203474276054311 6.184118304530147 11.39299982110107 1.4281084523029728 -1.8122909141924275 1.828128909665948
Ni 0.5930039361350549 9.136296548458658 0.10352557575173298 -0.25493027775813515 -0.9967699015530059 1.1563505614645375
Ni 4.800528365634007 0.3152885816431279 1.6100384663024543 -0.9573554043111255 -1.4363547514721648 -0.8265032226825377
Ni 6.101207091725604 5.747745410868405 0.2889250666259213 0.4165894174652502 -0.5526761080198997 1.2379928570273777
Ni 7.915225654976679 9.108980135308299 11.42133175140476 1.2753394159966358 -1.035753224794739 -0.6111465934519668
Ni 0.014389669332627465 4.779328650976454 5.726166352001652 0.7666147738570217 -0.49446736088965165 0.4554310729227962
Ni 8.170511602458271 8.793461950591183 2.492833245081551 -0.7342705531983612 -0.3473758345840663 -0.6771478400434402
P 8.423383541335877 1.5537866206974102 3.495184068778094 1.0048735044967467 -0.07175126170137319 0.7850632103701963
P 1.573189441732449 3.23446297184941 1.5819461218151005 2.5846654733513614 -2.0308393108874183 0.38404156543621604
P 4.962230641219752 1.0585518480678182 8.356247784006172 -1.796255200885803 0.7443328225303697 -0.07582620310169522
P 8.56640901351184 1.7271687048295037 12.463344010447152 0.21413021302263768 1.4325608316473715 -0.36376430324441866
P 6.504464506455234 7.771964227072506 1.4287328073126935 -0.7315711519893272 -0.06406546302134128 0.47914255760712327
P 1.919282043693272 3.5159127795012615 6.0351975692370825 -0.7384725070948507 -1.4110065025153635 0.33082461509360445
P 6.918430681157429 3.9282363393263093 6.093732740273564 0.14269905366484456 0.5219398552783074 0.14515702828703386
P 2.4962028743847835 8.497727746162367 10.180985089972163 -0.03159422986651333 0.8781268603961006 0.5167516262091487
