# total energy = -340862.8168851017 ev
CRYSTAL
PRIMVEC
9.26727825901854 0.00000000000000 0.00000000000000

0.00000000000000 9.26727825901854 0.00000000000000

0.00000000000000 0.00000000000000 13.56359848291812

PRIMCOORD
 96 1
Ni 6.838482204401812 6.036566078182606 13.294714200406712 0.6552325280275876 -0.371013014387032 0.43155478052583096
Ni 8.442295922283614 8.581064147610734 1.3952869818476323 -0.25509174303666393 0.512719365121304 0.37886104967654105
Ni 0.02268166364953434 2.5127761757928457 8.377068183939489 1.6596902851431545 -1.751876674770428 1.034618082749031
Ni 7.789156681960067 3.9040819348809923 8.077543262052867 -2.299137782422344 3.088314243629965 -0.8232921719444081
Ni 2.1650308247059704 3.4825319793794534 5.289884784112105 -1.244157591077193 0.3176510538261239 1.0970465243875815
Ni 7.869161095560243 8.731657420054017 5.67556573893723 1.891265433115117 -1.224735734907155 0.46119240088660574
Ni 3.8218441072095044 2.514546225948948 7.166543856370562 1.136210853291869 0.2316070296511624 -0.9983704132709063
Ni 2.6924594348330175 2.025113456869129 0.6110537493606746 0.33550890794315125 0.34295893646329323 0.32907575072329776
Ni 1.6615488617169811 5.609872783222235 10.545995899172377 -3.0462584521104956 1.3967003703053367 -0.17067111339773833
Ni 4.214934251038839 1.5280444504666475 2.734828504511998 0.9123585278854609 -0.23065032216484796 -0.2861146737807395
Ni 7.7492425143038695 0.9345308787523359 12.981109502592517 1.4041046331892078 1.12392843638009 -0.9266276362099655
Ni 2.284263627367833 4.08748137252115 12.797743427154254 -0.678382998002122 -0.7874124273286632 -0.4110155229218986
Ni 4.311156401671369 3.203271814960631 4.73101044524324 0.7347189535896895 -0.5002472007962223 0.2842755636894717
Ni 4.055286847692352 6.662162967386064 10.469701177077372 2.587248660697506 3.564071429704623 -2.0161845370887215
Ni 5.203762113375495 5.067514587747118 6.49939156452323 -0.9114853812518883 -2.3561877333578 -0.28658878520368064
Ni 9.015931182035413 5.3499348940676725 12.747327579723734 2.091908153174281 -0.31118935736118025 -1.749051289506491
Ni 6.484750191530422 6.075785199965988 8.463359519141235 -1.2309200093409962 -0.09529999555559071 0.4102105105221
Ni 6.812848912612389 0.4595318956313114 3.062891083208579 0.4338991123882915 -1.7351598762363794 -0.14540231152862054
Ni 1.842038373969619 1.2943051570780653 6.76552277576849 1.2791305076079518 0.793366588029569 1.464033448334356
Ni 0.129773405005062 8.269340707292292 12.824856703288859 -0.29432034951998337 0.9805326137585372 -1.469124232593702
Ni 3.553333985623556 4.814527157320708 10.989146026945349 2.0230041311137157 -5.736483393961927 2.132177285106973
Ni 5.764506589006149 0.40575665981551856 0.5197451096850333 -1.223935350493047 -1.910508340505129 1.9252842132627228
Ni 2.5438030235553137 0.9947125840598235 4.629907219127888 -1.2395285769456135 1.3382144582543019 -0.46025677644621377
Ni 1.6484912665863607 1.1650914956825769 12.236590264550387 -1.1344164803956076 0.43076468052436784 -0.8675588550722673
P 8.19476691877838 4.969874543534046 1.0412324676912568 0.31456752980479374 -0.9619126846645046 2.0513109484782093
P 5.324236731330121 3.9221809294090995 8.664033163540424 0.6215711312194004 0.4200712053662636 -0.2984040326710538
P 2.6484213283314495 7.078504712480642 11.92366485823589 -1.6698793098610143 -0.9253816796180064 2.068355562665322
P 8.645360524485287 5.73689936693793 10.430488542388803 -0.2878699659089494 0.4457596112713033 -0.8233363949187821
P 4.264708802810708 0.7769843673974111 5.649049275525418 1.4099024708179073 -0.10258187392898462 1.1654486671110638
P 7.426324201793951 5.365948750977334 6.215952784317043 -0.2229267282683451 0.007575498354412759 1.3214251546111049
P 1.6010984053386716 0.3146120509658617 10.118172922986723 2.354206184151397 0.8329024413406624 0.08281703259723157
P 7.588807392301525 0.9718038720918363 7.7095359336816855 0.42339229931969663 1.2962581684271741 -1.8200384193483299
Ni 4.084877267317669 6.520864775081898 7.962497415728843 -0.19432783358472983 1.5792553796248543 -0.22699318502823487
Ni 5.063733538199003 6.2478136871268894 3.881223266215848 0.05591249489690371 -0.641918584527501 0.3036683663937867
Ni 5.332243659784951 3.176211362312361 11.38699399145606 -3.0351623421973337 -2.3002315297071547 -1.4501620896689025
Ni 5.016544557074006 7.298324553856314 13.083651010300683 -1.826692434329738 0.4842014601872693 -0.47743303111518415
Ni 3.3855035755344582 8.8593141786944 11.120333618619632 0.7176740822922608 2.0530132758812965 -0.8736163741202567
Ni 6.12935933584258 7.1975429022981166 1.8646959426955623 -0.02986979097623888 0.7324221871357127 0.10636833755461035
Ni 1.9307910982889611 0.6583038945224787 2.478720781480564 -0.12861557898858494 -0.5736159434963605 0.20886433663800805
Ni 7.21034101363622 1.9167233698231827 1.4828405203544108 0.448076432329938 1.9244501473972018 0.25580470994328847
Ni 5.624709695787262 1.7128247125741305 8.800835799139223 1.0178161807003439 1.2030021998848055 1.060103628614645
Ni 9.121096256231496 1.6783597045608034 6.0264425033630955 -2.2714230901158943 -0.7790370587807744 -1.2250725494212837
Ni 2.6855182433831706 8.381317231041965 6.843500435603537 2.545006978419475 -0.5740766851828629 -0.6782135623037931
Ni 8.555727408727046 6.81492478295253 7.917451956075609 1.1204402207211737 0.10211367604331445 -0.6804568498120153
Ni 2.977678459201442 2.2360274437944616 9.345984372111735 -1.057721501535714 0.5936342955998164 1.973385182535008
Ni 0.5555121703001009 0.18750391520108822 8.356614373994285 -0.8328862433907461 -1.2636036156169463 -1.5405674761363533
Ni 0.3358582132060751 6.1580137603591725 5.05452927738727 -0.8933735021425259 -0.0462690582698687 0.13956102225649514
Ni 6.961523858446701 3.757862817797294 12.69531127333008 3.06547796246174 -0.7172354520929454 2.126565595347151
Ni 1.3140259253094069 8.140988902779094 4.359625193930175 -0.2101825412287993 1.1675937384785247 -0.9693025493706726
Ni 3.5326957568400985 6.492238152400217 1.3414144396096455 0.6880441752409698 0.06095005732081117 1.112494740621852
Ni 3.638453936847651 4.000109472669134 1.6779936470677874 1.075454914259735 -0.265843068015897 -1.1407447366064807
Ni 8.636250789912257 6.418850575509242 2.730718466584085 -1.3684714573666301 0.5434684733787027 -0.7810934270891708
Ni 7.591467101174831 8.634026643119249 9.086525601245501 -1.2622203621161747 0.9184188751469279 -0.38894285939257534
Ni 5.855409321892065 7.143199582322277 6.189626300110466 1.219234602583268 0.692445389632459 -1.3004084431501217
Ni 6.431759894186995 1.0128023113096258 5.176683126170617 -1.7121577589142514 1.665829565271673 0.1823737465466472
Ni 5.200870722544584 2.575941944714286 0.43881211479877663 -1.4232454677837167 0.24281189722804636 -1.3016641699340938
P 9.151177841606936 3.076884673447924 12.33705590191841 0.3213393013109885 -0.6069772925656256 -0.06411354265045734
P 0.8465927481959329 0.7396724514890329 0.7144608208624516 -1.4277893784006572 -0.6092126096540476 -1.2844778879627945
P 7.192964866815841 8.067295505704081 12.97187280630672 0.23578558650888423 0.9735957774293877 0.7092197808773205
P 9.279418438780482 0.7025607087920258 3.7933045969438837 -0.80762464061048 0.48803291811821753 0.5976974099255964
P 2.3061807405572705 3.0377211553343666 3.0760617391345106 -0.16532219038099916 -1.3232421532151855 -0.1427964984746573
P 1.7740165512167763 3.458761410529175 7.56151618442348 -0.9060277005714267 -0.7094072142977782 -0.8946739661215044
P 1.3962266838676785 6.576283099341025 2.691709712018208 1.5921762014515806 0.597294518060223 -0.13625612625297825
P 2.988762124053267 6.073347905771984 5.9638596462469895 2.533570968668392 0.42397491129604403 -1.4978578530829687
Ni 6.877015547590683 7.359451521550829 10.84149326190799 0.5400933862588827 1.1415692893903049 0.880996982855044
Ni 9.15989835049119 3.9863846335006103 6.024177580545548 -0.2237780205250469 0.4544864496213399 0.35622222923110264
Ni 1.512512492028805 6.897394292581623 0.3306546364382657 -0.3839909147039387 -0.7157632384227931 0.048270662080929776
Ni 6.264726470032058 2.8352403916658577 6.635488960243079 0.3113603357214057 -0.10986452363332691 -0.030457030938276577
Ni 9.01614432943641 1.1336105512832029 10.779995603081307 -0.5704923102657142 0.7360633834327259 -0.38851399938527287
Ni 7.431986508837818 5.032929105115835 4.070761349004709 -1.6416599100040048 0.045177624977902835 0.34931804591210164
Ni 5.644059772886435 9.187904065526489 7.218967923009601 0.030302764748599425 -0.15462562989910145 0.3046790670464882
Ni 0.4824267066818424 4.2144986889585425 3.6545891951030973 0.5923343458414702 0.5294834719535204 -0.6803995142115186
Ni 6.157188972590099 4.235878300006336 1.7432612347086214 0.8762558686256329 1.2971904504334564 -0.1627027504802811
Ni 2.14308590968162 7.477933674670052 9.107712452904568 0.13317337356259645 0.5838980421486589 -0.673622086278369
Ni 3.707995593242383 8.194841057004812 4.3792653368402705 0.7687732149609211 -0.4163572468497862 -0.13384571703927273
Ni 3.7556942746741107 0.32244382786074277 8.639890050102316 -0.28996052988939097 -2.3796140827015404 0.0401554891729631
Ni 2.9338813019357834 8.730526812100903 13.462360191657558 0.38808591070891874 0.6007004584179784 0.9594827350667734
Ni 1.3398816317781304 5.7430065033404 7.169582596926509 0.2397923936754322 -0.6301974394358308 1.2302504940777974
Ni 8.020653293999032 2.8039818619457844 3.997314461532586 -0.15437700422340508 -2.6124408436924167 -0.0007337928422309943
Ni 1.1107852448199533 3.290189618175741 10.55140798970203 -0.37167584478201154 0.03784920963728965 0.13610777360057205
Ni 6.416478152263366 5.261321178922893 10.789855987196978 -1.1679891741447304 -0.47030001961482876 0.1110261480415959
Ni 0.19839296720852553 2.7634375193649006 1.6042752283413522 0.17193506771182648 -0.5038066360127066 -0.25149348416244427
Ni 3.1978967935441935 4.498411027086074 8.638587997500577 0.42921996174506727 0.9225501237064822 0.4811346483364875
Ni 7.369033887317374 3.3478784256193985 10.28020387031305 2.6308566271954437 0.6277350939382673 -1.0613141039829785
Ni 2.8097090399377813 5.137640082675014 3.461077303377395 0.337669920150212 1.4588200224542167 1.866200005506057
Ni 5.754840817734865 9.305830181947458 11.827579863322262 -0.6562522275413536 0.715155172525149 -1.441933274001207
Ni 1.377803334598925 4.788958736479414 1.2731618616270282 -0.7408592621594725 0.11442154687639004 0.9528521171241331
Ni 0.21493969262067816 8.004176073174161 10.33487895885218 -1.4602467275984143 -2.2022699281590006 0.9195491320966293
P 6.900767581884353 7.494670379287441 4.04158610344742 -0.35833490469873125 -0.18638518169888546 -0.46793666158897473
P 0.7802603502779464 7.931983975184428 6.493599515583104 -2.9452125552100634 -0.825333884964785 0.5421435839196921
P 5.941363328163539 3.048767751072975 3.495664639464338 1.06675121583815 -0.5358965745687158 -0.6043205716690689
P 4.163982754922337 8.647955362410464 1.7196741579687664 0.5741707875585661 -0.07843073060407783 0.8626984416561724
P 5.33643246957845 8.050345653685696 9.350487342639747 -0.1697732841738173 0.2826539689256487 -0.5226278824842676
P 6.912166334198521 1.47796407851074 10.702886287223365 -1.324118899393184 -2.2633074029872953 0.7709617379718077
P 5.067208767563079 4.876469645505994 12.810507249562633 -1.5115402356660679 0.003670763983367871 0.24949445145454455
P 3.647461731359336 1.8487478834618611 12.115263983719606 1.266980502508979 0.3745742493757291 0.5514458351572245
