# total energy = -340892.5004984309 ev
CRYSTAL
PRIMVEC
9.07672340076365 0.00000000000000 0.00000000000000
0.00000000000000 9.07672340076365 0.00000000000000
0.00000000000000 0.00000000000000 13.28470218628241
PRIMCOORD
 96 1
Ni 6.678970600423507 2.003196498713796 11.595790701236476 -0.06726262980240029 0.021507535054472636 0.31415126820298156
Ni 4.506611211822585 0.4003987665785156 5.891034784011127 -0.094900703234643 -0.763232230538034 0.27483344443996544
Ni 2.5444505786010727 1.6850573512896536 4.674501545120013 0.5539770862195105 -0.6682279118459911 1.3472362021369377
Ni 3.368653350147487 4.238620959962447 4.841729277625375 0.014178091272594938 0.3663760298356529 0.0742352044654915
Ni 4.90623210322466 4.85740840924479 2.7589671311967345 -0.24528606980015172 -1.4882802366968628 -1.6916017891397706
Ni 7.051388552458103 6.0591302512524 2.711540344914113 0.8358944340894506 0.017420509469292578 -0.06885157155607496
Ni 5.172452394064891 4.4420847867430355 11.739106714199066 -0.04045296580872387 1.0858236590885688 0.17955633170251012
Ni 5.736888424951348 7.893644926407559 12.340120124152278 0.5136364776189348 0.6104133148303681 0.9602088145995205
Ni 2.01101155737092 6.723137935412548 0.14148614556970182 -1.7241925785915984 0.5765575426231877 0.8847497650292568
Ni 3.03266936495342 1.7307586524959462 0.5205827505194094 -0.9260380822550826 0.04586128130848876 -0.3894524520391422
Ni 0.6538481079058859 -0.19598823757035821 4.495184525012535 -0.5145841862441848 0.5226579643912548 0.3945239530247786
Ni 8.48314178999125 2.5835712555025863 1.4463186552184975 1.068696512489979 0.012652398656687885 0.3593152663341296
Ni 6.7910409015146875 0.4825140658343425 4.636693362390185 -0.20874709433385338 0.3695490282469958 1.2446507286635273
Ni 0.9035914231592683 7.543328795313841 2.500592759872436 -0.40431574230421985 -0.3427766452491581 -0.25471970440922587
Ni 7.446153396959409 3.472627214162995 3.821716172282911 0.606896302816045 1.8389486259892716 1.0184648700279362
Ni 7.682275273738058 4.123727797962596 12.906499481471359 -0.9782021658531477 -0.43315554935404754 -0.9085869766581707
Ni 7.969036189132378 -0.08540833442517008 7.031632156786679 0.1367405220885645 -1.309080517002823 -1.5244859971934583
Ni 7.229029101794419 0.627662669206773 0.4582728612401725 -0.9596310877191797 -0.3578091141022483 -0.07339599639364779
Ni 1.7207924104453982 6.60629327792921 9.090854729322887 1.0809866427112416 0.5603608782586671 0.5061226857403929
Ni 0.053437392371759034 5.0199089843185245 1.3299577870806008 -0.3612672478541778 0.41900805420907195 0.2664295366469863
Ni 6.605830365047081 1.996261882205036 7.025043363431038 -0.8370781699849068 0.026226794907012893 0.24892829453842932
Ni 3.3205830241914747 4.64264406210634 0.5564893597432373 0.5152105069742741 -0.7655557364648881 0.12108173250538504
Ni 5.758391182162412 5.613535756948663 4.748789078306266 0.596170945978741 -0.017453419589757036 1.7715813522882067
Ni 5.686548918200583 2.676008604357578 9.527296255972914 -0.755454386364828 -0.6435862020379111 -1.1471056458275017
P 0.22955214454168468 5.594837707199911 12.40274406805351 0.022174736324826326 0.7172593633523453 0.5324088731304315
P 3.953049095304577 6.293981386785989 12.627759666350327 1.7893003668345249 0.2839186945706852 -0.2310881810332149
P 2.417812136807588 8.638408216691317 1.4498522235520845 0.7887422018836803 -0.03081544271895983 -1.574513494064495
P 6.256031607174567 7.678626431020097 5.801004582143206 -0.7829736748310193 0.20970020227574207 0.6875548943093771
P 4.968925030222051 1.069201683594131 12.721669259704953 0.8753670382627763 0.5619675606241548 -0.10693398025009326
P 3.785801394008222 6.34781543196067 8.41322832970496 0.8076171844113124 -1.1829113426722015 -1.7025366908847193
P 4.671771266787769 1.0074981194232517 3.723011346072816 -0.08929904077714944 -0.24104374958403005 -0.9449840272299662
P 0.04756566014726039 5.708097059027542 3.4887084446192396 -0.11997641525634821 -0.06972471818964766 1.1407568207913386
Ni 1.5011629396830024 1.2356869401434498 2.479629160018205 -0.6080371012887077 -0.8645725187504336 -0.7304606925339677
Ni 1.7907739461555305 6.27316846053653 4.945828400420754 -0.8023425662759344 0.29328419494598523 -0.7958908971133196
Ni 6.012775425977219 5.7181449915867 9.271831882099804 -0.30192798666391224 -0.8806843367106316 0.606132170956511
Ni 8.969572461877332 2.3458791056139696 10.284843203181985 -0.8285400506069086 0.46330481924391825 0.7509562413841583
Ni 2.4013923445767675 5.078081703172771 6.9703769827408415 -0.7501005782520823 0.5862434024523839 1.2319322526555945
Ni 0.33731100212283793 -0.08930043332432765 9.23670677874169 1.25885221697489 -0.25438803210141997 0.2658775207982582
Ni 1.630814853571917 1.4878292333330434 11.629016046433225 0.5870669267949438 -0.3151971929689926 -0.8594125718160488
Ni 4.034077003123559 6.93959962978547 1.5107361596198994 -0.3812390629904144 -0.13746197363562132 1.0321639647815837
Ni 5.679351076719631 7.743243623331437 7.989153838386326 -0.5385993182118596 0.40876169389071537 -0.4166979180186566
Ni 5.268783657163676 2.6798934418781926 4.890457666011866 -0.3517662503422781 0.6442809141120904 0.24193489393973172
Ni 0.8482297654735601 7.586307079566433 7.045621202550161 -0.766587263053196 -0.6435152395906595 0.016830184183461338
Ni 4.977148541422229 4.563168273950968 7.157106962668615 0.09253863076036967 0.34280569871488054 0.09011742291338673
Ni 8.046932627454602 6.902684596616455 9.097323709932564 0.6678975250897659 1.2967564482198315 0.5416715293792801
Ni 4.797919565529587 0.3199018470655054 10.452801611903258 0.06835663419752742 0.39904086705852565 -0.6142936237213807
Ni 8.124937986454977 7.075568943006973 5.088771360060686 1.058987769842647 -0.21069830452295327 -1.1206623640343087
Ni 7.175195056619737 5.937148168449745 7.05003158234284 -0.19714010622254435 -0.08696165089322443 -0.4116415865416717
Ni 2.0468192303120967 5.316499990915709 2.572861629823678 1.1217208872058102 0.4796048419555224 0.8642629579298148
Ni 2.470575128647147 5.4715394995363 11.380366476322914 -0.7165667081606949 -1.6072696054495934 -0.5032700467829461
Ni 0.9344214211090784 3.0718081953012915 3.672090929038595 -0.7980405964664707 2.280905318574717 0.7721223339388121
Ni 3.5045228194140208 2.867046397106107 2.7931482553442337 0.6110774307769282 -0.3599888953623865 -0.5333745794778104
Ni 1.1299975754471097 3.2942423735260005 8.335910986321554 0.28923856412170185 0.48798483848910157 -0.5851298576732309
Ni 3.4531757963903864 2.7573088138719304 7.137538455166997 -1.009708721101861 0.5115446280869126 -0.5731114930561162
Ni 3.9735261827964137 6.8661961694368525 6.11393822882419 0.8492248326497697 -0.08451241802178348 -0.13402003783360789
Ni 0.7655380942958664 7.267006111575378 11.205778428991696 -0.13985104269308818 0.7868748096576385 0.1267031924572205
P 0.22154465935316606 5.590444573181273 7.953059340992692 -0.23631394820852852 -1.3904225077164247 -0.8496277245151432
P 8.635884887647554 1.7070865584450998 8.277976985286918 -0.26153364200726575 0.11315604990040512 -1.419385470607678
P 2.2758703397343 3.423385990916891 10.341795102768655 -1.9596038124801993 -0.6153472617968758 0.5479920722806692
P 3.7074783496965833 6.2677950404145575 3.830524224455818 0.3088409117336617 0.0736181397067829 0.13431288648367834
P 6.944392139623985 4.072798304205197 10.614197549766107 1.119483513234859 0.6143519877631419 -0.4443629880340928
P 6.345818552861289 7.858980920586937 10.27066899226565 0.6868085030616559 -0.37086260485209677 -0.5230081486418218
P 2.3290327073937354 8.279741500272914 5.714494333524105 0.3593864858916972 1.717148013039991 1.0124322906806111
P 6.802141733962611 4.0529384338895325 1.7682473345698748 -0.684521249689376 0.09081907696610166 -0.9821806908849213
Ni 5.067852236150032 3.0367357369376147 0.5204556763949033 1.3505441834642484 -0.11278426838328318 0.38363430269546833
Ni 1.348383535133982 1.0255880287190096 7.1206802572066294 0.3019842938231444 0.5118104801537895 -0.666725873379168
Ni 7.00896394831943 0.47488961836397786 8.994725877150993 -1.3802221701446553 0.4744459234624022 1.9169756933970277
Ni 2.8237867344349667 1.4413927175492511 9.32762740715347 -0.18128874101258455 0.4500507824474894 -0.6979586061412044
Ni 6.436930700132146 1.872228459963926 2.562672100382926 -1.773802785419558 -0.7724228958983665 -0.8626837863681531
Ni 4.163638149780684 6.898645454801797 10.4530675598924 0.3355657293230156 1.1356783778271666 0.16509387642027695
Ni 8.398791801488752 7.402194826603485 0.28710220018585114 -0.7510860820938032 -0.8883793913620442 0.28460492200443244
Ni 7.60293563643037 3.8015222785542595 8.373759106633372 0.6688822576005383 0.5934334924429199 0.3171656295492731
Ni 3.52533574566348 8.56417877453341 12.387718460502983 -2.6271262136187334 -0.05577545509840717 0.3011779958717652
Ni 0.3778875854222641 4.820602296753922 10.220917657176885 -0.8083496917019627 -0.1660341288463592 0.1734741300641722
Ni 8.501513077705557 1.8270989923179106 5.629020646692046 1.4121023066827034 1.3805589846587836 -0.004495059656876129
Ni 3.942774244665943 2.48387252810439 11.389997787288156 -0.021387464536840588 0.05757831263510084 0.2832710336843573
Ni 1.132321216580935 3.6475084396528943 12.72791313757979 0.21206073208811863 -0.5959056081324963 -0.2515238231797475
Ni 3.191067261150245 8.463508837755061 7.922371847596793 -0.06217210265337034 0.3324888901699048 0.39702615062134206
Ni 5.441858614740952 7.869110543654707 3.674030624781948 -0.7396359312753326 -0.34925351122275333 -0.567832504045364
Ni 3.033341042468667 8.510054274217001 3.6018280149099136 0.3018305418540995 -0.3676726371598894 -0.018778051938451532
Ni 3.9644494596174082 4.389730247446532 9.51290964973419 -0.24293916683452998 0.25485314466329656 -0.5957899084902384
Ni 7.320259246466602 6.289207030393832 11.492157214340182 0.5942421043871443 -1.1848833787969077 -0.25373780011193076
Ni 0.8370490578616613 9.10613176210547 -0.03335060397661988 0.3665737476687557 0.0004882524903281913 0.8609832587372785
Ni 4.670146533338727 0.11680018153976059 1.4031570211576905 0.45769158682219885 1.1534619270628328 0.7983586419275218
Ni 5.906523304443781 5.847560910672961 0.4342386059344839 0.5094100982424131 -0.7751806611491617 -0.08268924877011566
Ni 8.23807934088128 8.969699536001839 11.392415826343044 -0.857767322903142 0.4389639285057086 -0.006142365452312002
Ni -0.24998475608994397 4.569875972380253 5.798520283009112 0.705062049955205 0.27195046646521553 -0.1539046925726769
Ni 7.809721543894473 8.47803159484147 2.777406494334884 0.44074133212110544 0.48066825022303017 -0.1882662007716822
P 8.42818223114237 1.4851425232720576 3.4588977626824318 0.6796988886000681 -0.8381706317181371 -0.20578466927141978
P 1.7709685361789407 3.44329124484845 1.5881860231617175 -0.3554316150090073 -1.3764534471308423 -0.48702144613456766
P 4.703603334976542 1.325337734982487 7.91712459392701 0.3867134558414243 -1.7012341700232119 1.5247703612030965
P 8.64349118167156 1.8852898646185148 12.63919815290051 0.8325810534455016 -0.5330696466428819 -0.8806359999711993
P 6.376888176303025 7.798520867491581 1.3548407160035263 0.08104322852626042 -0.7692182729181397 0.05628556196560629
P 1.5924293912479028 3.328389006125419 5.9203934451336195 0.28014817178465945 -1.3568385011133923 -0.21767679272331542
P 6.715277493139529 3.932662775044531 5.993964824861049 0.6388617999790481 0.40769237208593656 -0.008729923673830126
P 2.3216442547260248 8.62606387316787 10.313126272607766 0.402484602632752 0.1979939695824074 0.2401112104674316
