# total energy = -381176.0373569014 ev
CRYSTAL
PRIMVEC
9.13011042071697 0.00000000000000 0.00000000000000

0.00000000000000 9.13011042071697 0.00000000000000

0.00000000000000 0.00000000000000 13.36283948643335

PRIMCOORD
 96 1
Ni 5.463503642118154 0.4617014597615948 7.207140148011283 0.13964304044734016 -0.49855515780578 -0.8767497775429159
Ni 8.782554371994959 6.318520209621903 1.0293861526647439 -0.15949941305163495 -0.13133503480227704 -0.3341642209897987
Ni 0.06661967568025591 7.466366804136883 11.529056799222442 -1.1681313561495497 0.28395083336020127 -0.5495391050528149
Ni 0.48961677194277026 5.1743347893292135 6.707610815337491 0.1377648495880208 0.44842687369082124 0.007022968285052421
Ni 0.2513501099870228 7.820259008700919 6.724982676167293 -0.06732690738143243 -0.25116335451653515 -0.7012123371918118
Ni 3.319936350573965 3.8359793137112392 5.295960640413534 0.26909782750776884 0.8076197555144736 0.8289809947990691
Ni 9.058822378958224 6.736094933389111 4.204684209193586 -1.4851213793529068 -0.528836839508457 -0.3478890267750589
Ni 7.9764112848201805 3.695183883082979 5.4051348470979566 -0.013779313172279496 -0.06387108762234806 0.24698865431355527
Ni 4.219425685251714 6.3027068586169 4.908771836669277 0.844234835634346 0.7398709301042742 -0.6973495118022959
Ni 4.916089620058717 3.46963363872525 12.44213995509612 -1.8563930467179641 1.5714682794802677 -1.251162047419484
Ni 0.7332318525005561 0.8701789416457859 2.336011756026548 0.3322369220600988 0.06043326558539269 -1.8552555906794113
Ni 7.754850898654822 5.134837932257827 8.347886255761487 0.46699100984625386 -1.0435284978647834 -0.28945068013250796
Ni 2.176444818662558 7.008583074696447 12.544205457916517 1.0560731672990133 -0.5681307520120732 2.351234246007267
Ni 0.5778282454242565 5.354882720116701 12.193176455936296 -0.019542698018617955 -2.26936260804244 0.5341271413731188
Ni 4.029574172088882 3.390512103038556 1.274622740808262 0.15667582755991083 0.09310453056616867 -0.01947250690231485
Ni 5.53570455421259 2.4071353151079404 5.577649193850051 1.8568118794229376 -0.6098756971593433 0.05796552077119049
Ni 8.46497261601458 0.40430776051930384 10.694106388092132 0.01788716469306597 0.5145713307283782 -0.21125829079148134
Ni 7.998789185116521 1.4087029753255644 5.607474525101807 -0.8870403608356464 0.2574337609062792 1.3886265921582666
Ni 6.185321030746623 1.7838226862906572 11.516415248528721 -0.13841251047434872 -1.1400369119061784 -0.8018244889889352
Ni 8.870212560793474 3.85097095479104 0.912064235566427 -0.42210314819462785 -0.13495411961210307 0.7577051300722176
Ni 3.685460315634753 8.153307171495658 1.019822362146418 -0.9701522989654777 -1.4859194497741701 1.0472362857336739
Ni 6.294425848592918 7.2743605849479644 1.1068706595782292 0.292230042649858 0.09670356077133667 0.5971561927101458
Ni 8.188576787507394 8.15758919321699 2.4873323777856213 0.22990238825522985 -0.9192172026785073 1.0520187947239816
Ni 5.998637665850959 3.902227393903098 10.191904672139374 0.23772651228533895 0.9929119612594965 -0.5522171661056102
P 0.3333065449156641 2.4240807997876663 11.41868015701414 -0.7300544582344846 -1.1996685075258822 -0.5459734991887436
Ni 6.703025673954862 4.941708709504465 0.1219755343080454 0.5934481477309393 0.7706089826180792 -0.6325204311420526
P 4.793143555027903 2.766523846060551 7.792980978217289 0.7732644179630553 -0.4719236712611808 -0.4792112060615295
Ni 2.0031918459888094 6.47667197989249 10.424644878342622 -0.8889514618154304 -0.05324446114643734 0.27214047098883454
P 1.8100443630148881 8.341186580838006 5.226366374804046 1.8542783143678065 0.8859761812371904 0.44674820043681773
P 5.817715400541991 7.383657135110139 6.570134179796018 -1.8432737357271867 -0.545412484478951 -0.3592155075314717
P 6.366133734732232 2.6327494702376297 0.2940625918990341 1.3638817811134187 -0.5839121832160459 0.4902497232638783
Ni 8.62086011893572 2.5424070290167857 3.377123709323928 -0.8877661832580775 -0.05595080433400687 -0.6391777885575701
Ni 7.237821883607306 8.197834719331338 5.090146042437106 2.121901614212578 0.031215506370855916 1.0725809351460496
Ni 3.641087979673833 5.857075305959177 7.028733228084461 1.2362702179093161 -1.198192180090672 0.5143134490813014
Ni 2.8467136046500077 3.7087238366282556 8.04744902086494 -0.5109172789155588 -0.4113587651939302 -0.9503931140606795
Ni 7.018973140195115 2.468590087402786 7.399271449711038 -2.415382498550401 0.07849320841089708 1.2771666990133617
Ni 6.4193440174442165 6.452194154231745 3.9011874743422035 0.18241179887343423 0.7624914957172675 -1.1502866146586448
Ni 1.884473022017649 6.309417489672719 5.127628797180719 1.294376635133745 -2.1132871330706897 1.7984630071703993
Ni 6.533707778811804 8.718570559152544 12.572654881549072 0.3848578906899243 1.246983490561762 0.06678980393103981
Ni 6.334096177759625 0.48085277908497454 9.252683836556042 -0.06688339208611062 2.17863840478299 0.5186169615526617
Ni 1.9331365098101805 6.52112648684593 8.202725719408347 -1.1002138663719696 0.3834751514097848 -0.8470283392190832
Ni 0.2057050366530675 0.20333577303540112 4.429580737655266 0.19689456587064155 -1.198138444034601 -0.9544641988062595
Ni 1.5635952962261825 2.178471703144723 4.458003683968011 1.2857220447825408 0.24482764210649446 -1.1826197795737117
Ni 7.751025382447493 5.474879759527066 10.675773126649842 -0.4749783989271046 1.5532782388348023 0.17533483742199482
Ni 2.3530302815885147 5.724314372377338 1.4347283546787744 -2.102397996962012 0.4271517663621288 -2.033053802040234
Ni 5.195452734406911 8.997486298097018 4.794239168261506 -1.37622847560423 0.5628900724384241 0.3382579314431981
Ni 4.138852462030497 8.373771944427414 12.029121156358645 0.40538352144710177 -0.9237418300217382 -0.8346384501951626
Ni 5.244901411683524 9.10936666946844 2.4485933198674767 0.16942155726135338 -0.05440685688565469 0.7530748303890579
Ni 4.818315269069932 0.8665661570079801 0.2956512310877584 1.3784743342156132 1.4742227301625321 -0.36488581844337153
Ni 5.514047932628371 4.220886502896518 4.393447413211041 0.7566003270438131 1.149021374792976 -0.4697644588263329
Ni 7.2471985068648905 0.7001781142537828 1.4514848460757037 -1.207603960322875 0.609567164779989 -0.03011327444561265
Ni 4.121806546137691 2.607979481047923 9.893338196839206 0.14330686245217253 0.6314747634863576 0.1863314456428146
Ni 4.404082165665213 2.1953715372730485 3.449991119468805 -1.7915691082640437 0.5060532659550382 0.9629547527757738
Ni -0.03454194622241728 3.0323287466429085 7.637250513192964 1.182010428124487 0.7273565996873473 0.6243391808828409
Ni 6.308495348534436 2.5952064567661686 2.492276332502254 0.9142138359266448 0.7251410800932673 -0.4295220663665183
Ni 7.440291209177133 5.797090481419415 5.944392028633221 0.14233369990562583 2.1803543590328323 0.34563082686850155
P 1.5874340141673269 3.1858424208912437 2.105155091574069 0.5318763976657291 -0.001970236352493381 0.12978388826507326
Ni 2.277569920124111 7.356759830225187 3.118498727465781 -0.95564896314298 0.30565685757872524 -0.8747715707706225
P 7.733778604128525 4.666864999744883 3.4498304295278763 -0.04534011869769611 0.3879131325764803 -0.16389214280269193
Ni 1.267204526205742 1.0723040620580557 6.465662892916837 0.14788368318957756 -0.3351332697712873 0.9478081269423225
P 4.341951765209646 6.7567563729528075 2.717146383644122 1.0134180516326483 -0.18332094095126492 -0.9053571568669634
P 7.160800273285018 0.8385248493049404 3.707092285921215 -1.0563570170880192 -0.5980707341046152 -0.4895946061783826
P 7.459783994624986 6.880752400665822 12.562298597458442 -0.5244813907532387 -1.7917213175711917 0.11758400376477168
Ni 8.582979291383898 0.8456865078085918 8.03607746851117 -1.0660246220847707 -1.6321249739303763 0.4966306870895576
Ni 3.263183585073332 1.5238975767286354 11.924022630903224 0.5022279786716769 0.6623843085810206 0.42656658328262015
Ni 1.4991549778697686 8.938314053372178 8.502761229452574 -1.03625124747708 -2.264002115061475 0.46169479444432093
Ni 1.4939416848998743 2.5277532020173465 13.360380710266984 0.21080603374541113 -0.22744518496398894 -0.3571704520769849
Ni 3.408799713929446 8.181062706746934 6.863113940615842 -0.24740003081936104 0.3271970456433462 -0.7955761940863783
Ni 0.9000042728975425 4.3837402799613185 3.8272244509637234 -0.47619684471523793 1.2849252599128582 0.10869801412905152
Ni 7.348743593399326 7.691752706509572 8.058153162157241 0.690380022462998 0.3786185946484318 0.2889063775932637
Ni 8.323729809982598 1.2869255644105952 13.039311252159637 1.161386324116232 0.8555962833937523 -1.3597577316427163
Ni 3.198460233298238 4.690073740076706 3.1411888775336987 1.1486179687069702 -0.6514414364162717 1.1893308730453
Ni 1.432669514810629 1.9882732457912493 9.322103717059182 -1.3751722664255737 0.2421580656941313 0.8504502204164386
Ni 1.7117039451887426 8.820992136273862 10.864215863796467 1.484332050682392 1.2585082033719102 -1.0523882622482585
Ni 5.2758616156430875 6.058366847302881 11.504763401789354 0.8527770687774023 -0.2807343833054326 -0.3451600578796701
Ni 3.6762845548033276 5.242408891577076 9.570439064631742 0.8475448738441855 -0.908591347533545 0.8028848119326495
Ni 0.9708594067367018 4.475707880812006 9.456787451865994 -1.2344776447852674 0.7309669427464249 -0.614616297168122
Ni 7.883585453603169 2.52167254857085 9.735001998340962 0.47238878382305743 0.4716817304537038 0.06445755625343738
Ni 5.760341787542315 4.555596345762223 6.898365296407017 -0.8860332597273708 -0.9946957926327966 -0.18153171026132608
Ni 2.899111307547069 1.3287049490519882 1.525969198751173 0.33211916553531184 0.5868627812039376 0.2330882421823792
Ni 6.439950676346231 7.811284110295654 10.424538056052347 0.5247495568129608 -1.3750475679222514 0.36473746579096544
Ni 5.646051067056968 6.065104868689539 8.65993516491217 -0.3229773511350437 1.0364085989905505 0.5455436107401767
Ni 7.786742373862948 3.6151128159271626 11.96151816780123 0.2569506506222736 -1.0912304319264368 0.33292006417005243
Ni 1.9590203724540505 0.042838477433875685 13.084036923388393 -1.4459459947050257 1.0885405437990994 1.375832782827708
Ni 3.0999828638178917 0.32523187538401027 3.583432246266505 -0.9423974974497125 -0.5088192587359495 1.565946321220774
Ni 5.860699959740346 4.968049077662337 2.193242395555747 -0.24561619944606086 -0.3670861685288 0.5270566076795826
Ni 2.1292238882942702 3.391224251640398 11.108875428970288 1.8129447457263423 1.9331911268146253 0.6489821762425017
Ni 3.244539899881522 1.0606814316715845 8.26188244294571 2.0886685631910606 0.3995062367307184 -0.36527662612388706
P 1.5209668113287476 3.332243739231439 6.308863291978721 0.3633282441482646 -0.09493052803131394 -1.0707497954745817
Ni 4.515332559427313 5.826507696741654 0.49356280560579685 -1.3426601527304811 -0.09518892389902316 -0.7562845955756071
P 4.2063878877718395 0.5347724713657162 10.295974234166236 0.8595172157147132 -1.101008337248807 -0.685987035601625
Ni 3.7767066377733194 7.704215307041806 9.340103729476251 0.5786236811235971 0.7315459551783465 0.02852844645699603
P 9.123773983490318 6.705152989650108 9.282135746297346 -0.4080844653180327 -0.16759298869304687 -0.2701776908355089
P 0.9274457323551847 8.08335226653011 1.277868495012811 0.6824026606844763 -0.8196316923736853 0.2537912790576855
P 3.374105294865352 5.2502516563076185 11.898138768259356 -0.9781880247857606 -0.6497231681735843 0.20662284890199897
Ni 3.6050057838471754 1.5464306888997361 5.89593853337713 -1.806295615840941 -1.0838454523162753 -0.0011963343009463265
