# total energy = -381180.32512010046 ev
CRYSTAL
PRIMVEC
9.08675472335958 0.00000000000000 0.00000000000000

0.00000000000000 9.08675472335958 0.00000000000000

0.00000000000000 0.00000000000000 13.29938404089174

PRIMCOORD
 96 1
Ni 5.371380665768997 2.018849745766909 6.278545926257101 0.3622599507847503 0.7968262644433953 -0.15556613943549982
Ni 7.32468764922594 7.761215349402117 6.348912846685791 1.2003200250669521 0.8474188897892825 0.7683165870394768
Ni 7.819070717158606 5.626309571440159 5.409577748209891 -0.41177374124416183 0.7719459562619478 1.936411947744768
Ni 5.630262309774395 6.7975650037800595 5.142538924428304 -1.7827895622992005 -0.8021116812120509 0.5728222439504715
Ni 1.1739541985129291 2.5082441853191275 7.015331808381061 -0.8533910482123174 0.7446387838065627 -1.5597926429145523
Ni 7.08248928701745 0.563685929375291 2.4706931711438975 1.7750572266519493 0.972978712670679 -0.1955802179345922
Ni 5.368681899595968 5.633842491162183 0.32403912791221084 -0.6921787662346337 -0.14872186282015676 -0.1910792447404451
Ni 4.391592243637511 3.872147905990317 4.7249916376602865 -0.4376616647545172 1.0694796705129064 -0.16432768767821376
Ni 3.324189331807885 0.03786541589101063 2.721359480142441 -2.294777705681435 0.8204374761044321 2.14219584568524
Ni 4.673581505077298 2.9424456762687217 12.986516436469985 -0.6848963736406075 0.8427423102492196 0.9155454102538749
Ni 1.8889636727794343 0.2849460914488896 4.898682229470394 1.4578154924491022 0.5973387410345972 0.5549008835853605
Ni 2.8747402663184154 3.976591065562028 9.912708998235674 -1.012263626313231 -0.2881281046663425 -1.9231512260801205
Ni 8.911216862285064 1.8496089377781224 4.418321841531729 -0.1513166201305265 -0.5207432638670452 -0.846076259718459
Ni 2.8925048719354938 6.647588115948923 13.159262005781793 0.3321009107028668 -1.5579746158692072 -1.9563611371731857
Ni 3.3249253589459835 1.914951791482679 10.944369160093549 -0.5224641032128938 -0.8702749684518496 0.7291486585907635
Ni 0.6257448298982557 4.538870365295619 8.732721194541293 0.32075129001800246 -0.926263053781695 -1.1397368641672565
Ni 1.371100430465934 4.800232693359054 6.126068363507385 -0.5867018301460412 -0.16359646593914406 1.0959288658433706
Ni 8.144285671140818 7.2427978150463455 0.546489245932672 -0.1861221578454859 1.3815807410550787 0.2729634811107622
Ni 5.492688842233442 3.012222866311454 10.646223648634752 0.32230526476868365 -0.41199717010887754 -0.9083679186688293
Ni 5.116860664063443 3.5662059589205475 2.315622248576733 0.47347378935712003 -0.029651761428161835 -1.336885455030233
Ni 0.9610242734873593 2.9123139973806236 10.71511397140985 -0.2190271361036228 0.3572995214556814 0.07547010531385712
Ni 0.003921843367944179 3.1765568267129147 0.04873590064789576 0.24193129439530592 0.962227644801762 -1.8524993680905129
Ni 1.8521259688553249 8.547201465343813 0.9574131971332792 -0.8465390582874903 0.6407505323613287 -0.10917418243452166
Ni 8.001696314955042 2.0382045334724723 11.218881839691017 -1.3417852063246956 -0.6354694864680476 0.2043692769811319
P 7.253211236037226 3.279164461816774 2.352035601052087 1.6501350373545514 -0.8699731209407148 0.44186978929859383
Ni 0.7829856695095933 6.587306584663145 4.862800452150333 0.05785933421062938 2.2556455155666635 0.0328314447077241
P 6.424081208346228 6.564198967228757 2.097086704520383 1.0721639022132892 2.2721491696486416 -1.7432282550668108
Ni 3.2084331625209503 3.804115372867523 7.353455406219856 0.5345701424478084 -0.45653099085519444 -0.20066328888445442
P 8.105276232821577 3.974719194075011 6.609035741395687 0.5940143046470544 -1.9012647104196738 0.9293954287630898
P 6.100147486789597 6.221510183782791 9.882266552333713 -0.009225632363326046 0.319826721321204 -0.1653746408854894
P 2.288108463744022 6.703671566521099 1.9301793751620135 -0.4021241339695397 -1.2898648633063206 1.7355139171416885
Ni 0.7533455840557074 5.784310063752054 0.12214960995812424 0.5391819301882069 -1.5342973268569253 -0.26516378256068524
Ni 7.8884208297261456 1.548164934330068 6.680067812275103 -0.4356988846011916 0.038367286924288764 -0.6061409127072593
Ni 0.8394716633190265 3.8133111687163628 2.0408306056071708 -0.0472627896417057 -0.08866937761295052 -0.038832142375849255
Ni 2.782455184657523 8.531217863665837 11.436326973172404 0.653955461087377 1.2989100042277242 -0.5252900026974631
Ni 5.493152266727801 8.984192590014349 7.3160843097894945 0.18049144192226982 0.1775444434788039 0.44752750180500345
Ni 7.138763559440244 6.3969208982749 11.830001537752604 -0.5951376196182203 -0.14619626818482565 -0.20768574294887457
Ni 3.822325229469377 6.879164061806331 10.27334866577194 0.8617219366755159 -0.8466128489482193 -1.895406194756368
Ni 5.591970725083669 1.144385898421895 11.916008580528155 0.3624188449601178 -1.2840963362536593 0.8653610760899999
Ni 2.282565543321302 4.94128638798509 3.9654507041878397 0.750563891041746 0.3480507491639038 -1.2405701308362505
Ni 6.7850888894515435 3.1467159239781406 4.6139687589441625 0.7329847445074021 -0.963194893811038 0.658158443425131
Ni 6.796974364718623 5.133071434611201 3.54512377912915 -0.5560712497443778 0.007450285630458136 -1.126709341559337
Ni 7.075855956019768 2.0549423357981285 0.5228973044679049 -0.6178669428949359 0.02111852714617008 -0.07945942897890831
Ni 2.2864274141076235 3.9634788783981185 12.279480589532882 0.0008088690545405425 -0.5459421317301759 1.7087412770335346
Ni 0.7652855798515338 7.953654642373206 12.056170864509161 -2.137015844146197 -1.0418513672726766 0.46733039546354355
Ni 0.6205154025158371 8.584893324218308 3.2231991390568844 -0.10734947052095706 0.3423567841029201 -0.7498334406336247
Ni 8.65121754744033 6.296775773719495 9.729922564879432 0.132264745705398 1.1333474157011447 1.537441528912862
Ni 6.724507495257652 4.080716188716042 12.371499429278389 0.34101029737735467 -0.7549031418470483 -0.4303047101688138
Ni 6.683426276845984 0.5120677101075809 4.688405636843896 0.34284760769640954 0.6263119883384956 2.4354872397200764
Ni 4.865239337136331 4.583031993581552 8.991873623839473 0.5258350765676557 0.5697742011527671 0.15652721779718848
Ni 5.253171072688399 8.867327836642872 10.0293583955186 -0.4301090492182399 -0.5005629322644283 -0.9342609843855072
Ni 0.009264855185254599 6.38941523881725 2.572260372824148 1.4921047526492754 -1.1658032222370052 -0.6930897080846773
Ni 2.612114879338984 2.0268279164737093 1.0191295270006102 1.0769687798011 1.1747560605549188 2.1032053233546555
Ni 2.797702759197399 7.720642989258766 6.484154652947284 0.28716934029749897 -0.2580680520561684 -0.5115202026068805
Ni 0.2475277438936131 1.4505459276066568 1.773592781895653 0.002090563980441561 -0.12754317186001257 0.24590262033822816
Ni 3.2679150593850896 8.739259114613665 8.616923226182319 -0.8550293551466888 -0.11659978547463144 0.9053515004400086
P 4.329220758749725 9.038903940613032 5.454782535945871 0.5847915004972059 -0.3676574676512378 -1.515173718653597
Ni 4.257926080656837 7.665086570464487 1.3039674860674826 1.5292163127895921 0.9016869071042276 -0.6731310055745633
P 3.744624389248592 5.6484176458475 6.142214618096125 -0.835639123545535 0.3423552414410233 -0.3869276287347594
Ni 5.532225312330581 8.215035143946222 3.277487046882292 -1.9125647088135258 -0.19871850645325778 -0.5303195947015705
P 8.99839518775322 8.943811051721614 5.445445895397764 -1.1760932913091036 -0.3444889999545745 0.2687108764819953
P 6.624671320365152 1.3070297224321656 9.413064699278818 0.9472016037065752 0.06024506083398656 0.18639238078773704
P 1.4821860077901177 7.518644430247182 9.483006359583277 -0.23976616842318707 0.4242952707499402 -0.06878857952862347
Ni 5.049754979929366 6.682163217929987 7.953483811383129 -0.4381062084911035 1.0092063275441459 -0.39987056204867266
Ni 1.3736447218075105 1.2593242597776084 12.7379509851792 -1.435123450168225 -0.1936953422070535 -2.7633820827613955
Ni 3.005971179015009 4.45613546292043 1.4076737098256156 0.06175609816187429 0.8901645082869251 -0.7808342598905134
Ni 6.55847431171021 3.1592829058545693 8.09994957716289 0.12323066052758777 -1.8131792303346514 -0.600539764470398
Ni 4.2327466831300224 4.85887860878239 11.408929498801022 1.524627150757013 1.1730362496503346 1.7905815475397937
Ni 4.899659964285943 1.0903106206586053 1.6770523729659743 0.9336925134765468 0.9529850431575717 -2.187283739162814
Ni 4.842822313066084 7.660388718237361 12.193208213517424 1.323070917744644 0.33396393205353453 0.2076502617252488
Ni 0.8007575445305043 0.4448684323991527 10.236549126217954 0.12633835291863404 -0.12983428188703447 -0.6634577441508575
Ni 4.3671216129844215 2.0035567374530765 8.739996050427242 0.11817175794744166 -0.17580920595525204 -0.07554672418806345
Ni 7.287613689677255 5.738839942776167 7.810262925739357 0.24334771512685832 0.016241658669842996 0.4683158993052644
Ni 4.58977436563673 5.843355796386209 2.6869279488870794 -1.551412389270657 -0.6772398855366143 1.4806278623579274
Ni 5.539840012845728 4.507820924173596 6.599526452506545 0.6333904924518317 0.8840851348620646 -0.36619579550404674
Ni 7.8857765840818645 8.348664959907731 8.65379000772176 -0.699993377183046 0.834715326179685 0.13612371444017202
Ni 1.8521623158744902 5.943800783849727 11.055724614035034 -1.2561265905136108 -0.2719813197031509 -0.280099320824595
Ni 8.854342864046039 2.110934918822392 8.735141906017706 -1.650691166968338 -0.07291005789616475 1.7165528026581531
Ni 3.2593371628620607 1.2591879584557384 6.767431507541004 -1.5432277965773358 0.08266482329008344 -0.03895067023158453
Ni 1.938050322162276 2.7992475075119274 4.8341262887307686 0.4510807663739006 -0.5502495008562781 0.027809823123416625
Ni 2.480893053397182 6.054295722112474 8.16164591616968 1.4556310832032735 -0.7288774072072479 0.7406098651528277
Ni 7.659743558647175 7.55377382427052 3.938984622182571 0.18417197609765057 -0.03775150771716079 -0.12184843546808047
Ni 0.42704658022688924 6.826206454882376 7.431934981326259 -0.7346014541752188 0.15090344385250787 -0.2625132323117156
Ni 0.021038563368399345 4.412573560450725 4.009976711340906 -0.5262176567180551 -1.223503148051635 0.6813950453555684
Ni 7.457763173145176 4.190729528974847 9.79141899528081 0.5897652995627133 0.8286801757291986 1.861405412330891
Ni 7.712010572206989 5.183457489929206 0.9306018184459388 -0.6822843899390572 -3.2993874149938334 0.9863690179346561
Ni 4.846357060679917 1.7626668679345405 3.875480018972303 -0.5476478015673729 -1.501633003854685 0.7003001097901875
Ni 0.8155344251721883 0.1413353840245685 7.544434457695976 0.546028263686079 -0.22943907546556613 -0.37369441787393703
P 8.7253654665377 4.819414832723582 11.606092995588131 1.0721675017577146 -0.4428966879012114 0.25750755156700816
Ni 6.4114687926958425 8.759549838062737 0.42727102307023546 -0.1294427028755706 -0.2547698409208709 -0.7070546549052017
P 8.697732645217222 0.09276849701579173 0.20195403391310512 -0.40259695984090016 1.9817721210471224 -0.34270568280190655
Ni 3.017447750316477 7.152611773742254 4.082764343246011 0.579927230426369 0.6010460146828552 0.08208863907163927
P 2.013361345872937 1.95855912772634 8.834807249920129 1.1418845066378787 -0.35734940085701034 1.440165640577823
P 3.6641884358356127 0.5352689211163202 13.094679713453273 0.8099085515486504 0.10057229969812358 -0.07124038350322569
P 3.115611962327369 2.9816095894194152 3.076147277593082 -0.4631628943494152 -0.41372289455073263 -0.747144580947552
Ni 7.384433061979029 8.59315318432364 11.046667845534502 0.7846993992728744 0.5721077343819502 0.7375075720784201
