# total energy = -340891.836871419 ev
CRYSTAL
PRIMVEC
9.08242949067429 0.00000000000000 0.00000000000000
0.00000000000000 9.08242949067429 0.00000000000000
0.00000000000000 0.00000000000000 13.29305362564770
PRIMCOORD
 96 1
Ni 6.513600406670532 1.8855577341711265 11.412285848571917 0.03331686898457488 -0.022807741923134915 0.5795888732503438
Ni 4.671338612957457 0.2443200728138703 6.060781362189541 -0.09245147036320207 -0.07246140039452037 -0.7475454159303964
Ni 2.719097682888908 1.5745753550472161 4.739132589957883 0.5813585635562568 0.0944474177473083 1.0776254395484925
Ni 3.389726097309214 4.745006196984152 5.122837072218688 0.3264015463252443 -2.5797528665410927 -0.559400828338243
Ni 5.0218113946640415 4.247752275411285 2.8827049312705224 0.8463056021204457 1.7178031301254868 -0.7544424001605459
Ni 7.154883492032738 6.2026543572638095 2.7651546818532 -0.26805395962428674 -0.27248242770928555 -1.1858418860554352
Ni 5.208464399143465 4.749919791233744 11.685191959354674 0.36152718638378384 -2.2204759096440663 -2.629648465819955
Ni 5.452236801470736 7.883212579775889 12.526855232835551 1.5777733957626894 -0.2262125981084685 -0.5915010513068975
Ni 1.9652651336802218 6.603752599870997 0.19876079097504562 -0.09707739917098765 -0.4813621909662613 0.30675369018732973
Ni 2.613750585474824 1.6832557040132414 0.41952104219290476 1.159040449591875 -1.3287291444716858 0.20638065098420585
Ni 0.6409415860206444 9.31230558234627 4.901361125572237 -0.030956339172198297 -1.5880197560810458 0.5527709817265513
Ni 8.704028045048792 2.6472738320094726 1.7106828240038487 0.6403934061322262 -0.5898216067219456 -0.6817953661177806
Ni 7.0254043799769414 0.7864856990166967 4.736527749235549 -0.7450828133225168 -0.1240518708773025 0.5702904786675533
Ni 0.35245910899380384 7.666360497884461 2.2921081590852093 1.3079430609642702 -1.3199125746213203 0.26327864972283044
Ni 7.701246108813636 4.019656146050366 3.5240416029655792 0.8821665776831129 -0.820755007344851 1.7771927849377134
Ni 7.79206131935277 3.8710040257489333 12.587378725183855 -0.6936777193776634 -0.09041438532851527 -0.3107661537808325
Ni 7.745522951635746 8.734127215738532 7.142211686677782 0.6680294226819398 0.18219993997294429 -0.39115735054539086
Ni 6.8069356256706754 0.5127612613542967 0.4231149594656656 -0.07392590075518882 0.6961927724900333 -0.6565509897286951
Ni 1.663528667580498 6.401468734571706 9.375178699153668 -0.09427669649739893 -0.5061244855126057 0.10776290390929184
Ni 8.929199632176129 5.2385272401160154 1.1744798126343996 0.3164297798245131 -0.5857014139059848 0.1469619427062566
Ni 6.505535209454936 2.04064929684402 7.027252654338849 -0.04338325208164141 -0.5422788239459758 0.05185529410839457
Ni 3.418290337447786 4.349938687430067 0.715056025568744 0.9295206414870444 0.2127901540549755 -0.9176472870882261
Ni 5.962805564392775 5.348406469749225 4.857175107043095 0.49455477839713535 1.9290012571029937 -0.10462744360410368
Ni 5.063563322141629 2.638109660848958 9.575810470563864 1.385362576695014 0.33972114625228594 -0.26233634041421916
P 0.344765383136448 5.456714439114079 12.220809154034475 0.9736513132576716 0.47166141873872963 1.1308339052506717
P 4.049273947987372 6.160257577306146 12.649616071940473 -1.982038487334632 0.9231291361384037 0.18144686385700365
P 2.387389200109602 8.383109488274137 1.590526825621262 -0.27613030887451795 -0.48486429058224884 -1.442523085066406
P 6.391432650198694 7.755985910185709 5.826384751625402 -0.892171768524941 -0.1736523075132493 -0.7256686704619632
P 4.747249557020472 1.01989323303041 12.704702822111686 -0.17958512805791652 0.15740164998234185 0.17852711910704738
P 4.242738774439428 6.081685481459155 8.07159487879343 -0.8910098870063559 -0.6823144718460442 0.98816056261744
P 4.776531309073494 0.985034869389126 3.841453433788725 -0.693199237079348 0.06915290484657768 0.6724761455993838
P 0.19383902253908628 5.8503105951220755 3.568666302829759 0.05595774631254234 -1.1786847061853636 -0.24838424910950127
Ni 1.4792915892940344 0.9927276870035521 2.61669783378165 -0.23856289214370524 0.9598154358158437 -0.09792457766263135
Ni 1.802698731696026 6.5209117622544905 4.9277346837644105 -0.14471531276392494 0.9721382190472548 -0.5009578537100018
Ni 5.947356352158844 5.527911602372034 9.31425648815923 0.06861245896207538 1.3518485040979684 0.1205356301939279
Ni 8.75216492032206 2.15486992768112 10.128442688288372 -0.12817309213452763 0.24371512576860607 0.9694804697094335
Ni 2.332776552747684 5.376244115544049 7.094276441334903 -0.4229228158824459 -0.27852426302799127 1.467270467214415
Ni 0.7562512001304356 9.302587382998649 9.168219199252361 0.6344575002637654 -1.5916280422575944 1.2871032414007835
Ni 1.5529410084621358 0.8950534258594414 11.605353772863703 -0.24364107799756102 1.2856932484271342 -1.4032266014596284
Ni 4.278777853889301 6.697410610780044 1.613683387356493 -0.7417745748848903 0.6484036780312123 0.46852210177879955
Ni 5.599353991221002 7.895664590341861 8.056268279355008 -0.5436355950841864 -0.13560769403570191 0.0938653199915932
Ni 5.260906345903438 2.921635856208511 4.971801722469763 -0.2211704076988707 -0.8122156024152721 -0.31672519957774486
Ni 0.7176953795224067 7.461224749785961 7.012204885479839 -0.04092322057692307 -0.12802833902654726 0.17404105831123573
Ni 5.310678058450138 4.511496939762314 7.044361226405313 -0.3720918492735076 -0.419086215745175 0.38726624302110074
Ni 8.405088967172496 7.37572276038548 9.190803567941892 -0.4507460087423011 -0.24140318980597777 -0.10146472960540591
Ni 4.481116213764373 0.5137121917016763 10.522502048190507 0.7419722927179931 -0.8560639670587902 0.28148591675947654
Ni 8.148655658405428 7.373397658485487 4.591712955312033 0.13008573577620822 0.7628889882660022 0.8890941580408818
Ni 7.215908334478226 6.190284088561509 7.126937765329281 0.47579138174670316 -0.4661209485364747 -0.3638434932217863
Ni 2.1382218347800066 5.639144113970472 2.470846734675364 -0.030132043498690038 -0.1020789661506371 0.6109974694686122
Ni 2.6247857370704883 4.859263157538439 11.359100050852536 -1.6277096184714999 1.9588209115675879 0.8289036045939143
Ni 1.3767146328154876 3.5881499301573467 3.781873605844363 -0.788755828730435 -0.21293644982485263 0.20899674845081423
Ni 3.6599828634660794 2.509311730990425 2.6298973282787523 -1.2511432783664065 -0.49451441207750313 -0.21390986948171548
Ni 1.1458211152311406 3.1469709270631903 8.257166165943602 -1.2960784483162 1.603090277260923 -0.23502376864219524
Ni 3.7933492552609245 2.684121247666765 7.079561089388158 -0.22071969331469726 0.06545797249349372 -1.407512630429492
Ni 4.110253378286377 6.788879756228551 5.978789731712289 0.7130095869370559 1.7538301989523732 0.05447499111942876
Ni 0.8915294432922662 7.525137804747846 11.473845646102992 0.7174295703816225 -0.317577263165395 -0.36421347496669537
P 0.034256198578903385 5.53413306644037 8.194875232854132 0.7077074579978522 0.2482081285429532 -0.36271735003714306
P 8.511262565652594 1.4231803410981374 8.065360699324078 -0.40176520796822424 1.8519859187892038 -1.046784800018552
P 1.9299526485740957 3.034503205080381 10.342194937060786 -1.6978243730107148 -0.04139784622049644 1.285426625029309
P 4.204910456418076 6.147514929002674 3.7829907446478748 -0.9789197607454623 0.4191499791035749 -1.169124059080122
P 6.764093806677466 3.829415581998689 10.308457345194732 1.0341555412903158 -0.4782249308888603 0.9343162631034749
P 6.420514588807186 7.734133585297505 10.148448555300527 -0.3733336921004086 -0.14371721051671377 0.8782703279525004
P 2.4454440881750235 8.47369763808085 6.014787940230327 -0.07471651497728424 0.3009365692849204 -0.7987851879419792
P 6.97370719241931 4.004206933816436 1.5266010552583609 -0.9791619586632556 0.45194825658051846 -0.5578005737306587
Ni 5.530027808398198 2.9000378393406177 0.22882272370466683 -0.402502600354881 0.45935200524375724 0.1233964966814907
Ni 1.4765577780756847 1.127102228450347 7.13442168706988 0.853550456608317 -0.9275545188996089 -1.7011770915330315
Ni 6.798225575975003 0.6799542528223045 9.228117820465043 -0.36989355607060814 -0.08780471561981008 0.2705700411779211
Ni 2.900610032386319 1.7656060904477184 8.964077068918936 0.01035871752650474 -2.8084476076414666 1.2054398627920209
Ni 5.985584297069257 2.0059544169300794 2.459733474187747 2.096122705476261 0.33997542835493705 -0.020319171173326298
Ni 3.9569783014728515 6.7080370530573505 10.396550551673604 0.39199193063154425 1.0017992364467971 -0.24739128906861263
Ni 8.308978700353302 7.359946580696863 0.11388730568190555 -1.2824595719811849 -0.46430240727049715 0.30824184469708205
Ni 7.545809413827461 3.948023026186164 8.242530739374669 0.8495976426081562 -0.5662538467043345 -0.3990804620472095
Ni 3.2135088040918633 8.423299237912667 12.452081408920503 -0.830494603230118 0.1704075753237065 0.07248402610233969
Ni 8.986945717645458 4.575491736587872 10.253610371156956 0.5791517857129251 -0.19593323039863675 -0.33953988347941527
Ni 8.8306007797296 2.379632805490098 5.962093501935902 -0.4463355383794313 0.7536232466933601 -0.3824924757815413
Ni 3.581428932477683 2.8442808058872977 11.754461831115837 1.013591601096035 -1.6734765402939695 0.046352876232926624
Ni 1.1206446212202914 3.2234994763183904 12.631697347180731 -0.7096537830909455 0.3017683211575964 -0.12471984347860457
Ni 3.024022081671824 7.929896266361662 8.153187790624552 0.4217704474455575 0.6450357900002439 -0.8519211485350102
Ni 5.602514676616303 8.023908492013286 3.6343477067757397 0.42100220182096526 -0.5320700017337741 0.2866126964630806
Ni 3.0560285625138994 8.385734310340924 3.6407144897128267 0.6349053864344614 -0.5615469281469684 0.818455669787713
Ni 3.4170732919220086 4.105739410925845 9.222547566577289 0.12723978168698089 2.375900638405695 -1.2010502183647573
Ni 7.6022112997608575 6.220564907837184 11.322676784643406 -1.428850986895952 0.18904447369860344 0.007652888559567465
Ni 0.6266830802675304 0.06628356900836145 0.2963896399726722 0.04649762934090702 0.5568243258603185 0.6452448206872564
Ni 4.493350246027221 0.14486111431292983 1.5988617709869748 -0.09714244808096818 0.19644693681026168 -0.500660377074241
Ni 5.926875474094463 5.614757791308447 0.2733411591460733 2.344090178763318 0.28827671442906483 2.1728876183421417
Ni 8.074624777206859 8.838838543101836 11.215468697466397 -0.35050898089640925 0.6526462553576502 0.5006315807188346
Ni 0.18519254984849162 5.027833045287848 5.974775297963085 -0.9756984255946873 -0.8367123020050556 -0.46533213408659213
Ni 7.985934855123184 9.338190505842274 2.4741427482671883 -0.9794157265452746 -0.25245173431065554 -0.15079648596099837
P 8.751483738124799 1.7105938161967396 3.7806511108610086 0.028525875353834742 1.7046254550929483 -0.447210741895533
P 1.8376570020595755 3.2886568240939438 1.6023848453112202 -1.0926779630062406 0.44696931530868833 0.6234932879427778
P 4.850307882251752 0.9581327138118766 8.146927272110238 0.07092233804217463 0.4352250302885666 0.15103919809942373
P 8.383336549006557 1.6098787577240454 12.538912157727111 1.0966739715395113 0.11261611823653508 0.04273353431278447
P 6.344776210900811 7.659203543598548 1.3940293760269895 0.47239521158096065 0.461382919630857 -0.31186787148544354
P 1.8384017612619166 3.3237422484676484 6.072785608991178 0.5194803379942214 -0.18601237174049898 -0.26240138932419965
P 7.091070343793118 3.8724027198606477 5.870796922644035 0.6638051001879471 -0.32061322177824136 0.45146437496556435
P 2.6111893404131146 8.616564250920193 10.157089578533544 -1.117356182479211 -0.7401678925194026 1.097153482279091
