# total energy = -381166.9928323701 ev
CRYSTAL
PRIMVEC
9.30833989151449 0.00000000000000 0.00000000000000
0.00000000000000 9.30833989151449 0.00000000000000
0.00000000000000 0.00000000000000 13.62369633265169
PRIMCOORD
 96 1
Ni 0.10400766569748705 7.56503669676728 9.326632559078162 0.13465638586602618 -0.6494658007471396 0.0356966820706611
Ni 1.3132485053696716 1.615806782543646 1.1150208932845806 -1.0624813848182024 0.5640753509957769 1.43507331365658
Ni 9.105455235192293 0.14187213037532032 3.2265684449104435 0.18405319113159915 -1.3828356965081023 -1.0563580455292838
Ni 7.018897783453491 5.366229975263495 12.463992667754535 1.1036252060463638 -0.29006208846426174 -0.5899853859933194
Ni 4.2232216966731375 2.4849078538942377 7.750725044294746 0.5829475053099316 -1.0760778925557144 1.0238109648311982
Ni 1.3100743614945696 1.8991712630300515 8.851452050967577 0.1276205620651673 0.10185759416845037 -0.4710857487409177
Ni 6.487801147272151 7.920959686070174 0.663309502336151 -0.061285329173042837 0.5091550448088135 -0.7829047692662968
Ni 4.013123158828756 6.510913755019596 6.7018091878365995 -0.5733480345469545 -0.06597604978049283 0.6598756832265539
Ni 1.6467104707117977 8.47897604098112 1.7794864914250945 0.983813341392338 0.6399879431636913 1.0485591183101555
Ni 3.7222747731353643 8.752734314783932 3.51582603533036 -0.96516255906037 0.9603941911374492 -2.047718346030944
Ni 0.6894975855567166 1.7786934208733094 11.4314660051993 2.2193664786299716 1.1654700072673025 0.019954074524423698
Ni 1.7832638157198644 8.263804457940461 6.859121992288223 -0.45135895973595164 -0.11705461362386292 -0.673150288848273
Ni 6.337890334637187 4.846442971950921 3.1094993167920073 0.7168706125543589 -0.5352573983228202 0.4852715533229966
Ni 2.56294897485863 7.046171219095865 4.69175605015961 -0.6708746054402188 0.41368278534141656 0.06137686044558462
Ni 6.696754759319941 3.00533713265368 5.835451284227922 1.171033360287693 0.04471919728424557 0.38165635303349105
Ni 4.716573014926208 8.791056749780402 12.72210734567319 -0.6249238497417173 0.7986746305060438 -3.0282211349928105
Ni 7.852636471867092 2.1496028372697946 3.5250766634332242 -0.4374045544383886 0.6141951504703035 0.6388754268258029
Ni 0.4275636958141469 5.060367237457083 13.38895960214091 -0.11154911042460143 -2.0746115708773627 -1.2044651575835772
Ni 6.876173009151604 5.908189444002736 5.3964690479692345 0.9589451173957484 -0.1312674147891352 0.8498123297221236
Ni 3.043231384018904 6.665385654161305 2.0963051451875048 0.04079826496328458 -1.2761806809510086 0.6979730043189076
Ni 4.777002756970678 5.509745958449206 4.759138191207931 -1.7550568722706226 0.5394601235502581 -2.3703105459124276
Ni 6.97117392524924 8.214889132240572 8.918916105406224 -0.1563230722061824 -0.2917111940319105 0.9750322527655981
Ni 0.4193462934301577 6.245076878394825 1.659039366789724 0.781249493051061 0.7307666538101608 0.37496582838719295
Ni 6.925702685278933 0.5011759086970913 6.208753874789476 -0.014123840995891803 0.6088925073104675 0.7196178362821929
P 9.375173689517702 4.318790421499164 11.091323444375764 -0.7091081950001207 -0.6917259949679313 4.867993028214326
Ni 3.4829573566283845 1.6679521021574968 2.4717197980518772 -0.36191876539524764 -0.43771745769311715 0.11883870210747921
P 6.529511817959346 7.769568847405471 6.913276982466986 0.7186778409664268 -1.8722109875868271 -1.3723772201789395
Ni 4.189367264785316 1.7628971682162753 13.565182298915907 -0.3656579207227057 -0.5633994079746749 -0.3248470573539309
P 0.18054362811465322 0.40139609094116274 9.874958932247226 -0.06941978535471915 -0.8871334347700851 1.7825442790576143
P 6.289989617976553 3.055918651179504 13.35451967567906 0.2895764070770948 0.03316106013300096 -0.9148627823645535
P 2.8642506261582965 0.8279898577471405 7.285407653046501 -0.313220528858596 -0.33934293697726076 0.08399948294110694
Ni 2.249444090068467 0.5885467786527298 5.12752318584803 0.5015036989111428 0.059543406781271645 -0.5066081100172437
Ni 4.5260685323812115 5.469468772092703 8.843386374522485 0.4898704855475886 0.1838341331422576 -0.15649456478704016
Ni 8.80522404297074 7.296025676267408 6.686442049644792 -0.630793678258933 0.48263077326603976 -0.11038105825842925
Ni 8.926800269225026 5.729515861355849 3.756679327905938 -1.5008261916826733 2.294949712482925 0.8684865090928592
Ni 3.881680092376206 4.570283146477212 12.87734904451716 0.07414598718579489 -1.5270473301627314 0.642594527548603
Ni 8.785927854545266 9.287051636539422 12.100893879292355 -0.5946601657611694 -0.4865591617861684 -1.2828750622520486
Ni 9.056000025783442 8.626885560557003 0.5987040390530571 -0.9459206801116224 0.2942061925396223 1.1327828014469263
Ni 7.395680762269886 8.129317564370144 4.610204754252985 0.38369292384754566 -0.4077419943769494 -0.18177236551722242
Ni 5.29801846113813 2.720492626137535 3.855723786816901 1.002202385422487 -0.8517069756416751 0.42750966392217987
Ni 3.189707419264094 3.2187308227906892 4.583106315399032 -0.3382882704605013 -1.31059026877913 1.5427511140512336
Ni 3.4781077115875387 0.3951325090832263 9.408347681765436 -0.1982135417923812 1.4333002809165574 -0.11818872722830613
Ni 5.706822128899839 0.9451408992559016 10.878534796326383 -0.6266120360774177 -0.3019156453687381 -0.3513361047833949
Ni 4.83615725646122 8.79170833356708 7.593834838470482 -0.7395364295829909 0.3033816883913033 0.343168481370938
Ni 6.173281653442732 0.6521320478926823 1.789963027880894 -0.1773994332605074 0.6573621727760808 1.6984789758755783
Ni 1.7867358264688766 0.1742009253683344 13.28392150322649 1.4148122494146989 -1.4396244233623723 -2.5711144741398044
Ni 7.541784463922689 5.889731006160133 9.973268032313225 0.4760839732864575 0.1380597551206203 1.3736602006564216
Ni 6.67289748438772 7.701003616367338 11.901525064746599 0.5863341623939772 0.24292939664251714 -0.8431907106405478
Ni 1.8500418455145387 3.9501522400162425 1.5373933279868668 0.45739616706896713 0.35560747846523916 -0.48445934183434636
Ni 6.245114111754065 1.3293984749394738 8.42810875642314 0.37159176970863744 0.32421636574846746 0.3355950398990543
Ni 4.812635081762149 7.924580630256141 10.175933860819574 0.6532021278611203 1.0731002979846294 0.3255407409868458
Ni 2.2364310310145283 5.917656025589186 9.735371068461204 -1.0093094287809135 -1.505028659799795 1.7951002613457536
Ni 0.4294337412819125 6.47278679515913 11.560237578126472 -1.3676978124253996 0.04082063356078776 -0.4941883961966521
Ni 3.2042005043477726 1.5359691519959848 11.46616563434184 0.02907609143034992 -0.9065730315519355 0.26126033374122104
Ni 8.843406852870066 4.918750155592548 7.063668105436128 -0.028267993706757772 -0.5404127172715144 -0.4296303098096085
Ni 8.857518296021546 0.15779590728774703 7.956470071610139 -0.6330559919305484 1.3593797794780074 -1.8762404204611947
P 4.410151776731215 3.405242027557331 9.692293002655965 1.4971155756003056 -0.02497852432220859 0.5547892977081607
Ni 1.952442891760874 8.128433272088223 10.985495067411502 0.8384151436287753 0.9982413438922096 -0.009110704052016569
P 8.699388219334631 2.5111201387983084 6.837487548902556 0.02839706308545432 -0.03358580637524538 0.2204738958524784
Ni 4.862676716579011 4.233377095405502 6.486991321708708 -0.1884870585332367 0.02209066125145228 1.0836024830675337
P 2.0792597133280113 2.796737237518658 13.147235048959143 0.967501748716508 -0.015842366348895295 -0.826597582168557
P 3.8648040723012484 4.421675501415604 2.9824721267451713 1.0487488657234583 0.4176194013916614 -1.3942832762234116
P 6.17539464657953 0.6024134124672162 4.130500392994892 -0.6843070767960409 0.45131987896790016 -0.6482748657628319
Ni 1.792851405723839 4.98471835982378 6.010502061020881 0.7474019483739968 0.804589196218266 1.2021362523400845
Ni 6.61221641716839 0.8037071916856173 13.06963421246775 0.956636780977546 0.8739850703135851 -0.015352571196670333
Ni 3.0767879490328154 7.579557706870387 8.71773495709952 0.03348193380752943 0.6852177615357683 -1.1214738041920105
Ni 5.27267185183636 5.902930232010266 10.963628846364573 -0.2722209465177828 -0.7356334949841589 1.1219314605547193
Ni 8.168878008561302 1.94166383426126 1.1549285385506396 0.33390839622525076 -0.9384930201889836 0.17609485551647092
Ni 0.22404429254725022 4.507005052450979 9.23392335624167 0.79439991439009 -0.1322464908729529 -3.6594994661976457
Ni 1.8086569667206829 2.6550829222948837 6.58900514101896 -1.1795719938863234 -0.6264513421298372 -0.8722704016153235
Ni 1.9840447054147519 6.766772091368385 13.410472106275071 0.5905060343834797 1.143030961537496 0.4758086081378838
Ni 2.7233316697794883 4.115338038278898 8.12529543073838 -0.9952526935775312 1.4301676488248465 -0.11118015712095691
Ni 4.631522714085124 1.2243445518473783 5.8837885620256305 -0.0442527991707883 0.11360496451236565 -1.5338157592348165
Ni 6.149954953879663 5.531750873759299 0.9096351678858424 -1.9399155900226528 0.9415742302174687 0.5062805514744958
Ni 5.153143460340205 3.024307529185816 1.525418148821708 0.5962131120705861 1.9620880123546338 0.7981673518523221
Ni 7.707845246127454 7.264237695817337 2.4116121245648228 0.4789057590059687 -0.09260059434655665 0.34550664258581143
Ni 8.46719168278206 2.926476877786035 12.635583534640233 -1.138934165760303 0.8719371866456209 -0.6498404104777389
Ni 6.7758849560420655 5.516122171218839 7.916089562681747 -1.782526281335485 5.667704327515 -3.410941667624758
Ni 4.473606729213832 6.789279657028202 0.159358777541793 -1.1438642560720689 -1.419909461431948 -1.4003734482815495
Ni 6.214927165751259 3.658559187138076 11.103598352082793 -0.774279489491131 -1.2191106754108938 -0.47317708405230763
Ni 9.180052270427103 0.8376742544851359 5.4537832886794035 0.1974319264313503 0.21518230843623587 0.3483034886046582
Ni 7.786258700684233 1.9558497441312186 10.255795693050741 0.6295613485137287 -0.4460437181706254 0.012627458956023414
Ni 7.838999754045905 4.302752152007079 0.9935275112546019 1.7178404111213255 -1.4305129479794074 1.2951618500392017
Ni 5.369320344080311 6.982818658351154 2.6232428151418783 -0.5891019549471015 0.599825769122509 0.647463168494814
Ni 1.8900490900165612 4.915110594726961 3.7825378958972404 -0.7595874346965951 0.7899560196861234 -1.5296580283127013
Ni 4.891188161416073 8.06199965086651 5.146133349629531 1.6257995459329808 -0.4282971928204818 1.161370126166316
Ni 4.204344383539097 8.73749656251548 1.1541615313503215 -1.5661592085625287 1.2037444773674688 2.499823182793985
Ni 9.184659898632896 3.9430592850812634 4.9898016441938475 0.12194382339536418 -2.8119607630010477 0.4315334403695923
P 0.29074599395548506 7.687450673604437 4.600367700742111 0.9072723716118052 0.705185720017263 -0.12654892626754335
Ni 1.2294734470825144 2.0404439363216285 3.3735406146674896 -0.5136254218753412 0.9538697597553703 0.9281672127829435
P 1.256895816161844 6.287792849781467 7.763872143441944 0.24708635623368416 -0.561592179562607 -0.1388367424959609
Ni 2.4275777890063925 3.3795044679835544 10.344786214133263 -1.1791469905337628 0.903458911402986 1.034038041875845
P 9.214251110887883 3.8952330351391056 2.7146581587448244 0.3878128595531901 -1.279824962571815 -0.5576959298319943
P 8.254710209946401 6.782652119083706 13.54864324074206 0.3746284996524323 -0.2723399885941503 -0.3056614855644155
P 3.214681694973477 6.207499110583131 11.749770269995336 -0.09595974062677667 1.1035542435991124 -0.5356181240963486
Ni 7.059789320237433 3.7785902289839535 8.7069316979164 0.766837431390789 -5.397108061084833 1.7118407418944646
