# total energy = -340861.05812370096 ev
CRYSTAL
PRIMVEC
9.42469508262877 0.00000000000000 0.00000000000000

0.00000000000000 9.42469508262877 0.00000000000000

0.00000000000000 0.00000000000000 13.79399391620515

PRIMCOORD
 96 1
Ni 7.763526775777101 5.066848135926655 11.18641871423981 -3.4600289120697125 -1.9373041205417345 1.9580356966621313
Ni 5.72323103969518 2.4947262690851084 8.53656478801982 -1.990696420119946 -0.4138185395883324 -0.5856335367825268
Ni 1.414326324027963 5.7460388023072815 8.025773634687447 -0.46486110798744457 -1.2879270228536595 -0.5115569693820867
Ni 6.4429667452317 6.24649954712762 3.912432288845592 -0.414301392762022 -0.8216312393022172 1.0209920073251642
Ni 2.2468662075414447 3.4047088738314994 3.0142494026076108 -1.6502383957016353 0.4499798200002379 1.1733290983004052
Ni 4.0838618414309495 8.555615867087631 0.21874340790158606 -2.5910340958818665 -1.1771104197197082 -0.9243928333421757
Ni 5.5413438452113155 5.383065512439563 9.472611387602479 -0.41301764095359195 1.0992023943883198 0.3518395267823747
Ni 4.266088324945407 4.505748901583067 7.473213174280457 1.675491513841469 0.49463011171976107 -0.42393608763830865
Ni 3.090630903150387 1.792643017834731 4.539507217657566 -1.4867000366939365 -0.7055724139327203 -0.8474235177749728
Ni 7.487703643295377 8.132409349594317 7.466633794495536 0.22523763578970887 1.149139645538395 -0.3560718196961674
Ni 9.384527242912824 3.3935594592983933 4.909186178227149 -0.523824216785214 0.7529784140205097 -0.651861811783142
Ni 6.089267355533531 9.002082532567172 0.8828602166285784 2.962527649449743 2.7906404042567163 0.00960255608677056
Ni 8.760979977549491 6.881987901428777 4.487779777535037 -0.23020063622193904 -1.2706016442013341 0.09124459453929448
Ni 8.178251067505585 8.45771213237089 13.299976376722109 -0.7254475555900926 0.22867211539255455 -1.547289368241219
Ni 2.493331414181558 7.6867343585194945 7.898137813725914 1.1052786824893868 0.8725496234186392 -1.2531158287117452
Ni 5.259781073295389 0.06920553754572877 12.109830567310988 -0.03165747900428096 0.1718869880827104 -0.8601237389504607
Ni -0.20714820528106173 6.561981797407577 0.47132241437908395 1.5864822363905968 -0.021760017384910908 -0.16522937355687672
Ni 4.205006874743328 5.608212058324068 11.64475201356435 -0.13255810857610073 -0.7175522120024159 0.15544401203533875
Ni 5.6638177605601845 1.8326414246635578 0.011680024878172636 -1.4978799645701557 0.10614876534463655 0.6868036179656495
Ni 8.168458809094851 1.53327540333678 0.7335937774971958 -0.5518453845884883 0.07611236688354633 0.0387660650246042
Ni 1.5998985743718823 7.388885713135093 4.352349733565153 1.003740162223252 0.0987344751584364 1.0695647740275451
Ni 9.202998186850142 2.941871512625835 10.674634198023421 -0.34389893177905934 -0.16772154385111115 1.828388076864606
Ni 1.4857843637490193 9.069063842023455 13.555109475624349 0.4295529196044538 -0.26838151816703454 0.5572110197757759
Ni 8.626517849786326 5.230960355085552 6.669823873312112 1.8284855216744185 0.3108635985906453 0.39370891332265096
P 5.956718440915101 1.3918578504464545 2.222212147121198 -0.20101244469375704 0.4451073223992851 -0.18472244928448187
P 7.1754163647201725 9.22546666043165 11.335946217430843 2.2966582105335998 0.8487957155321509 -0.37056744220918114
P 7.100593708779067 2.8485387551268087 10.071946610754868 0.6353033932038284 -0.09542366561764858 1.9211642775570783
P 3.309632547703035 8.609506274780193 2.7074576638584875 0.07981861209053995 -1.246979119686388 -1.0000809682041099
P 0.13734891193179477 2.530672056937404 12.863230341969066 -0.01821729433897508 -1.5357140046987938 0.9087111609408608
P 4.189437278117215 6.539701817731953 7.65466023549408 1.4862225828368856 0.6608722428118683 -0.015341772563392935
P 7.572855765278988 6.33413036397362 8.640696361387008 -0.17873383580121477 0.38554823188872955 0.6798834938070485
P 6.358342406184567 8.404481453348927 5.143159893724253 -0.14035086514764217 -0.19299703058844828 1.2348897926220217
Ni 7.461352195252634 1.3778056297627173 3.841489779957132 -0.18295430164046556 -0.7429246293289334 -0.19957159848217243
Ni 3.996183901108477 1.5746780897644508 10.080113109227339 0.2182887152757015 0.21471128233708828 0.8910800781226589
Ni 9.322324253970729 3.2322934981183624 1.9556572599918465 -1.066703650429666 2.275972914270106 1.361810757517003
Ni 4.871436503695531 8.782515406296866 7.067449882837754 0.5363323765545537 -0.38150337239539456 -0.36538435534634495
Ni 5.772720114685323 3.4586275556099433 11.881511668990438 -0.3878917924202417 0.3201159704268487 -0.6857435521322512
Ni 9.233892338024717 5.895156331253014 10.084374956439403 2.750655122113031 2.2781758354586956 -2.339281444520765
Ni 2.888801053423874 3.0062233320950216 8.133049286404797 -1.0716874767975026 -0.8427641646260904 0.04154722731416716
Ni 3.9285334382863004 8.40499981159011 4.737064853007192 0.8549892459373726 -0.5379619417381768 -0.34860379345389636
Ni 2.4225802266075713 7.023085014679098 10.285684562985674 -1.1203474038970511 -0.7289727951345317 0.895404930750258
Ni 2.0080067300037965 3.3663880627650506 12.191573777006667 -0.30483616144964276 -0.10649149339603595 -0.6591295490891487
Ni 1.2308840548205457 7.843570712911225 2.2312890711590967 2.5979655328943774 -3.3852154665032477 -1.2268574092358484
Ni 3.905367537253017 3.7135844127101825 13.48175330227103 0.9440651149601226 -0.8223987135958611 -0.3316566240765966
Ni 4.284626700589211 5.98102473007899 5.455193647996042 0.8403524698608044 0.46804259103921975 0.009456517427209519
Ni 8.098631241659701 5.334085370995311 2.3601661244908843 -0.21176222701109337 0.4240093640784052 -0.26619068116330286
Ni 6.7850454856320495 3.3884701238394945 1.4116497105643941 -0.20357506321461072 0.8885884220490569 -0.25228692659801716
Ni 6.561925249235811 6.264472441053768 6.387267738512171 -1.5340391880995323 0.2129595897533042 0.18457872461776598
Ni 4.248577241088678 3.129960156613321 2.054740024089899 1.1920372162328696 -0.217491930406019 -0.02820294479677723
Ni 1.5610971038454267 0.2213606457848012 3.570589165827598 0.9795797629269647 -0.3692667211198866 1.0973306312869038
Ni 0.5866269640176117 1.6889619449026105 6.675893377081613 0.30308086932143286 0.2409398770163141 -0.2022943967299742
Ni 5.243127636710437 1.0960260898550231 4.992184757336021 0.6537839685065192 -1.3079674864443023 0.08622965782320634
Ni 7.362920677599415 1.6778502291506816 12.339734699380033 0.2163426472929242 0.8400174551188888 -1.6565669090228246
Ni 9.048244690118443 9.00046148497656 5.523280474210342 0.10233864756992697 0.4758001234974515 0.27815376706245
Ni 4.853614404894091 5.494305190997678 1.0239130338110163 0.8484589010180227 -0.6738552853350975 -1.0177660441886989
Ni 6.043576432746973 7.147679486469175 13.105839905764297 -0.4065189206031257 -1.1580387478002379 -0.04385530662205351
P 5.0676398103313725 4.881888490776863 3.0290508865672408 -0.3485647126858448 -0.4862891959542334 0.9132990374218594
P 6.682438827963474 4.836998667090316 13.444605865768716 -1.497608198966008 0.21648380085647875 -1.0706389809283303
P 0.9806960935392008 7.067192588656221 6.270474087017151 -0.9671297100890699 0.19816469083231678 1.2556553073041472
P 8.500641619436232 0.7211446974830117 7.768060054213638 -1.3916280979887516 -0.6330066267498518 -0.11202245051659417
P 1.1021804158821729 3.8597802861146957 6.6812315244962805 0.7367920340686342 0.6898974263996248 -0.5675188294596871
P 4.065314041091852 7.750275654193375 11.7464001797215 -0.47549879020694885 -0.6051600368512288 -0.42583664709513114
P 7.271670777760419 7.130328622432447 1.2341336897580057 0.2044368969942737 0.4417674593927747 -0.20582117893631008
P 1.4476991700649269 5.884525274961093 12.722324550033218 -0.09630658244323413 -0.9214427495749163 -0.17345896055552062
Ni 0.9649945511789688 1.4171443079209458 1.5504999764565641 1.6463760845327515 -0.6779127432339228 -0.6397236337587111
Ni 9.401086432544835 0.597190162503415 11.922687220261517 0.8020679724583091 -1.0657901374764611 -1.1398854739299789
Ni 1.9702608253502976 4.673348258000838 10.100652347682114 0.8504970144939741 -0.7714906138920842 0.7508228011300876
Ni 6.258723376924271 0.22043231329831692 9.074917520270718 0.6456096602258429 -0.1927023821661649 0.5809939811279865
Ni 0.575582163602272 8.58596338593514 8.26560951065758 -2.5781163593789342 0.9841105609177826 -2.2548613291024715
Ni 7.20144737312291 8.22320686405919 3.1614037675235505 1.8121579881589889 2.291432443358286 -0.16821879520250385
Ni 5.2297351446972975 7.539567741499673 2.220985051793886 -2.288265358484214 -1.553989148858898 1.335915634917796
Ni 6.713813638598056 7.360206365354669 10.694814355587486 -0.7542598518360946 -1.258596135100026 -1.141105462380009
Ni 4.400314835326214 3.2657040429365036 5.406707360585207 1.4249544800550233 1.6920185649622148 0.5905438295999507
Ni 2.3232533629013976 9.504805204258131 6.086793373018788 -1.6279423033075966 -1.6642370239735724 -0.5163983566347881
Ni 2.452833498502136 9.292118105552635 11.185660026268621 0.22099762956643226 0.7069780360309953 0.2528127171945001
Ni 3.1935485757636726 6.1491424447379455 3.199144959829402 0.603986842478734 -0.2722178611939892 -1.3113970809511415
Ni 9.163216548013082 8.936693996615617 1.4286716527353516 -2.841048681505939 0.7994367054830489 0.0590744375646531
Ni 2.725612454403815 6.319672881392231 0.6009411912305291 -0.3477375887988592 1.266899769869715 -0.2991447674918203
Ni 2.2800788337584064 5.071965745471436 5.120413391631564 -1.800682897639854 -1.2847645659652775 0.43164605468805656
Ni 6.911411800137448 1.9460393584440574 6.463962138938716 0.9413040072752177 0.558155385966916 0.24078252550284338
Ni 1.9694031780785204 4.136875752461145 0.815501919360524 -1.1120658806145494 -0.033257733611865306 -0.24997036264969852
Ni 0.4178419809318229 3.5608006772949827 8.635385545588694 -0.446086912703735 0.24304149674034917 -0.9735397273804719
Ni 2.448875126478548 0.7034262703298086 8.47289154661182 -0.14644900762558005 -1.0542158023753005 0.2681233794096414
Ni 3.3195284777620047 0.9468520127375242 1.4870067467286843 0.21053889612695356 0.9623777972263813 -0.2405986916268114
Ni 4.1769684062429135 8.127697001947189 9.353845147382371 1.9434976509469564 0.786324336470807 1.0103977767490857
Ni 7.277542362928742 4.2170327859388 8.480727238279465 1.4149392619108663 0.10395304324489839 -1.319170040028341
Ni 8.739331452458583 4.341250269917107 13.49829270004292 0.5586138136605734 0.2898713126096943 0.5037508430741066
Ni 6.991116448240978 3.7049608165159373 3.7657331367123645 -0.616287514222958 0.02610235351400666 -0.01131208257870955
P 4.1145109505278725 3.8255026693294836 9.974450965344367 -0.18270747573698212 0.19718150098344103 0.2172790430642645
P 7.0124728077777645 4.139637188182362 5.784704557221501 -0.2957974482861422 -0.30905919839205487 1.1044466735063945
P 3.8142778572340235 1.2668109932822533 6.794576679983132 1.229115866252722 2.02759894957325 -0.05242453634830326
P 0.6297760464833083 8.29290248576022 10.243723934596582 0.11025867374795204 -0.23235316378856755 2.5117045076126034
P 9.57077807131793 1.6354862238029966 3.706335879559369 -0.28958180639373354 1.1012646762339873 -0.16354041589022805
P 3.6667154030118425 1.351887717703511 12.813876040121631 -1.323680269193869 0.9094295271641242 0.48713148934987066
P 0.7111073969946281 5.320523234466874 3.033326870822245 1.2390058716729242 0.015270810116141443 0.27862813559570726
P 1.7251621995278514 2.215255779524507 9.928820360607691 0.01604548349863688 0.06287478514734977 0.6391487350918477
