# total energy = -340892.4826646342 ev
CRYSTAL
PRIMVEC
9.10555874275786 0.00000000000000 0.00000000000000

0.00000000000000 9.10555874275786 0.00000000000000

0.00000000000000 0.00000000000000 13.32690562401066

PRIMCOORD
 96 1
Ni 6.346055309424589 1.988817892674006 11.499120366677724 0.1622828893340431 -0.19363852082718908 -0.033138177314865506
Ni 4.435199209263447 0.4121184916271314 5.9982803369066495 0.49243901760571324 -0.2485806813910235 -0.38337076462143654
Ni 2.6056739582876483 1.5976795185578407 4.708102815848627 0.5689470772657814 0.5039855847927319 0.2450389867863522
Ni 3.4034756838891025 4.199246869928495 4.761649874156313 0.9789950940680882 0.9483192622507861 0.7305049155083418
Ni 5.44220114310866 4.67399248287357 2.6257471621646173 -0.10888210511539959 -0.10037972407134325 0.07729841677184753
Ni 7.55271482612773 6.122331735254876 2.4779785153980014 -0.18262802864929836 -0.17985972187554186 -0.2928975010305278
Ni 4.979584134184508 4.526254795006106 11.386548346024076 0.032298712132705666 0.2058183507228326 0.15136907063501673
Ni 5.5790850051556 7.963985590251596 12.491028926630236 0.8345723728439175 -0.2687335021898146 0.08030172237454557
Ni 1.806315182169995 6.708556701824688 0.23681281462022 0.6450787274230374 -1.1727122906520124 0.8412279304872222
Ni 3.01770048377318 1.7593487110439314 0.559556606617502 -0.8682599949043498 0.06064203916208912 -0.8092374936235547
Ni 0.6134514972627244 9.229212059704414 4.727546825628115 -0.41345447138069435 -1.3472894239723763 0.34083289125922595
Ni 8.78690955195945 2.331004783894918 1.4581231750693544 -0.5511283039168057 1.314372875750014 -1.0317518169448296
Ni 6.986786149619957 0.6896868758699081 4.8874559136418 -0.7901082289932715 -0.4298244280982856 -0.010088751694569721
Ni 0.6664476692766667 7.619795476144347 2.3059808878211205 0.6995830291185048 -0.3674741479958381 0.993398928198244
Ni 7.681931807855136 3.7494231708011863 3.727375881825316 0.5314092282213235 0.33375592980778646 0.3683966598101075
Ni 7.680420285131809 3.7803456477193933 12.611023798633624 0.514400866588785 -0.21543144833256445 0.2090314583434916
Ni 7.731220196417638 8.971761496575622 7.00821972394792 0.6361449152685172 -0.8208910187020829 0.41110062643653716
Ni 6.74120012931343 0.7152543737905892 0.2848054821976032 1.0900176425652581 -0.15514267874483603 0.48124494866210665
Ni 1.876692044390496 6.546550603671349 9.203307656116486 -0.20064734804485443 -0.2962952138581671 0.4381347477361938
Ni 0.3515091620892454 4.975686955114721 1.3744039378699817 -1.8605780313335893 -0.5273530558740789 -0.1813537899225651
Ni 6.455121690027146 1.8706550590557578 7.2193976595140095 -0.3025882459557305 1.0966438896325243 -0.892444048349721
Ni 3.6520027996151154 4.277691257045796 0.5814873444436215 -0.5426806873700848 0.3752507066174634 -0.3701156993837432
Ni 5.749777806188787 5.504373897053747 5.041781473137745 0.1070576503121511 0.9048691614869512 -0.549557616995576
Ni 5.299817523682863 2.8248720698459513 9.264945003217406 0.37652365979261604 -0.8514205547495077 0.5713369176541967
P 0.20463650228633662 5.547142705677074 12.521133724388472 -0.7677758840446584 -0.7592598761538472 -0.2559389215283076
P 4.032806364749489 6.113590399023581 12.742161142664346 -0.7781433433219115 0.05137321226565346 -2.245779164295545
P 2.4884489972025494 8.432621373393339 1.4697181933578247 0.5341847340839316 0.7655788763933395 0.297680524241468
P 6.172357674061892 7.848663690908519 5.8476061063989855 0.47511775271844636 -0.1748789808314988 -0.9091420778306923
P 4.699023663394227 1.2103563734842926 12.621112757533911 0.06090737700833382 -1.0587486572486478 0.3247892075328019
P 4.018883965689437 6.109429158755141 8.14323215300945 0.6894783365843351 0.45336519153270305 0.4776140367777387
P 4.710678778369288 1.2284582239299333 3.698748916223682 0.40535626775359224 -0.6275196354933514 0.4192664500767812
P 0.34137376484023 5.916136361340625 3.7066926055238714 -1.5254475897757793 -1.2377514304405328 -0.727821712249224
Ni 1.5360530981272094 1.3490977694803818 2.4698090082451696 0.7721215626078637 -0.2907141202259638 1.5701973831876441
Ni 1.8891575540786658 6.435790589173979 4.9712953442143535 0.7677889966707809 0.41998018831435413 -0.09237819392310542
Ni 6.136490878837859 5.985875834460928 9.350836826692602 -0.06013398917741901 -1.2582680623366458 -0.33221481057291175
Ni 8.540722564787023 2.182811818098741 10.136231318180759 0.888340824814625 1.2103864081640185 1.6538754782335903
Ni 2.4027019521086874 5.284902618738217 7.029689720510182 -0.7980326260466708 -0.7286344379585065 0.08257612023101907
Ni 0.5697794172288303 9.010023053704687 9.4238679592375 0.06177820964906135 0.8218837216326556 -1.1791565036154597
Ni 1.5229775160145633 0.7965706540822133 11.660775900825953 0.25962048414495287 1.3190952209263473 0.18194514364966086
Ni 4.118262031968975 6.653258644603171 1.4650534157002284 0.4318404300870498 1.6646782252760493 1.3015908934939973
Ni 5.444850860653771 7.824260793929487 7.927869302722628 0.5761610785157174 0.5941909394342348 0.4290762370783514
Ni 5.328663933246139 2.8030369403848616 5.150782293718567 0.14315208204186314 -0.3250589162544208 -0.6310042516078423
Ni 0.5825053458922244 7.583528036343045 6.912905468460077 0.43937299101866906 -0.6113060018479665 0.4523076968024662
Ni 5.241787798889067 4.2868878712058045 7.386317117074022 0.48740351206433474 1.175874233319762 -0.7039338498880329
Ni 8.315168773343883 7.118625532216751 9.24390114679642 -0.12475378204033355 0.17512889205877583 0.22508722625477365
Ni 4.56502626341533 0.22187969855842396 10.48550233397245 -0.20670538131347624 0.5328346478139404 0.08020813421947476
Ni 7.996820234470399 7.2854848930901746 4.570382152968713 -0.09993132368001499 0.19766126883333698 1.4257571784619767
Ni 7.400069242188736 6.341611796840347 7.025117819550044 -0.1550999984323587 -0.7436892754090999 -0.112529986280632
Ni 2.1607854719075914 5.737776679987905 2.4715281377039915 1.9314276071562997 -0.33422001392839856 1.0598945979276326
Ni 2.3806847114761127 5.295528805594384 11.408697617255976 -0.19481068675841934 -0.23069685913206722 0.2729321136521945
Ni 1.2596356564882196 3.8231964063698882 3.7308933591025553 -0.9525225016988564 -0.9671019421749281 0.30467341061953335
Ni 3.7462089086244705 3.0004636613920943 2.8210122235663198 0.08538864997914973 -0.7123254163858377 -0.7564548026048843
Ni 0.9455576245860666 3.264743393451587 8.057100853343753 0.276702122217588 0.6313966019502545 0.25584019116691425
Ni 3.6963468698717907 2.5028539908670377 7.042802635412983 0.050025182878191264 0.698119557199101 0.20392858989928753
Ni 4.066587987060015 7.08293174260563 5.889879572635872 0.0315237816398941 -0.4664991578114998 0.217447964541961
Ni 0.7597596124340286 7.343687623496881 11.586144921639555 -0.08026007050333274 0.9906650742068487 -1.8103163069645598
P 0.2646475966258934 5.527119582372263 8.132170720453432 -0.41738825921746175 0.0510947617932862 -1.033012171714492
P 8.59130394266707 1.5250809000452188 8.161756501372937 0.20373755693440396 -0.25007192122456934 -1.4112705548100275
P 1.7577006049419894 3.388788417908812 10.305376174256324 -0.07901359969074133 -0.2726899157344013 -0.24230410435369237
P 3.9809866309033417 6.0082846141121955 3.7661437080111106 -0.1262337090199697 1.1888701313587977 -0.223044484793132
P 6.834013087860923 3.8525527272133218 10.496804153274828 0.6777849594068068 1.3792428369505214 -0.6553888510997938
P 6.537918534142945 7.976150616506816 10.429822753846672 -0.9731723167387241 -1.0993116662726745 -0.23364951400248793
P 2.3209977750218 8.458736115384333 5.8533899572053585 0.3551559927501174 0.5263243574992484 0.4358420950472752
P 7.257603672735772 4.092411351176634 1.4851767001493559 -0.5037804107604614 -0.2811568155548319 0.2110520883179462
Ni 5.459437965489745 2.8142367774312085 0.7147153247229927 0.5469505183900322 0.044587813912703854 0.010908676492703794
Ni 1.595876617960136 1.1288069908931675 7.000903407633498 -0.5148891190791133 -0.6073678431358249 0.1648115692931678
Ni 6.741436873836363 0.7845139839740278 9.32345003816878 -0.09117183231983007 -1.2308914700959062 -0.0694102722730224
Ni 2.7141666887000264 1.6745213273660706 9.245073942740786 0.056896713187043944 -0.3296257096894968 0.3658314701860925
Ni 6.894018718865335 1.6915669330170962 2.6983248378925184 -3.184307665708155 1.1224832192931313 -0.6999710085855428
Ni 4.116850670389963 6.948479064698019 10.327591916065815 -0.2645410613750218 -0.3852304435379946 0.4847228799083781
Ni 8.481135789477028 7.292860395535329 0.25925983761750027 -1.5838304005900465 0.19352102141271835 0.17502244838789857
Ni 7.643642934050348 3.8803428919819813 8.387554321785867 -0.2499577642442082 0.3789402396539087 -0.5268403779037185
Ni 3.2535162397295174 8.235130913476086 12.634293053570161 -0.12380118831907712 1.4055274816786631 -0.49626481910970655
Ni 9.1245891916861 4.735892070061429 10.327578257727955 -0.27959384194308623 0.09399644625281876 0.22578888030748853
Ni 8.673026330871107 2.255729131161462 5.952475735054662 -0.015412992120960553 0.7415701721835679 -0.23470289496766675
Ni 3.334801561121989 2.730074099529269 11.580148000762545 0.471024299375363 -0.09862880281850755 0.1761100250251225
Ni 1.0595683234944497 3.5146727651980374 12.88711708238737 1.0144305520575627 -0.631049503023481 -1.137058803114461
Ni 3.0784891928149785 8.373234920371976 8.177042913107414 -0.2207567172002198 0.4451150357087689 -0.22540784281898602
Ni 5.708056136801501 7.614587096639866 3.4867715126147716 -0.6038186923319858 0.08659346892052829 0.24564371024988663
Ni 3.131346960338592 8.495331355294308 3.668990129691266 0.25358301970162134 -0.4201550233293216 -0.1407946375532801
Ni 3.5771824248103727 4.246896257947629 9.282443155129574 -1.2989287732808017 1.0412170761227875 0.03839608327969516
Ni 7.20231472107283 6.1253912029358295 11.607068584687362 0.7690362388143207 -0.17741717387232026 -0.44870223883939503
Ni 0.6781810920554657 0.22892011644804633 0.6049387105516432 -0.4249483309529068 -0.2281632940769361 -1.1267599922916143
Ni 4.4980639856601785 0.3517021999310198 1.6998866818864031 0.9890334521406967 -0.7602713481374972 -0.1086044259739807
Ni 5.90795046418236 5.590767436806382 0.2411315810519943 1.6266019872296178 -0.17634965183975437 0.7528040932261745
Ni 8.159654938453995 9.088358174119096 11.329481989327435 -0.31115850412324475 -0.16352756037442157 0.7856537927663437
Ni -0.07715139779975484 4.813243790149818 5.775414506354633 0.6938296715744954 0.31152797164752155 0.40867247661101874
Ni 7.898580363012646 8.777858626736629 2.659357599973948 -0.30233910605940184 -0.15420165498780541 -0.3380411874467017
P 8.747127366548483 1.6394831379722954 3.696657369419173 0.1152422430054725 1.118649447369338 -0.21337816534796156
P 1.9386189482540783 3.435645622331984 1.6223373711769526 -0.35912269070734926 -0.31207253129708185 0.16281742168127442
P 4.680084101559754 0.911393568815421 8.21970245502785 0.12470081731521103 -0.00028384978900596275 0.5282100045577355
P 8.852005190206876 1.7049065763283957 12.526025230454566 -1.5429611731795103 0.038574517839088406 0.5823602653478939
P 6.450978660875855 7.762233728921587 1.3367415264951032 -0.33756219092775414 0.0744285514232202 -0.40416687543118135
P 1.9620748671413872 3.3071115574976466 5.989297703373136 -2.0726153663829403 -0.6256180475952645 0.5122959044306403
P 6.957193084253592 4.058065184234502 5.892384511799652 1.0565351945370967 -1.1062613581176302 1.4591393534668484
P 2.3563273422899513 8.432830801240547 10.423279499455203 1.4538914748043477 -0.676089573982255 -0.6225913449537986
