# total energy = -340887.27681573847 ev
CRYSTAL
PRIMVEC
9.10807023486509 0.00000000000000 0.00000000000000
0.00000000000000 9.10807023486509 0.00000000000000
0.00000000000000 0.00000000000000 13.33058144657695
PRIMCOORD
 96 1
Ni 6.487013407000464 1.9855683788167369 11.352736607612819 0.23226960293582577 1.1365096154792105 0.31489174591343194
Ni 4.814717097529288 0.4395882496312377 5.815119276726888 -0.19137157916988332 -0.6570163594008878 0.3485857957317674
Ni 2.652106053094321 1.6480141947197506 4.788517734032485 0.8336532034637578 0.12433186401156653 -0.26707205532699163
Ni 3.6571997991743137 4.042644215590502 4.4781684443657435 -1.246069720498241 1.0877339887374042 1.3541555549645905
Ni 3.705727596396967 2.4335852364715937 2.6894983238747034 -1.2885258327799227 2.007683698706562 -2.1219178121624935
Ni 5.2074661861250116 4.440238797452452 2.738901406629094 0.07334046056536402 0.3203915926857385 -0.9612262001204414
Ni 4.85471063311575 4.740559191187914 11.059356563254921 0.19416431142367205 -0.5063219462353925 -0.715690990423961
Ni 5.828518158576408 8.164993152182399 12.014066287436215 0.6482787224175738 -0.14068793677208674 0.6073233630511347
Ni 1.8400578517091724 6.779245834532149 0.48204460735902954 -0.2495348177741767 -0.7087379561448955 -0.7010971517701861
Ni 2.5266514962353077 1.558582054905706 0.12361836993707497 0.6958662423885499 -1.0313612663746303 1.2646346279846221
Ni 8.426759085399189 8.993827526668403 6.780320586797966 -1.3420965669175273 0.706697271565783 0.5232896844379826
Ni 8.697104820602414 2.789428425227568 1.3365637393840488 -0.016321619978158987 -1.2202249915209953 -0.08843746410780254
Ni 7.053389634945931 0.8205351010570834 4.711414277837169 -1.0654546085139134 -0.24843541406241088 -0.8781132335493457
Ni 0.7520068928131797 7.742834105397496 2.7377282872067443 1.0266790304076125 0.26354347334844286 -0.6265811828394823
Ni 7.937974506203679 4.103003395807192 3.4865737689058136 -0.10170898440572808 -0.31988919912802327 -0.1840537053522314
Ni 7.7293177294443405 3.8387964998171924 12.415636541874681 0.8535208889219622 1.251824363593831 0.9976754440864107
Ni 8.651354984744797 7.562457886141225 8.733356761012624 -0.8835369756680782 -0.9249265943584586 0.8904437300902406
Ni 7.046676987319599 0.9104909548989626 0.36874750240181764 -0.46595254127941044 -0.24731235620156114 -0.7797238004351539
Ni 2.229500710877002 6.2391554967489515 9.15120404743619 0.20007039249546188 0.8018550851165546 -0.1221849928718928
Ni 0.05452728296412475 5.058275998717532 1.0563876641766172 -0.3515464210219881 0.7499234292442698 0.072336701891198
Ni 6.604352673445553 2.3280227046002446 6.916398796562479 -0.47085306390482135 -1.208441625732822 0.7681054994699352
Ni 3.73158540726692 4.657785050579905 0.21515174151149233 -1.1023517386505788 -0.053804961635597656 -0.02902672624965324
Ni 6.3816330365301 5.742574409591244 4.570696417189545 0.25185575259786946 -0.06754390848824497 -0.12194022385093836
Ni 5.531522210408941 2.7237136998218916 9.135407010742691 -0.3357274517118605 2.341577696754109 0.9157631826916357
P 0.09857573133653359 5.859567569374461 12.35506241120483 0.6050512791875063 -0.39774220285176015 0.8726067019088196
P 4.3033809368917195 6.556225631305069 11.95486474292279 -0.8826620292622928 -0.7026200161726157 2.8663876744913606
P 2.5412608405943797 8.574992925451493 1.300363714973119 -0.5225800599654677 0.7433349773934746 0.43176175433031444
P 6.554094342913534 8.037124956760323 5.568303329689016 -0.9363471774905744 -0.879175356265273 2.462308987898611
P 4.930262074174665 1.0211421655068538 12.538691122275706 0.11140050066187912 0.5158342566012019 1.3584485259129895
P 4.157150872250261 6.036428073591705 8.127735680838747 0.2591916241376504 0.9212977393566198 0.17079709745264132
P 4.768712235710289 1.1334993176349784 3.721991877083996 2.0973146689018334 -1.113798804145256 1.1322850358749017
P 0.21587036823838185 5.827762188762317 3.608174701326969 -0.6525542098644762 -0.45716836732887717 0.20891035938459504
Ni 0.6560615721068831 0.21529200579025148 4.893376212089024 0.25808245023387166 -0.3015862870537774 -1.3455711557296892
Ni 2.0270829621014315 6.57783908153205 4.686952734105772 1.0511338210158672 0.39117252005404246 0.4516921747056543
Ni 6.167802875982761 5.857272335722039 9.135100979589033 0.06881891854592664 -1.0309185224102568 -0.6365064123729941
Ni 8.591669801711754 2.661842579977019 10.124349416204266 0.8689732189212904 0.8901971612970734 0.5751876588588546
Ni 2.605891705664189 5.256540467550623 6.746980496382515 -0.3751648317718765 -0.5181960719651593 0.3936685470030188
Ni 0.8396174186173649 0.4070569558361646 9.26455397919969 -2.0004550421686065 -0.3757124767452304 -0.9220122489251411
Ni 1.393106638250083 1.447071953292166 11.325528069954554 0.645983498625494 -0.6241342639608864 0.1712328994384793
Ni 4.193273478065771 6.578795428887226 1.582140078088212 0.2690106671106012 1.2292235954751798 0.2936546909115265
Ni 5.952515424227534 7.77892938700286 7.7266581729899455 -0.2896504548481399 1.5498622711747179 0.461794810357295
Ni 5.723338165647129 3.113511773721644 4.747953122453933 0.6760589778546356 -0.6222069650311864 -0.017444163618376408
Ni 1.0750983724788876 7.424379544193886 6.915679259028584 0.6930699105903354 0.07034718226499498 -0.7068258267238471
Ni 5.192656464224855 4.569609824432663 6.997621832841093 0.06240581593073123 -0.776433045499024 -0.11312031156646327
Ni 0.5524909751553151 7.614638019453645 11.163174899711828 0.9975517740243529 -0.03908513892691978 -0.044020114334691926
Ni 4.94964404723957 0.5982717784511002 10.306872407571158 -0.3550822020893885 -0.6527002485240372 -0.7059552511934358
Ni 8.306450588118027 7.430545707617259 4.78567874859812 1.6580023559177703 -0.4147428511748148 -0.6911665229200354
Ni 7.561720132467231 6.123364602212242 6.9183980179383 -0.7329119822879379 2.424515056979289 0.4740075503734031
Ni 1.9226680470562936 5.245137163848903 2.6299105971911896 3.113665835020876 1.5194751742424282 -2.8747910680637068
Ni 2.2751594660341263 5.603876718880553 11.536817989765144 0.9078025330836624 -0.005140920770991146 0.2812156938172254
Ni 1.3457355659236907 3.566865960425389 3.80754762228506 -1.6174910260672852 -2.1855433594329394 0.7049129259718505
Ni 1.2164465115739236 1.1425800634741272 2.6182458918790554 3.681583442580879 -0.8630152015656426 -2.186464842805944
Ni 1.2160548645618037 3.3409402828525834 8.342757176948535 0.06968949407633805 0.30152972278422907 -0.7433092663618618
Ni 3.826919576472909 2.4275830183091074 6.979612445932617 -0.4542090275902372 0.8904982374772599 -0.3757312457983078
Ni 4.657438943918031 6.7318018976453615 5.862816417961045 -1.2395745996922007 0.9712486173534499 0.319210942114076
Ni 0.5502403710461339 -0.04906061932053685 0.22900056202144803 0.44209321816330954 0.9854115391173931 0.17574801370001344
P 0.45550642365639366 5.59394892252682 7.936361466997949 0.0940722937960767 0.37083380849669034 0.6897416175480507
P 8.850603125143213 1.7559083925237198 7.9285093998084495 -1.111175764700112 0.6115962793948757 -0.7317881530961398
P 1.9566229322000717 3.452650762007208 10.463559447436214 0.3658258137591377 -0.015547460816295804 0.006690781756614284
P 4.201989901102948 6.107243318224986 3.7487459220468002 -0.7676468146659619 0.09978759901329912 0.004802563594965922
P 6.891830688411506 4.130764793317448 10.504577640903223 -0.13652660630554553 0.37859905426440604 -1.8151258125380612
P 6.860207469200348 8.033372431900013 9.975473457213486 -0.8765937115810257 0.8162895153743295 -1.0336999418101358
P 2.7432778342877815 8.584884289525029 5.725577840072251 -1.2446360733755082 -0.3058070100033443 0.43474397688709
P 6.841034981746578 4.295329402968141 1.358772857392254 1.19777257605475 -0.41249133613647665 0.009602813197086687
Ni 5.534555197735356 3.1145774179174115 -0.022487824951713628 0.04625954518817194 -0.3455230976460436 1.0557597498236528
Ni 1.6301532693530798 1.11780611294004 6.861489885463288 -0.07235521383395926 0.5704614570277788 1.4832611862157163
Ni 7.199847401338623 1.0872394298546002 9.178091981028722 -0.31908958604486337 -2.253449536356609 -1.4628893074275837
Ni 2.883141357964782 1.3626492520052347 9.318822592974415 1.3566191860137344 1.0681894909465732 -0.424196797498863
Ni 6.371359133514493 2.2223053355380573 2.329625724928921 0.21752458341616732 -0.02685285852678601 0.7249909276686481
Ni 4.46332775502742 7.325429471178325 10.037687951299217 -0.6909310098704617 0.4277845148501213 -1.3920142776835769
Ni 7.980736895085127 7.584854630392445 13.115691913933679 -0.6806198577524407 -0.5957024909827547 0.8346849871623818
Ni 7.879600885257736 4.144062575589421 8.182271161065916 0.13752213744959543 -0.900997594346687 1.1231910439934332
Ni 3.369658027718016 8.600468197379376 12.410557882015194 -0.6125457877923386 -0.7289403992346994 -0.4024023273315908
Ni 0.3338936507441738 5.186198842559904 10.22484877193521 -0.7712142203022461 -1.2131524009449302 -0.5709777345425651
Ni 8.434582917571534 2.3965882559313503 5.504530444817849 2.1665169389291075 1.6165078362184095 0.7076490939560909
Ni 3.8353445412685088 2.677180569940035 11.73359055672416 -1.1077489984067501 0.2918739448620199 -1.403471884701215
Ni 1.2492902121716876 3.5197590221304265 12.623833361096532 -0.23988855293366432 0.8584445514758249 0.18233003779290533
Ni 3.243165150873383 8.357328267413399 7.859164197681124 0.8041413100475698 0.09200178442029316 0.41249390723963797
Ni 5.544583182859633 8.035476396081402 3.6858792901455395 -0.327084688435198 -0.04246793935622364 -1.0039479073586839
Ni 3.0877723677623314 8.61207187862218 3.595590991746861 0.31164932771673426 -0.14785000173816473 -1.116140050683923
Ni 3.503400928321889 3.917963844685679 8.97981293928355 0.1467138312511925 0.8533658514013368 0.1061870747817397
Ni 7.414060100828032 6.354354366732457 11.062236535004507 0.2346864399074345 -1.3539622080068616 1.3132909555397447
Ni 7.76117775847678 8.987670471315079 2.5249191413119316 1.5469103876352455 1.7236369631984445 0.8460945145509041
Ni 4.681748382879604 0.39913020247226166 1.5170465230598982 -0.2625623403820962 -0.7906612732832642 -0.4909827447751608
Ni 5.984548506590911 5.648032642479545 -0.17610453440315232 0.22650596097917122 0.9150661566246112 0.31743559538120814
Ni 8.17548564887919 9.437144620177822 11.260008257247932 -0.08049275533942912 -1.439032041194012 -0.06602207252707984
Ni 0.20704282674660343 5.145941172942012 5.781965901747448 0.5566086103050865 -1.4761307458185224 -0.9890797319975998
Ni 7.672173697955053 6.64868165037548 2.386600346315292 -0.19903706613494107 -2.15640479019577 0.14854162848855063
P 8.72810869105022 1.7820849858453984 3.45456709994558 -3.4800043267503744 1.4632366634646734 0.9384950770715127
P 2.210537709034366 3.3127052656997638 1.286921114387362 -0.8632759114261972 1.1967240801855776 0.8006479521823309
P 5.06477916073273 1.0269804384084529 8.03646097845373 -0.4440130608938418 -1.5778500146368954 -0.1550596321127265
P 8.71064852076572 1.9274862161123716 12.469599124495751 0.20310686532894054 -0.2639453367725519 1.5009940847191052
P 6.3815601719697055 7.963914289704077 1.4049899372434005 -1.7870941032118255 -0.09313281270094283 -2.053341862865309
P 1.7849267037007792 3.359602718383593 5.9194449326855425 0.6569340840997268 -0.5451857131801257 0.35787930521855144
P 7.15197538515952 4.284937095041894 6.090129254602359 -0.012621031198120199 -1.4336214117014021 -1.8989491749126202
P 2.343679477014986 8.397877395272868 10.233567016586399 1.4409397997396862 -0.13708736390502196 0.10752841930098256
