# total energy = -340865.8067267881 ev
CRYSTAL
PRIMVEC
9.31963218628557 0.00000000000000 0.00000000000000
0.00000000000000 9.31963218628557 0.00000000000000
0.00000000000000 0.00000000000000 13.64022374748390
PRIMCOORD
 96 1
Ni 2.423225454969627 9.042512666928596 0.4383153367826167 -0.8488723344063573 -0.7057300225565071 2.267669022390101
Ni 4.017665362735868 8.53605590938411 12.679051682208828 0.9409576796793924 1.235804334016491 -1.898081684706002
Ni 1.6709727251107993 8.42609357233486 2.7794413582605952 -0.848095604141333 1.388267666156951 0.09588929240015744
Ni 7.670765363941729 1.8555946334882585 2.581139162184637 2.2287546047130906 1.1037866713248925 -1.0570293605646957
Ni 4.051709978147421 4.94316073039523 10.420053053118263 -0.5345189774948987 0.4350342544339992 -0.2995905967799873
Ni 4.235120334375003 8.282673756685153 7.600073159922771 -0.6278513078011574 -0.5914190331160524 -0.004729544265185404
Ni 7.054952045422931 8.625114312032016 1.2718156857754097 -0.21723173476609683 -0.3984811379003137 -0.7820411357144209
Ni 2.2574198834429544 5.66221693134742 0.7140217357878528 0.745016993081588 0.32443850906160254 -0.2681922849743639
Ni 3.0813871809425977 7.526050119454844 10.710412709394669 -0.4501651965381666 -0.4916946832405209 -0.41299552946640483
Ni 7.895638762590881 0.4828333545482627 11.984573214561685 -0.8957486872429219 -0.4923498003260166 -1.331904456875874
Ni 8.504415759008468 2.0184645209594585 8.172239846260641 0.5939114605206028 1.3911344461817847 0.3267537874583405
Ni 4.156723590646018 4.230525755837391 3.721039185955019 -1.8821269611489584 -0.6359513112004725 -0.4481394243573895
Ni 6.484898119641808 6.369194889328525 11.272089218040986 -0.10815139759696213 0.8742460372844556 0.4898316618898531
Ni 2.1465535420972577 0.07976486569515387 8.726647042007697 0.05959560017544575 -0.8562028066294997 0.16469715520249056
Ni 0.5518759837170023 4.164896907841729 7.23487033556929 -0.4202504112566053 0.2655185947969427 1.3986844906149007
Ni 2.512181341666389 6.6139657021314315 8.119997717557933 0.2917312486365686 -0.8657128030024639 0.8396055643924507
Ni 3.0693834950268903 5.802868816316255 5.78933391487574 -1.600947005665675 0.8363114670222114 -0.35082265548208613
Ni 0.6534823387848676 8.249877971951165 11.030780648497151 0.2687859526943049 -1.5070554604218367 0.3738350572168594
Ni 2.3405882787160714 3.5017025806308064 5.830936751776143 0.843972840222211 -1.2109019143478565 0.4193353556415036
Ni 6.790255859570504 4.904409700863 9.4700936516633 1.5299148815185135 0.5730896386792452 1.4098934719568428
Ni 8.304574891702165 7.523571097363557 12.818536749261009 -0.3523923139620512 -1.2343431760899322 -0.39579304954518935
Ni 4.575659684809751 6.289661150505039 12.98933950742433 -2.317247347538861 -0.05614800794647749 -0.8701577261476949
Ni 1.7388942025593062 0.8112171090669724 4.486951700322118 -1.6352900019219194 1.873324789476296 -0.8540006567718583
Ni 6.250248427106338 3.358963098111414 7.8449968146892015 0.056285819075922415 -0.9120124573999518 -0.7206123389849783
P 3.223474289227441 4.194934081526764 12.880230848659147 0.574414785248572 0.3051742615153519 -0.1688795687149543
P 6.16069608396656 8.195106495144788 12.69764341593029 0.6033337822757674 -0.22820006085214248 0.4832280405304066
P 8.886576585607463 5.994172900781883 10.618436329991944 -3.419621969007575 1.4665477301157774 -1.1903073780259563
P 7.849152438563281 5.375367980416081 7.564418112115074 0.2320986245756003 -0.6238702116662223 0.41834368115219567
P 7.470281442032799 7.987893798988078 5.0331194094868135 -1.2539277830900792 -0.11139895799998234 -0.6256049349691419
P 4.8304584215608735 7.069723662019513 9.356374570986238 -0.3368065437086522 0.291104413685847 0.9785798609075405
P 1.3069945003918861 6.610051456724135 3.962293701633706 0.6220102756393482 -1.5493398230123445 -0.04185267436972792
P 2.616561219194281 0.6319073908851291 10.792936186138773 0.9401097298568003 -0.07124603993018053 0.1511772663391848
Ni 6.278356436983492 2.253207409814151 4.644796442260904 0.6464717511158221 1.1042438134669692 1.1050549965143548
Ni 6.182960684628536 9.511709536048393 8.215302137520052 -2.0184265390453624 -2.31825290598524 0.2588571236163671
Ni 9.411896278162347 9.454580192365718 0.1517068323548691 -2.380821986966713 -1.4570796427243422 4.036173278414881
Ni 3.9018409772075966 1.7659397743973366 4.58518807648694 -0.09121271286009452 0.4974724662645626 -0.6035980916807476
Ni 8.051490967224716 2.237774099351098 0.05445740521060109 -0.9860543149077148 0.08100543330978952 1.5106956282775854
Ni 5.708013602612782 7.198539614447238 3.225653219170836 0.5414267603583256 0.6923656854344592 -0.0775149036580278
Ni 1.530078529711989 2.4437659237260085 8.354432126596 -0.37958044434106886 -0.01397137457842755 -0.5346665588163566
Ni 8.99963304045486 9.132810580622145 7.403422402623415 0.28549915168392764 0.0812175493205956 0.1425067351483804
Ni 8.551927242547503 0.7020068663138387 4.4461261207240215 0.7036870239845493 0.852094440888081 1.2893686403961924
Ni 8.356475921876525 4.686498067259681 12.392579244407141 -0.6052109446938222 -0.014325158373420492 -2.1396345127159666
Ni 1.0515433894062143 0.9106286908171753 12.239385930760692 1.2382502244538223 1.8386758319438592 -3.1139424857210307
Ni 5.316738175993941 1.32658436669221 11.73346971186769 -0.11260172005883187 0.04648605937668123 0.8400835324701339
Ni 7.940186603178678 7.901416934382604 9.603821982077182 0.164738035742755 -1.3924968737469503 0.15416257421975385
Ni 5.303830485781787 -0.07907521293291601 5.7236556728308905 1.4387685031199802 1.4374415567784404 -0.6427400519875317
Ni 0.27584619348406814 1.0589338575204659 9.888643913065456 0.01829494165444591 -0.30430779974999844 1.2570683856015898
Ni 7.874110412850753 5.750184937060435 5.494636901902774 -0.1321981541335207 1.8974486791076934 -1.006701301734105
Ni 7.18338589294185 3.9004430324192763 1.8155817257937716 -0.6779086294688647 1.6699654418169176 -0.915689649141223
Ni 6.5872183585149084 9.537897701749587 3.472487398481303 -1.0127683338637912 -2.574521442938824 0.5548787720981734
Ni 6.177070677253748 5.0707744503050005 4.109445097905036 0.741869962812174 -0.7013753451322373 -0.6405109055466969
Ni 7.064961330107303 1.3715981888761135 6.801970636896625 -0.6197528470637391 0.5779683069277852 -4.329178251557551
Ni 2.682320542036853 1.0459329709890899 6.6348640447536225 -0.17437658727378355 0.3462412067589908 0.9727601689019699
Ni 5.375675528269511 2.2949220822976186 2.5369724945424554 -0.8870005087366466 -0.4636845711808401 -1.2473634996090002
Ni 6.474087346612134 6.165225425080716 0.46434972855709583 0.5588259296713796 -0.24889409886638428 1.2204355648699046
Ni 0.6254088115458257 6.225952146685336 6.447297132688769 0.5498059855609564 1.2409079737916433 0.34254216064084875
P 4.850327876818861 4.7190329022998485 5.7356733381944816 0.22753800178811134 -0.2097444252501162 1.3300997995669672
P 0.174406659827609 2.14389744699945 6.059532411414995 2.017337676856558 -1.9336788650843215 0.37690032640574445
P 9.181775926741032 2.6837371260890173 12.007570338292743 0.7004826581146387 -0.14428311032251281 -1.4637776235698081
P 4.5059301987683495 0.15756328905473763 3.323358376316096 -0.8991307163412774 -1.9148041396670055 -0.8130620095759674
P 8.451890313495324 5.3357875036427815 0.6216026738688264 1.4674830974458535 1.2728994390965755 3.373115855026236
P 7.426870596539502 0.5855179910295188 9.698676263817461 1.0993165513686811 1.9021699958427627 2.218705962227837
P 2.096069095975062 4.3689502487768355 9.392998860513838 -0.4508303409259913 0.2685725511319181 -1.0656410134931067
P 5.283392532976548 1.8664613243094659 0.3622009709113624 -0.36109472683205557 0.5486569595581777 -0.5457642113914148
Ni 7.273814281482308 7.557941899892383 7.183705556316778 -0.6185261737454896 -0.5348784177168465 -0.22163834847422476
Ni 5.411108768837462 4.276014879249323 12.337377200605962 0.35925433118920713 -1.5119333573394282 -0.08760314113196525
Ni 7.921659174917477 6.318915475108615 2.956668138707842 1.0128842906163653 -0.09699718075235554 -0.4468641571893917
Ni 3.4917864922656565 3.5273502076805165 1.4636640367452909 -0.4035176718829567 -0.16803856087089772 -0.6639310842428502
Ni 7.135622779340916 2.7940722484151523 11.436576993613869 -0.44496411195320146 0.06984838825170551 -1.561777791665381
Ni 4.513507059521044 0.06896900407655474 9.843958141925212 -0.1558849562274993 -0.8307252311836855 0.42262071126099476
Ni 5.437893390981673 5.686252262074602 7.793764002123658 -0.37668538218146097 0.9003247366493786 -0.8025382272265081
Ni 0.5866605779031724 4.4979339545791595 4.6761961461329555 0.7937327131197361 0.8774732859725016 -0.4780266988351251
Ni 9.110648495911311 3.6128951090937775 9.711961399122464 0.3888428434796013 1.343999697477511 1.5886964704330961
Ni 3.058106740401109 1.5869935218604567 13.015923757482215 2.481544439089455 1.7642719631109873 0.1050683877962642
Ni 1.265643293553381 3.452373768866955 -0.09005373933718895 -0.7860525708666591 -0.006528545147137143 0.9911085895021704
Ni 1.9363865226212313 3.19542219714182 11.343237152060935 0.7922093344966743 -0.3549698448812402 -1.9324195387559235
Ni 3.564647374632894 2.20226630172777 9.112815310333207 1.7227877278242716 -1.4982633160515035 2.1921996884071926
Ni 3.3729705048903798 7.015809591349972 3.3104683934045935 0.32268373115402493 -1.236498274759722 -0.017787920111040332
Ni 0.38368272249187946 8.13430521648479 5.064410073665376 -0.18048218595088916 0.25837915553868407 0.19804282054247183
Ni 3.887386228096368 3.829492674596076 7.7038621727868 -0.5700801624289601 1.3219943968510137 -1.1905236078018204
Ni 4.535082007420782 7.875266047209098 1.195952949966053 0.04193212145741165 0.2955123129455556 0.9667288751062254
Ni 1.3116449967210304 5.587548040387288 11.4530541028522 2.7260553212864793 0.15625442375177606 0.8852842973764882
Ni 3.129196892703141 8.519094179285828 5.2967988234965375 -0.2131529367110329 -1.824648921537148 -0.5234125831690921
Ni 1.5960801629845365 1.5957073777076514 1.6187809224204688 -0.5504281925259875 0.43156943581385027 0.9780604980689608
Ni 0.44863030539403376 3.900200721989301 2.1626168596782467 -0.07126635164515469 0.15187480662684166 0.14662821351592167
Ni 5.1528524486432286 6.917207885613802 5.662806864048091 0.9189433801918304 -0.19748926203184697 -0.45164358085590606
Ni 7.9920037566657385 3.4864743020700404 6.022362923419952 -1.8746067415125136 0.5266202914731124 -0.5422307443168597
Ni 0.4586237467041372 7.253367009045148 1.1549055631282095 -0.9027426020622517 -0.7963089584873447 -0.25143486301036694
P 4.628231728482505 1.9437303925758724 6.578679711747851 1.5753629865489835 0.19212439817550783 1.2702517170610832
P 8.865430340776143 -0.03337826172912015 2.2571840967553247 0.9151594876693658 0.4236856621903993 0.7043981911189611
P 2.191520766121551 2.9583773592023612 3.748115512578393 -0.5380581009964087 0.1860707357822602 -2.0047017332601027
P 4.485818433080387 5.55116419736328 1.715162691832786 0.3428758898311837 0.8509456719956182 0.39706754538223876
P 5.434668798336615 3.2895691188192098 9.974004285766659 -0.12267761623759517 -1.0584961749182094 0.7188871287637555
P 8.092366872835191 4.052697859131167 3.750488290865768 -1.0177310771857053 -0.6549659046297623 -0.10973159759988844
P 1.7999005131215902 7.476506956156783 12.856783586706252 -0.08943633768596211 -1.0547703893271898 -0.6793263357519977
P 1.5719702752019777 8.211164220946623 6.918634721261081 1.129548610780345 -0.41157602341105887 0.46013567748731726
