# total energy = -381176.77963556116 ev
CRYSTAL
PRIMVEC
9.15696888730391 0.00000000000000 0.00000000000000
0.00000000000000 9.15696888730391 0.00000000000000
0.00000000000000 0.00000000000000 13.40214956716891
PRIMCOORD
 96 1
Ni 6.491503287181806 2.0698228840564594 8.226386234042469 0.8956944369662188 0.319080844294115 1.4614533463120056
Ni 6.073313685026529 5.279248832936509 1.0849844938022055 0.318573051419761 -0.9485881996414566 -0.4369080744179444
Ni 7.700470389674848 1.1320119377967939 3.460998096220533 0.3169717683709122 -0.033780181774238596 0.9707158847784314
Ni 4.91970961510768 4.582925464421899 8.631989582761882 -0.9990000764351052 0.8226275417772155 0.7941608017960904
Ni 5.439917005206899 2.970914385952494 0.6044011385284978 -0.08202616126482001 0.2337443877091394 1.1435405541840626
Ni 2.508102875472037 5.032248760052573 3.635105035709893 0.7202302730552111 0.9065948859288064 0.10639970501317805
Ni 3.6435669904571326 7.519235665773356 9.715981461160343 -0.01177873780248294 -0.56654900934725 -0.49566832317628823
Ni 2.6916909403215223 2.2024249473556465 10.207599879377344 1.1805490130876122 0.44799878501446716 0.07236112737123022
Ni 6.872103532949874 8.032007597313157 0.7196782171054926 -0.8627809740676494 0.3946195980623785 1.5389237698853433
Ni 2.1761169763689354 3.840121322942254 12.147198764898018 0.07225648347256589 -3.064032745374781 0.2173191522735806
Ni 5.249204818732749 6.061244800320478 10.754648176039826 0.9385171885586998 -0.432296543787862 -0.2745930462943852
Ni 7.814245725390087 9.044337954603055 8.27065376768015 0.8839275262382779 1.0721803572735211 1.042447863206095
Ni 6.266131974294602 8.318739757252901 6.722008912401848 -0.42914745663591897 -0.22939562382214043 -0.8039731599008217
Ni 5.419808302009261 3.5408258019883196 6.731430517465624 0.4661312329491198 -0.4670938539727052 -1.4390729217342764
Ni 3.376815336153658 0.6122239368626249 8.508636057818622 -2.0074096191095685 -0.9057713615862465 -0.3814871744454785
Ni 4.8441463096491555 3.8222102922252312 3.1390116069042353 0.09122248305210741 0.1078284670399046 -0.8743146857388621
Ni 5.6535307703228055 2.1281894023541614 4.7357836581143 0.14778880948292614 -0.052840283729483184 0.346025748314075
Ni 7.2074408825859155 4.629085743483511 8.582160106354507 0.4925238640100356 -0.48842064047493944 -0.21064096892245657
Ni 7.325465051763682 7.529280860403507 10.255190476945092 -0.21514554166102945 0.19025854861136268 -1.7841818146610369
Ni 1.7598045527908515 1.7579823160256738 6.397864125570212 0.8969072263273973 1.0951490502545527 1.7844301832264173
Ni 8.560749282212104 2.761402942800406 12.71191176982032 -1.4003297395278076 1.4015062763344122 0.5673398806796617
Ni 3.6523759943169365 4.907970381273721 1.36305232998712 -0.2548238340872579 0.537084681339546 -0.3984970787399137
Ni 8.542581856372342 2.9020356676225116 5.043456889703717 -0.18248121865878894 -0.25446336542404563 -0.057392421876539874
Ni 2.0228018499399396 8.018043220092574 0.5459164953349631 -0.3432798101378217 -0.19027757477475618 -0.6235346827036745
P 2.9808222260526063 6.988864040451285 2.187029335932062 1.5360492765510256 -0.37002185411835625 -0.27104312415959775
Ni 9.040272260513914 9.090534861539343 1.762409710377249 0.65440951790566 -0.7113064882030201 1.0193377595511928
P 3.014922777376836 7.399151178645012 11.876100297567257 0.08639215154299959 0.6185194888772703 -0.42532731155888037
Ni 7.353723457076939 1.400283648899361 6.303714005106875 0.43206668716524294 -0.7469697459325845 -0.8704947977721396
P 8.519332312921156 0.1430062111011712 10.396851529348753 1.3709170906936456 1.0683558413211085 0.2498469496979568
P 3.3381912423068263 2.3122902574491238 3.266827322680013 -1.1399016718798949 0.2800345290249306 0.0187867936891999
P 6.290480353986098 0.6052261814055959 12.834433842008414 -1.253209931087448 0.08720924812765626 0.521208890649554
Ni 4.72528885632249 1.1298417362221853 6.8651836117265335 0.6089524140141255 0.2416520725919903 -1.879711923949563
Ni 8.284575107147987 2.5213530091364196 9.967741326358547 -0.33606118090219544 0.4367082997023124 0.003237018880058941
Ni 0.11934277266613506 8.962355614107397 6.395519025894021 -0.8350313147582071 -0.31748161812779513 0.06526822508019083
Ni 2.325631960800198 5.528409950426383 8.024429290042498 0.8976641590980798 0.7697936858056355 -0.6771157012539242
Ni 1.270163124109537 4.4780140743784775 1.4287892923666887 1.4054660323131085 0.22386415248094993 -0.15617497666409233
Ni 6.437449701127314 1.2514554371182907 10.842901208680177 0.3474354841774081 -1.104041467648176 -0.8765916546984968
Ni 3.387153553781224 3.4341104891170593 5.515024293625697 -0.1095693609904113 0.2420588211121057 -0.9497138286054675
Ni 5.103691429609942 6.75657921621881 2.549691995773967 0.43252691463111315 1.644345427255968 -0.8875265564434458
Ni 0.8524249605096534 6.53847853645498 6.239825834701625 0.9169343201816014 0.5770853901021997 0.07791779552340129
Ni 8.635854739237166 9.22720261892767 12.936330757965921 0.2792320877282933 0.1944067664517813 -2.4532664180803683
Ni 4.3972312967784895 2.1270447812705067 12.124415311152097 0.4697492893176813 -0.5712325308658485 -0.6471212117743629
Ni 7.332149638892223 6.6837996292357325 4.949212452463087 -0.0456656203579149 0.9608911853785257 -0.4599965808062917
Ni 1.9784271797688286 9.02440323381013 10.087409171412439 -1.600879128542217 -0.16401889818854334 1.6453784965061728
Ni 2.5954145717331896 7.586154792808122 4.2447558643764625 -0.06850267285708847 -0.9180139263990253 -0.21344758513331627
Ni 1.2590099362704092 3.152368877102048 3.8222258590719687 1.140643692252242 -0.22854998799239348 -0.5042596643897251
Ni 0.224916211544342 5.778028916349719 9.01168512002543 0.60447458074843 0.5392647197100002 0.41103094954086633
Ni 2.381782492679945 0.2612565574050666 2.500854219073471 -0.33982527593031797 0.6011370317347646 0.06222069650311864
Ni 0.7434332252272212 1.3202792136362582 8.539393399881714 -0.03083575443393399 -0.729955213652459 -0.141878100425446
Ni 5.283699119709757 8.400035325098367 4.485859765134278 1.2569161762944419 -1.1198519523178714 0.5010085044422792
Ni -0.09689904245784095 8.213251478183318 3.9739110450778408 0.17798487345033218 -0.446346851233341 1.1948641441587033
Ni 1.0341514136286833 4.037792805605022 6.633501316032494 2.014100400866183 -0.5708268107869976 -0.51601037716775
Ni 7.011014747662164 6.702754554381048 12.278834768002602 0.0027909324815758385 -0.6987232522213709 1.88251802593979
Ni 6.6478676841776565 4.3620044383079435 4.556731039846686 0.2922508685854644 0.24081774961615296 -0.2085079817398538
Ni 5.038338144217614 0.9891723835254027 2.75688947294334 1.2010047098388026 0.6548841435492335 -0.05025915326586829
Ni 0.6717405704251824 7.1925241806237326 11.388878140008355 -1.1683735540673426 0.9711306037183468 -0.8921445148314312
P 5.727070385705429 6.717414861220494 8.5790375800383 0.08519376035952425 0.5793124796605055 0.6494709429534621
Ni 0.16921986531058922 2.4580783556320083 1.7194827569527438 0.5881110517887419 -0.8779008604282236 -0.19200381343724354
P 6.905233445595165 2.9121358040646768 2.599895992199913 -0.9679059261334622 1.2459601915035703 0.47141767815903973
Ni 0.8138887735620464 1.715841946209856 11.43760878017542 0.4738201169529453 -1.5839628124028526 -0.6349886901768871
P 4.689659091230498 2.1241694931083672 9.165368356594929 -1.1049822342948907 0.7685161046447926 1.212958282656253
P 0.9154175793790524 4.883731885206257 10.893789230665714 -0.17159953874927866 0.7376088735429749 -0.3066133079547236
P 6.760580811527266 4.4479425892687114 12.48412851138564 -0.5361246314191218 -0.40463121666210955 0.6455579810523011
Ni 8.58364170388519 4.36599687664773 2.709887668461026 -1.4569978816438134 -1.4240147418495734 1.1121548407839297
Ni 4.37796503469842 4.417404098756814 12.348218035306258 0.5616873103795745 1.1651455340483483 0.7768415937913525
Ni 2.45901236643627 8.741663512210172 6.192128100600449 -0.7636058118273688 0.389715990113174 1.0130025613617846
Ni 8.35631079970277 5.031671871026411 0.4891258913452368 0.26144442472756907 0.3692893468277059 -1.0920855808378804
Ni 3.031542675511497 3.2777003072778625 7.888813668354267 1.5776098736016315 -1.2966788009043604 0.017414081711389362
Ni 5.121336908235557 8.397801024743073 11.636322325872749 -0.42178458851294454 0.06641056621475014 -0.19424298718040742
Ni 4.2864594467867585 0.1380962445007276 0.911091827379706 0.4014487051690699 -0.6590423886919811 -2.3051531353784878
Ni 3.9179372426934105 7.320456189901609 7.076911041296578 1.381861505520291 -0.06581561294322859 1.0905058950555866
Ni 4.591670369501018 6.8147900660491345 0.08140636716636288 -1.0634866861542651 0.3589383426106851 -0.6253488530942778
Ni 5.514125079302377 8.920773819380402 8.940345924214023 0.29821814191249285 -0.0372848524933874 0.39369142982115424
Ni 2.75154088754364 2.6836969066732803 0.9871367893902319 0.7943932295218706 -0.8874401673772264 0.2542003415706461
Ni 3.153760736339772 5.143579185133128 10.136112340673497 -1.0961409818541767 -0.8733386949788379 1.25089465269071
Ni 0.22398769492128162 5.379133047180519 4.520357728898753 0.4316421980333147 -0.2983670087855313 -1.37918781534287
Ni 1.353125260252803 7.782855636791951 8.071859640658532 0.2131598786895684 0.7639495683200327 1.3744868103227748
Ni 1.705732652799021 5.843766794426155 12.874090841921134 0.6187753136418181 0.8027032920494627 1.36805442443387
Ni 8.198609485281212 4.794094318903118 6.3251440588834855 -2.4652955813307607 0.7922427588377711 1.01670469280372
Ni 7.999939893033497 6.814066665524265 7.635821275173185 -0.5203365153469297 1.1165234021652708 -0.4637791877771755
Ni 4.626137199572017 5.877244671880876 4.467767426437604 0.3923305449178856 -0.5300416584498355 2.258521808673194
Ni 7.921968304814964 5.179511130191205 10.757020746622024 0.1564112610446145 -0.9683463561049902 0.41255612793614105
Ni 7.311985993882568 1.5463647700796614 0.9902107837724939 -0.48955423985875046 -0.8381536624372726 0.5245690653710385
Ni 5.963329334340352 3.484107538051081 10.716854619251293 -0.12610361120000863 0.781411472550222 -0.9125621592558348
Ni 2.7743417395300347 0.5989564049577709 12.366739835833519 -0.26371290904677164 -0.7754357145827613 -0.5968299197189786
Ni 0.9554106400419347 6.6240687226063155 2.555025930023796 -0.17609794084026448 0.07482013043468405 -0.8935817614985901
Ni 0.9909488354472342 1.0017906863516082 4.61477523284723 -0.572519110887756 -1.129324410584681 -2.53344755571665
Ni 7.770493729088485 6.418311636608613 2.474344794776037 -0.8857483814971003 0.8474543710129082 -0.4709479376114728
P 1.3592604292611898 1.0883331972445447 0.48516458669892587 -0.5501325156624396 -0.03751188090252894 -0.25686837532111245
Ni 1.1502526193859093 3.624612065311817 9.077959596465883 -0.8222387909792291 0.1700548199699781 0.6388551151108288
P 9.02271835157499 7.12938688164936 0.41708160894629936 -0.16653292285964869 -0.009231031679964747 -0.1981495213236652
Ni 3.5770690839811508 0.5924174136310704 4.569396043213104 -0.7792427470336774 2.0387793916701016 0.6024182124400335
P 8.471249070439004 3.0210671033538925 7.6566213295053505 0.37041009069571046 -0.8160714858262526 0.0462078660146301
P 7.008487424309456 8.281846330484555 3.159690789249968 -0.7148283853133496 -0.3085434350979009 0.05006709185972022
P 3.048006905178781 5.730678231361107 5.953301537950672 -0.9159531872152549 -0.5571063758771115 -0.9186800992281147
Ni 6.05284786005079 5.825718409179094 6.636945251948994 -1.4087866120459092 -0.240575808808676 -0.04296801892109374
