# total energy = -340889.4724307367 ev
CRYSTAL
PRIMVEC
9.09858284893119 0.00000000000000 0.00000000000000

0.00000000000000 9.09858284893119 0.00000000000000

0.00000000000000 0.00000000000000 13.31669569825879

PRIMCOORD
 96 1
Ni 6.422789796092122 2.0591549012444696 11.640882625183309 0.2381700275806608 0.6294986135965933 0.04719028453255744
Ni 4.719507770174077 0.5112666638471832 6.198961925693723 -0.4494828257591614 -0.913918159063097 -1.261545704646653
Ni 2.873105034290427 1.5874934591651997 5.046694633143249 0.4782077044976797 -1.7059380032567846 -1.0045323191072442
Ni 3.714369113383222 4.317404994826341 4.992135890280076 0.4114765217187172 0.021880087902542963 -0.4148891469446919
Ni 5.6315770218639685 4.147297887800472 2.91696930274206 -2.0356817265813842 1.5237768869415758 -0.056318472086070756
Ni 7.236430577317431 6.062886248514284 2.597807389943876 0.9574507922384092 -0.837478490747119 -0.3644839550192626
Ni 5.265040607308066 4.377537529611 11.493800392196789 -0.708724843518773 1.7891718116764606 1.5202567896034593
Ni 5.4144120437674 8.054693438686572 12.530904190643788 0.13057527381811707 -0.15793875343273445 0.5441421024069597
Ni 1.7130811997662947 6.447865490730725 0.4569108193840229 0.1521547997611057 1.6135063303879242 -0.16930380073656648
Ni 2.868828700299084 1.7712575392144874 0.37796605447063736 0.3652306033773 -0.07493043076030322 0.8277494363848131
Ni 0.3943098390422339 9.062279614293749 4.71673361222948 -0.7460978848505925 -0.35738102542589417 1.1323840233466111
Ni 8.803706985144832 2.429494523477779 1.5172642268694907 0.7055778132493591 0.4194777947566389 -0.6699880890702073
Ni 6.698112916470963 0.5798317653194524 4.6568622067757826 1.5530026165759125 -0.3213698974386078 0.3000135432500188
Ni 0.9834476350134866 7.403262194477589 2.9918351729143406 -0.2714866394549195 0.2160837372045827 -0.9658960947922849
Ni 7.70631779571944 3.677638133972469 3.8413343794445076 1.6837216150607452 0.7670305212382016 0.825009925966463
Ni 7.76619557018121 4.0434284647256264 12.682022555031502 -0.16446344192512966 -0.41267208468871514 -1.417615780301765
Ni 8.003923345768069 8.913426797063154 6.773084330205583 -0.2555280592431341 -0.7532319247922123 0.2611235510530406
Ni 7.084083904230076 0.6335079456354779 0.25970722244406835 -1.4363604078991197 -0.7590822129254023 1.0920696399982803
Ni 1.9797060748350832 6.593670282669618 9.203274895279826 -0.8221058649457906 0.24341482091936786 0.3437822036955369
Ni 9.1501719256903 4.962057794729898 1.1732477149986407 -0.3650619390099197 -0.427991745764921 0.9983290185100098
Ni 6.5134116823767645 1.777062435143162 7.009828548974433 -1.2873927476167442 0.29900721347269155 0.8221248911091842
Ni 3.20630424087977 4.358849040210533 0.34664054319660204 0.6969571614598835 -0.041330997538303015 -0.13840556849581326
Ni 6.216597709045683 5.484944258875687 4.918707596215522 -0.3907876259107979 0.5769606915988773 -0.0667707777676463
Ni 5.32477280444247 2.96465497603702 9.417806743467683 -0.17785631829226786 -0.0574250748866882 -0.28458435317914216
P -0.08994677142898681 5.870860655137038 12.370118581860751 1.4969535961011444 0.1905989626699169 0.5240355614650716
P 4.231687244757304 6.074568829035315 12.483456900222388 -0.7443384789573245 0.7916550046551011 0.39183046535301547
P 2.3851662272951715 8.485192891453421 1.5429122223762957 0.07583931572781778 -0.2657093706515101 -0.6899915287753279
P 6.418750025257746 7.732785573550969 5.768992010455164 -0.5014556192820268 -0.47869801387053684 -0.03138159963507498
P 4.856514232390355 1.0967977815329708 12.820662212889154 -0.2633742947604303 0.5361243743088057 -0.7310412476277861
P 3.8652964075287675 6.470348089225639 8.183149962495053 0.11158510586885945 -0.7174606807298741 -0.16811055175941372
P 4.76489150198008 0.8762990826397464 3.8567683057200735 -0.666632285224097 -0.5403091018141146 -1.3689530249887392
P 0.30995050740917063 5.35631759156585 3.5486329656114837 -0.141716120926285 0.23124990342205984 -0.12394157055168331
Ni 1.1739810607852414 0.926490505681975 2.789022299579358 3.3545663741588223 0.9246738549177043 -1.0932266364208592
Ni 2.1622145504358485 5.993837102428526 4.782078725192097 -0.9155613510934748 1.2941637477919903 -0.7412819515191879
Ni 5.72100699378081 5.8509347584539695 9.326281367895083 0.975453656573733 0.3867972738044822 0.4136205646449134
Ni 8.467578034842271 2.493430265939845 10.303593828418435 0.4290147877127966 -0.39798954297587585 0.03286975414482727
Ni 2.1486849575738747 5.172553511516562 6.990399434920996 1.126639664663666 -0.9920179886903173 0.8263522989269704
Ni 0.5196646559195451 8.83044772046517 8.822364539363234 0.4212266591269455 0.2236371240718084 0.4653380476238631
Ni 1.5655021841501415 1.1742995111888521 11.794824279863603 -0.6426757744084995 0.3889688275345043 -1.818584460510623
Ni 4.060424617695476 6.968695675127484 1.4431171447510742 0.06555593152393872 -1.319191894405212 -0.731764498947056
Ni 5.374405574490937 8.135752714279933 7.945739727453509 1.1549709075081915 -0.47926237101443914 0.6955014028499635
Ni 5.328448631958435 2.6393260437083415 5.001723977003645 0.22767324181439497 0.45600031516270495 -0.31080703432109696
Ni 0.7687465531825688 7.281332084226537 6.92253765391156 -0.19711748051472502 0.3787885445673928 -0.9539558917112733
Ni 5.187484286154423 5.016949545729419 7.1382150136941185 -0.23211842206994215 -0.8416776164301312 -0.22436963136245874
Ni 8.360769769471245 6.988002868169253 9.289247405671752 -0.6183937619326834 -0.2979751726637513 0.8603294272033636
Ni 4.638621367656962 0.6424054499123605 10.565813169617844 -0.3336086055966448 -1.0473085337325059 -0.051534163323549965
Ni 8.227066092869558 6.999876518932451 4.582527693848383 -0.3006971995806047 0.4272569244814255 0.7896456875345561
Ni 7.374010250260207 6.191785873312929 7.143994433590504 0.018558479728477715 0.47721628711868774 -0.3810081779265309
Ni 2.3369073432737117 5.198884810603686 2.3830362490241637 -0.2498325515202536 -0.19490118958969657 1.2051588412164922
Ni 2.2004376974520916 5.393539894456459 11.741836862277674 0.7944377096065608 0.5440608555470631 -1.731000088431735
Ni 1.3896902656081611 3.1558344011989568 4.0743227031673435 -1.038475251711592 1.2369497604748438 -0.18309005588738145
Ni 3.7986765830934117 2.6100013108272773 2.83921281276329 -0.0693159127870032 -0.24697425613585208 -0.11574103701876196
Ni 1.042579325672511 3.133360901287002 8.375202851621179 -0.6335157051757864 0.7799770540965406 -0.262467980896077
Ni 3.8350800135175938 2.9823335227288936 7.0277664052806745 0.2278318788794463 -0.2708312652591078 0.9460667187711836
Ni 4.236873437044679 6.989831683344274 5.868095595775402 0.09310813011059449 -0.09420907648425711 -0.5213893820914762
Ni 0.734187405524441 7.7543674123328135 11.322959939384319 -0.36958065281587965 -0.6894050601442386 0.7625596299510415
P 0.24765887888803198 5.515779356528161 8.044310135812273 -0.1805408071029665 -1.022874826170174 0.5263750082315257
P 8.523370545554862 1.462861069774937 8.237175528396753 -0.2286453759196772 0.7526439134992264 0.487551864716741
P 2.015872942102297 3.3402353820554653 10.528259678307478 -1.3114711287221865 0.8287403395431726 -0.3110003812788256
P 4.189287848162281 5.949181257259347 3.500746213633101 -0.010812517234471701 -0.8524574806544545 0.5478012964261018
P 6.943064966928304 4.1570788644828 10.425694082170844 1.9753546475565527 -0.041937777884366485 -0.7838177679988695
P 6.455289934426333 7.970167602985335 9.913587619116424 -0.6040423783070178 -0.6343132613764172 0.971754610455591
P 2.2062243962148456 8.218950156868965 5.454305690615154 0.6217428809105744 -0.07870866685581283 0.34269539838926144
P 7.140285851175884 3.893219958633945 1.4086134984490042 -0.24689120950374252 1.0664257141779312 0.4589884512567515
Ni 5.298104857785816 3.102243747562758 0.5645843599945727 -0.25750060958847265 -0.7153210086790519 -0.5524603924646678
Ni 1.2011585280876733 0.8288008401537683 6.810797046717753 1.1264470890368858 0.2888546984197219 0.4057905270775334
Ni 6.655668026961139 0.9276915186327352 9.280844864307909 0.6929421267632194 -0.12998931940766 -0.172422034650574
Ni 2.679614569056574 1.6097121987542653 9.341409581783182 0.5136264503166058 -0.14358762691738497 -1.0496605789044504
Ni 6.5803590557986915 2.046325899270439 2.4694218350824872 -0.8222979263519387 -1.5361390080513546 0.41437595475369926
Ni 3.9654991016706105 7.311084450506735 10.580900439882623 0.06610280516634422 -0.3602979419623731 -0.6132638969052858
Ni 8.408218879609237 7.4213865717345175 0.5829234638093642 -1.0772179196974287 -1.9385629326495 -0.3868939472833466
Ni 7.303641809645206 3.894357281503983 8.211367397829846 1.2460422096944155 0.18687677662332333 0.2507121259117295
Ni 2.9125837857551926 8.51044145916827 12.575874846783393 0.46366785901029184 -0.5061489109926379 0.4062684951552164
Ni 9.279917718704255 4.845659622918711 10.4087425122575 -0.35313382011376604 -0.08889254936735012 -0.45733857435815434
Ni 8.532996846326865 2.247495568522791 6.238179547827527 1.8695208423491738 1.5999345052407608 -2.054301655675417
Ni 3.826909486019239 2.7043354189597233 11.436045317139659 -1.0127963588882491 -0.6380457318356559 0.994758527549932
Ni 1.1795493935569483 3.4384272893630814 12.618048598521 -0.9411523121887017 -0.5709060007643652 0.26322697054928856
Ni 3.007673076273344 8.36746632653003 7.5086993033964955 -0.9155842339116103 0.6531504486875783 0.8965439294507076
Ni 5.600969388785501 7.640180196180981 3.4961650771125865 1.438752305170064 0.5928133423604178 0.3316070017855837
Ni 3.3517177937513707 8.073327336589278 3.515514123635972 -1.3648567434321786 1.2116609040010682 0.9776537495488452
Ni 3.603493781428941 4.512269346087201 9.22326357218532 -1.236158117811484 0.02646924993512216 0.31084688642009695
Ni 7.077669403243061 6.555337952657851 11.5511014479642 0.3366363366793751 -0.783982832821824 -0.5135482887805027
Ni 0.6307811003222743 -0.009799173848248882 0.41896426928977337 1.3494267820303534 1.162634080480404 0.06481159715874643
Ni 4.546689285426036 0.17189224900268107 1.4181479035331082 0.7084139971465736 0.7891620630299183 1.126449660140047
Ni 5.9692254355209 5.677697738889756 0.47109823979402704 0.41046453551443507 0.05976760697693578 -0.3148734910809867
Ni 7.8265646681228365 9.135796164613016 11.251050198815841 0.3665364666729171 -0.3467196890573061 0.062276489441718555
Ni -0.008519913084029947 4.930922443839732 5.7545034269491735 -0.401230932731309 -0.9661835441257166 -0.10517714545998659
Ni 8.160810211752613 9.231513257355429 2.4736299297016284 -1.4731652354322953 -2.688650912496092 -0.6414886960789339
P 8.547481790399672 1.6904985168588167 3.781315576946853 -0.6812893730156396 0.8727380852803615 1.0408956882276268
P 1.9140779959424006 3.092262602055303 1.8896255542365799 -0.39155767130760305 -0.1660960924325462 -1.2671589370683725
P 4.679883441381946 1.264466468325478 8.190872839711759 -0.5747238318485587 -0.5072182327974167 0.7955000894328041
P 8.688209573046715 1.6038618099107889 12.698521925371717 0.5750272220215903 1.6017252785925962 -1.7095745715681072
P 6.494341052491965 7.795493007313394 1.4008496776089756 -1.1287055460537594 0.14197014591862 0.06485530591248831
P 1.8427178097847257 2.9389514791741576 6.262962268094807 -0.8898153524776224 1.236454051785348 0.378817083812483
P 6.917088512576632 3.7450404365424115 6.023900640245968 -0.16358618152649892 0.9239871132633248 0.10417364389613672
P 2.183769093468812 8.796164259870737 10.139758374627105 1.589969937828881 -0.9522908453040244 1.128741027277385
