# total energy = -340896.73273748154 ev
CRYSTAL
PRIMVEC
9.03140452658199 0.00000000000000 0.00000000000000
0.00000000000000 9.03140452658199 0.00000000000000
0.00000000000000 0.00000000000000 13.21837343301868
PRIMCOORD
 96 1
Ni 6.410996632206513 1.8934881298768886 11.39311399527443 0.13395293204109832 0.48289199734722643 -0.06667950360542065
Ni 4.464458032632135 0.25975132004128765 6.017399898321712 0.17881174022700172 0.06986972840794418 -0.8842833669157997
Ni 2.709502615504615 1.7149553268499953 4.773577718779548 0.004174700202979907 -0.48955938206507305 0.4141952062014609
Ni 3.3417460835285757 4.335110258201177 4.999321285391163 -0.14512360394593715 0.3126029498792552 -0.5042424379985445
Ni 5.010207740306614 4.7278228175910195 2.56047812021395 -0.04572655550283738 -0.8595781508596357 -0.7542202568474108
Ni 7.161452152983358 6.289289425934234 2.4746120424732485 0.5900380936081258 -1.8599967049088224 1.2238597600601053
Ni 5.123353175167041 4.7085949575321235 11.430932098238555 0.7733286955420875 0.5330508775898046 -0.4633652401682084
Ni 5.7320427404039656 7.885725632280287 12.28297556561027 -0.746034892823141 0.6191211270170112 0.12230892004426677
Ni 1.9918581870687604 6.511769042980192 0.35753704536570496 -0.5758905984631502 0.11493602461896334 -0.04392781173120177
Ni 2.828979064879502 1.5397551120625257 0.3136597731608509 -0.19468341715193568 0.12301854451678168 0.9840899920924923
Ni 0.4320930953225853 9.077645233629653 4.776406354651059 0.9079285171385653 0.625823221627535 0.23564777537943932
Ni 8.517038865646631 2.1530235993519913 1.5463913880471554 0.8302732312479314 0.9659739992180719 -1.038251051515928
Ni 6.64976890286743 0.6594532833294763 4.728371023840702 0.238032473561532 -0.21728547082216773 0.20787703302407423
Ni 0.8411913317931484 7.479267275328379 2.558826276341347 -0.08662252238625082 -0.12926092588206772 -0.018127048618013942
Ni 7.612191485918717 3.91555636480709 3.6917861600662447 -0.532577794608128 0.2558160227971982 0.28630287853214564
Ni 7.622984014227962 3.895768557672735 12.632878364800408 0.2006956847842866 -0.4761623919328768 -0.20817553810109954
Ni 7.8206182376515505 8.70887492741789 6.978785676142958 0.6035880643784186 0.6167446563650346 -0.051172666219073154
Ni 6.8868703637064135 0.8171795368008579 0.3311590224093792 -0.9647432121347644 -0.5764860659553039 0.7297595527018852
Ni 1.9226053778007406 6.677802382258136 9.338661853433388 -0.4420903899498322 -0.9429392288857954 -1.387112212396269
Ni 0.03425431077096321 4.645953136316294 1.385986420018015 -0.5158054602457955 0.20162462435645923 0.19265918763305528
Ni 6.4811616133232635 1.95337537273764 6.810066397183699 -0.8079241741287698 -0.24087148567222388 1.0071263050866657
Ni 3.2909986219640213 4.421080197092972 0.6997622476389476 0.2541453199629946 0.3245369823126798 -1.0591266094133567
Ni 5.730543527266447 5.440301282685545 4.663018878151563 1.2275665194877312 0.7164679777993015 1.2399479238712194
Ni 5.226347311433669 3.0629014713545915 9.175560108037603 0.2760961132024729 -1.0821300122870654 0.2845982371362131
P 0.2806445710794511 5.468975991791695 12.423830252441904 1.0031521509302659 0.10390213540230493 0.4023704456523909
P 4.14017642470601 6.3401542957565455 12.54263657160713 -0.9731512336928014 -1.0331458690788786 0.04982952192761741
P 2.3086708235206213 8.534514633243608 1.3405810341814253 1.425917615299241 -0.21348280924662588 0.410696449019583
P 6.250689203345356 7.625738592583041 5.800896361595609 -0.7281742104926363 0.21145677995553258 -0.47878954514307875
P 4.770008507743722 1.1185575030598334 12.657927868163185 0.12183840816575145 -0.24456538958404328 -0.525541970807269
P 3.9538585510493527 6.207455870277279 8.108877185816796 -0.2060829172381289 -0.6334758530767864 0.27307635253954265
P 4.660340163593805 1.110763401025626 3.703881016896152 0.022218959299200442 -0.7058179542846231 1.9073811077300569
P 0.051326374589343235 5.637104616900389 3.4854203748272767 0.20450451700741554 -0.1599951217411309 0.3006825442925854
Ni 1.4802020311661612 1.0180560344194414 2.6849028760830924 -0.35338116023788174 0.8735207290826569 -0.5170573303750257
Ni 1.634106194277315 6.544787857623368 4.7674173978090595 1.0564038111655547 0.03082289891812756 -0.006990572385220219
Ni 5.862600723030269 5.530543075878823 9.052021332944307 1.041418393500316 0.3716596468320954 1.1533392854420395
Ni 8.691561725100884 2.1727843122730173 10.096074265052584 -0.45941499727120877 0.9470481088478465 0.6469350639054858
Ni 2.211890293510697 5.200038830291553 7.091406386405253 0.20071933893337046 0.09804696217310857 0.0931153291994461
Ni 0.7296733560133288 0.17171589895340586 8.923869316461587 -0.17492680335029875 -1.1433238101875665 1.2585750520541032
Ni 1.3330894841960546 1.024739273707174 11.315416822852315 0.947291335206904 0.944753913497031 -0.10029436344638856
Ni 4.235502898600631 6.791878051776179 1.4975883878591534 -0.37987869230777804 0.6389978113362801 0.19306799303569977
Ni 5.705806510497393 7.826190614192809 7.960196787035405 -0.81364693554516 0.1118211331390655 0.2829457891344547
Ni 5.293929310879755 2.977500510942698 4.877884118111727 -0.01682581330808715 -0.4138164827058034 -0.3272564381263719
Ni 0.7685815494937092 7.267769846084966 7.052068298073391 -0.41308037587072727 0.26943824156632307 -0.17688546973856634
Ni 5.170930613772144 4.477905793847587 7.098398499724932 -0.35279854826153434 -0.11228316037714857 -0.9710560417266697
Ni 8.38444881702068 7.262251657970365 9.15760928856693 -0.38018208248080976 -0.5216583194821467 -0.1444916267888931
Ni 4.577702812941434 0.19723051964499208 10.26070954292277 1.0145272255364268 0.20448677639560267 0.7348228261574055
Ni 8.10568548748668 7.286275193788431 4.8053809063847135 -0.29532462241478175 -1.3341492870459928 -0.5788975036102739
Ni 7.359483758202433 6.040356825275074 6.972150303298772 -0.1535830475672 -0.41474105140260187 0.2610009094322473
Ni 2.138175970447893 5.2692193883240295 2.6220623639695186 0.3869564250901658 0.21349746453464524 0.3998124551172275
Ni 2.4694569168172515 5.188388318560235 11.446080472910602 -0.7480652929896084 0.36873758808929397 1.5666510605972825
Ni 0.8946879528701163 3.350750393758129 3.6104926823949737 0.570267852959734 -0.4449368582596918 0.8562192616897318
Ni 3.6733521604578776 2.7343209149136545 2.7392963156212384 -0.5817521994502498 0.5327050642146116 -0.7014239389819856
Ni 1.0676836018330784 3.2930668135814414 8.273948680521572 -0.05762973469832655 -0.06611360379962163 0.0050460470643396965
Ni 3.4234712623322157 2.833557986932043 7.272920456038741 0.8410155573660999 -0.2909792009618924 -0.05388620849549429
Ni 4.049212119157302 6.714704700811752 5.947977298650167 -0.12037056537097332 0.6445449664067545 -0.10237412879355272
Ni 0.8202267326598861 7.420093513418615 11.335772705326127 0.35995804212445104 -0.8048370505630139 0.4761762758899477
P 0.20050891945775828 5.421317270546607 8.088560138382087 -0.00986866526396365 0.11266625474818016 0.42443822408570775
P 8.462326617531652 1.5945937998397057 7.952623051269604 -0.12039704773353459 -0.006570968349298361 -0.5663132391873602
P 1.883969029594091 3.127241196605683 10.422224470557941 -0.4348535058817607 -0.6576941021942028 0.29186520311127157
P 3.8747524795341484 6.164430259511389 3.7142969356401276 -1.0157520990824636 0.578211790397159 0.2528381711157968
P 6.9504062939620885 3.881453781630767 10.478362777434452 0.0019267847090676494 0.3789759779878506 -0.815892537046227
P 6.458483756767187 7.80313343865013 10.096233217770779 -0.5989307681120654 -0.6556382481064386 0.15368126370796112
P 2.2583207437515536 8.329438532559085 5.871495753266063 0.6329624037754776 0.8683240153730659 -0.9411739094552565
P 6.7816454705423945 3.9422893219580204 1.6064159082554383 1.0750725912196517 0.6108357470797674 -0.6383174974398039
Ni 5.154285735383912 3.0733056492727915 0.48749082703477975 0.4447370835440599 -0.8572549020430978 -0.40475205851069
Ni 1.5563187078107714 1.0658231325178449 6.994647531765991 -0.20764666218082303 0.8640590694491248 -1.1872783613916456
Ni 6.811295571328376 0.7501412279022326 9.266568667468082 -0.10913792987994753 0.18372923213327713 -0.9495703610490679
Ni 2.873016192942995 1.394186935252152 9.191925012888104 -0.6718768214524881 1.3358906952171314 0.4456580526964325
Ni 6.317593847458226 2.0633959416608296 2.638254768995162 -0.06827255912415339 -0.14901034059485305 -0.1868829472709104
Ni 4.1651121323728075 6.8244452961972115 10.270292766177112 0.33937379021519615 0.2505424331030846 0.5604308122646542
Ni 8.362448315797819 6.911815102777654 0.5478061584661236 0.3024285804494146 0.7050589646314116 -0.7250210095756353
Ni 7.5579940278569815 3.631509663674005 8.288950746441644 0.2568418929585512 0.8570283878545885 -0.08002250057122993
Ni 3.1166925162163968 8.39798689228056 12.396851641090127 1.0439429596943828 -0.05082813839546085 0.35824620163966686
Ni 0.19095369355718902 4.764743198953521 10.314138428466416 -0.20294514294009566 -0.4080088748850909 -0.4281850927226496
Ni 8.594257373633274 2.3253066705044105 5.736892604589793 0.7452975004364841 0.19501071858436736 -0.06609586318780875
Ni 3.788908980304554 2.9397763345847796 11.579096803826257 -0.8849569959440566 -1.5479164603022566 -0.1536514389112902
Ni 1.1427706983712003 3.2007839229840718 12.735995328167458 -0.27607040217086 0.5956986343280127 -0.8107814410719069
Ni 3.1418178833764947 8.362701195122218 7.8760882205992875 0.2786088523219976 -0.5943668028904667 0.7074907140013558
Ni 5.613613933944452 7.7421443644473475 3.52376681495131 -0.6428801771098219 0.243718982423348 0.8915469904567483
Ni 3.1053129466183655 8.441626638548566 3.528670867563795 0.13859068792342583 -0.7374481795953944 0.7914770843163401
Ni 3.2853810884005488 4.4508025491144965 9.471241967514453 0.9625024957297036 0.010045814271776247 -1.770929834747137
Ni 7.548818120943014 6.300705121150037 11.318430602514907 -0.9529431341760427 -1.43192602627685 0.2832188402901832
Ni 0.6260280554863696 -0.10859902586388005 0.07383263446100541 -0.3778084400423106 -0.10227488421152707 1.310262453126066
Ni 4.726441012711258 0.20339716259859195 1.7787965185758403 -0.45011840246063123 0.4754599665492134 -1.9449942900971406
Ni 6.1009575490868135 5.672905104111973 0.278337950384739 -0.027856102980319767 0.01124471967588386 0.14440780882583518
Ni 7.9301149851170525 8.665795128225342 11.506475280701043 -0.08260363103484483 1.5988847238200077 -0.355979002872045
Ni 0.12107049225905595 4.805185828048748 5.667496195991132 -0.29224675482040635 -0.12125631041003633 0.18227038819956354
Ni 7.912585029093418 8.759342415444715 2.6156383259892966 -0.3757327884602045 0.39759385019935395 -0.43907628571385676
P 8.390725643108484 1.6066597561753961 3.599124853622718 -0.0866790866557991 0.027308458006965877 0.9853223218376967
P 1.7600130036155341 3.179090489512269 1.6321256072829908 0.3531736722127659 -0.7325036911059256 -0.12674690121096235
P 4.794104294797331 1.0497833582272862 8.058832367517898 0.14032001190970672 0.5218298120630045 0.5146245525638169
P 8.597716401534898 1.6293918011581303 12.473200424828919 -0.9370884265319731 0.16332007234930584 -0.4875546929302184
P 6.419224241653978 7.831916524609596 1.2303093922147235 -0.35226607279683203 0.09368148611556125 -0.003108720832310775
P 1.735826902517496 3.2262434521085566 6.040796654671443 -0.6624619558964914 -0.1432927213847855 -0.8103255844814109
P 7.001117629908872 4.031745382964767 5.957150496142802 -0.1718473930940266 -0.23391922272410684 -0.1854305310951
P 2.4683821796885486 8.485022536896615 10.344698894820242 0.14813102331369327 0.23446378237366716 -1.2561813550109464
