# total energy = -340859.0384092107 ev
CRYSTAL
PRIMVEC
9.38612617774788 0.00000000000000 0.00000000000000
0.00000000000000 9.38612617774788 0.00000000000000
0.00000000000000 0.00000000000000 13.73754442530840
PRIMCOORD
 96 1
Ni 8.384063378880729 8.317177843483854 11.917182437850231 0.30595227733195696 0.2844038617372199 0.5453253240817835
Ni 4.0457770707827585 0.11365847954361932 5.313435364338962 0.07409096557814336 -2.1894810039244486 0.19666008126233228
Ni 9.0374879413546 8.976074517540154 5.986478807824136 -0.1335382131011829 -0.4854263337333059 -0.10384737090496954
Ni 3.5593504658981647 1.5495461904483014 1.4477170457714628 0.23822196386451877 -3.0990614548441404 0.5875734341177171
Ni 2.34369694324007 5.555507313833706 11.566819934393326 -0.2597775785481074 -1.1315846673737673 -2.459841243084409
Ni 8.17720254326303 5.934040397894968 6.512145990569201 -0.38864178321238874 2.5594462937732567 0.8380029957920213
Ni 1.5385831950310196 1.874118434908576 0.34718529973366064 -0.7347207533619023 -0.04480970011552283 -0.9723153680550674
Ni 6.047011812999764 9.226533909419215 12.038979627433513 -0.06582666868682212 -0.08388429751948134 -1.0473977510122028
Ni 4.910924482252883 4.388577172349507 3.626354266485328 -0.7047087803808443 -0.46098337019959323 0.6698533632645561
Ni 2.0283137163427396 1.6848659720672654 6.469559258713644 -0.11071658722097706 0.4452150516217429 -1.7486147161897048
Ni 1.6075712226997014 8.90300352496863 1.255740729103016 0.6149541401235151 0.19555245002045032 0.032150873700931726
Ni 8.222687710893293 1.4347726391105269 8.490105017002152 0.22658926472159685 -1.0637985609677292 0.6096471260883048
Ni 0.5299312998838241 6.0635783257664615 12.897314588497933 -2.313604094359319 -0.5372109225047651 -0.6121858333497586
Ni 0.23749996741618462 1.543745564448404 4.942630816601836 -0.5779947892903465 1.2639165188716748 -0.07824998205183943
Ni 6.891087371120746 8.281322841348567 5.107962736788229 -0.19473818164927106 -0.8285017411698056 0.8463891629731874
Ni 9.008362791714339 3.509068987772841 9.855643711937207 -0.2804497621854783 0.6024380099343755 -0.48078189298275914
Ni 6.295744157655555 6.876557647742363 12.449608570081585 1.4665747266989713 -0.27699651352955523 0.5162685159251431
Ni 7.264645808288892 1.7045674509892466 13.341216409959978 -0.3875344090808229 0.21464083411046905 -1.4120953647041683
Ni 8.671184979749434 9.116368946052233 3.251869418659918 0.2474249705200255 0.44869066887516923 0.32114723990484045
Ni 2.5045751465381936 1.307890984957433 8.884125209315567 0.8521204090300099 -0.1366479623747582 0.5592167373518949
Ni 6.571395912291454 0.8627473789973507 6.250692629056354 -0.9495870732196162 -2.3813508628869893 -1.9374637860480501
Ni 5.68830222750126 6.767134188346241 7.958873738637769 0.46845319621407705 2.1128868123084774 0.3101514030149691
Ni 9.382437465824223 1.2453418398711613 12.060931899421474 -0.5710319848192682 -0.8839722634332842 0.8502666436507227
Ni 4.4961515648815835 6.75414378966686 11.1960989231795 -1.0483981672522589 0.6434165092292661 -1.0608489914211021
P 1.9683551420913739 2.5122154532759224 11.614846865002184 0.1672399762290023 0.19134843924143174 0.3800699823829777
P 7.2732528860266035 8.620912887750324 7.426118153376325 -0.5963000153574375 -0.8637885893965574 0.6689053975289899
P 4.074939764927874 1.926267752150371 6.24173544881088 2.0349466481875726 1.6245039670500085 0.6495305925468039
P 5.106418719026122 0.5639438054434163 0.036265175850814416 0.3721543270803268 1.3916090718253582 1.0111472533206005
P 1.1134667665725246 5.135628343802304 9.274340266062058 -0.330473916622405 1.5825240230737971 -0.005061216572991283
P 7.82768197532747 3.850874159960966 7.7103891877140125 -3.326376027767536 0.8372676602878936 0.3284550864201634
P 4.109696590296191 5.874907802750383 13.08918765777803 1.526159014020507 -1.8979929816469376 0.8078861218019829
P 2.977842402471564 3.4793618983073475 1.967889590231188 0.5383787175606212 0.8652001250321036 1.093338736518691
Ni 2.557954046313948 3.653061550013011 9.72339319359003 -0.7609444629451217 -1.4714361685563302 2.0369541655359047
Ni 2.467565650878654 7.008582899060415 13.2798236356232 -1.119809272005394 2.497183174067977 1.4204805034440697
Ni 6.308396655791254 5.578691045580869 10.258332930421341 0.02165048839024013 -0.7095601949358749 0.5764816950799297
Ni 3.673176018488383 8.881678246211727 12.527748070808356 -0.7410230414308464 0.1937493353734405 0.024316979478809734
Ni 2.921319150414312 3.931106766833332 5.134997596120761 0.683411561564965 0.46318937671197646 -0.906748123677219
Ni 4.92239432848569 9.227481908166771 7.602631765720774 -0.5119711741013699 -1.942214156248842 -3.098875306975263
Ni 5.522965614251758 5.166133253995938 0.8701427078409092 -0.5728075886624523 -1.5167989129618458 -1.294878771581144
Ni 2.072550529186617 8.038813498372276 8.704891497594467 0.9901505964642754 0.5992331298438325 -0.09011665158243834
Ni 5.509693631785973 4.5281300968907265 7.773279987794452 1.8329461285489335 -0.8892985607422039 0.15424536374154726
Ni 9.070132888324896 3.259097674456877 1.2811095510326642 1.466802526439061 -0.47415307481233177 -0.514273082761669
Ni 3.164551225109036 3.6172159340039367 7.452535405604013 0.3421133006335463 -0.1721839504978389 0.18201199233185428
Ni 7.974199405519052 5.828127349702667 8.69489058011406 0.7499892494851986 -0.5573688855098788 1.6325052400879305
Ni 3.0208308605290557 6.610301405446105 4.694435358365452 -1.3281920410212933 0.562607765311315 -2.0592764831821886
Ni 6.123968661823644 2.179139378466284 7.875665729755747 -1.59159178970302 1.4042028493299687 1.0509733841786029
Ni 7.134403920951391 8.022556727770622 9.899370858127694 -0.33009570734737986 0.21542502057466123 -0.9507656669087496
Ni 7.795994413230943 5.686284210365372 0.10405647242728441 0.14530023873311748 -0.7764021922610886 0.6899827870245794
Ni 7.997721037809897 2.578819404886394 3.5977256429217572 -0.2846131495345485 -0.4231598715939164 -1.681533092049859
Ni 2.047592819585117 8.44852729371454 6.230278743154773 0.07987517636008824 -0.07543102454580558 1.058643499129351
Ni 7.028190516720262 0.6393087672614998 1.5839247549302171 -0.3459059349067591 -0.8760555796893688 0.8022353512741086
Ni 5.643633652851564 6.276174084500562 2.7038651327521417 -0.15155033340788737 1.1196367509832716 1.9677632083625398
Ni 8.750338182107255 7.825814136210997 0.5851780387760501 -0.24147723757702283 0.3161793543766039 0.8860432870296998
Ni 5.579179124143967 2.635201865050444 2.177140133582824 0.528493083015793 -0.09039175962069594 0.37657559607647406
Ni 5.210886303781554 8.469636691568533 3.588851060586963 2.980461351110028 -0.24439878209919197 1.2991282908861175
Ni 0.5387439337856099 0.3222491782224516 10.135533302558466 -0.27733847025000624 0.624149176359222 -2.2983304560296998
P 6.825234309607349 7.850405786890175 2.0636543587615317 2.0168885051342813 0.9239050950724798 -1.4349928381276318
P 4.606785834559237 3.114128955090511 9.157227692071897 -0.2940048751620936 -0.2648804469923115 1.2206011439134914
P 0.7851841864200828 7.412768266062969 4.862046229996466 -0.018518370519161654 0.7502946965407594 -0.4126322325897152
P 7.378255479976201 0.774264367183383 10.612541868400507 0.9714329654501141 0.30419261432837286 0.12128382121386208
P 3.639423508624903 8.7426791031171 2.564153582677916 -4.9859441855105295 0.5444940864297397 -2.851369860926289
P 8.026527059158902 5.136548184171219 11.647390441809375 0.0650288553758751 0.37870498371465106 -0.4828858266996393
P 0.7627475903195091 5.744787935053657 1.3720564209776565 -0.3905228022851855 0.1303749848818529 -0.6247724117655175
P 0.8053380766255513 0.6212423515258972 7.727918717030207 -0.8160277770725107 -1.4616482359316312 1.3304196448002312
Ni 7.478818436226849 2.6714041538556286 5.808096417750595 1.5397295536160902 2.3699889009069506 0.47973596821674797
Ni 4.908005397000507 7.669169075835129 0.6533147447971742 0.41633976334828937 1.1267707909248916 0.28616918116775875
Ni 3.766154984758582 1.927675671082385 3.9251869370305243 0.03617490725866028 1.149483144920743 -0.5154460200238478
Ni 0.9492095578375679 7.605380962088685 10.692137157302984 0.35649990837252155 -2.0757541691222383 0.8509055627863022
Ni 6.27822026001509 4.155782470004112 12.519834627797817 2.110283313247359 -0.14271936537981875 0.3766429589792997
Ni 0.5822542604605679 5.755581980199097 3.585938545622937 1.6674012806341671 -1.135104764711884 -1.022683278984658
Ni 3.9587676807842986 5.736406124345067 6.514852010756532 -1.1684537724859747 -4.63909054197852 2.311553896698509
Ni 3.3018233209803927 6.290131254179927 1.6785772675042698 -1.0435758061629512 -0.7348027715527473 0.899815658223444
Ni 4.354101930767593 4.189121990314202 11.552244218996496 -1.5108357533998755 -0.08832690667186724 -1.7994976190825007
Ni 3.9486963673572926 1.3470311312674197 11.095237488115265 -1.8943854668013371 2.760443568958362 2.070417073180041
Ni 4.468255997775281 2.8530163099592105 13.506410354091035 0.08949778705151683 -0.3250959401399433 -0.0007425345929793663
Ni 7.961518749004713 6.831851528587815 3.6300223646095353 -0.3372217768691999 0.2401693173988767 0.18792038739648925
Ni 1.7058064196494191 6.0218569947477825 7.270581594506263 -0.9420177455127906 -0.5525205562786419 0.26390702733544874
Ni 7.7357917996980285 4.756616567304158 2.516800575931181 -0.537496572065984 0.02215930970585861 -0.561282104521356
Ni 9.361046484183824 3.391789340736082 12.132051516353226 0.39344717502083204 2.2432628256315943 1.6721310820096686
Ni 3.7483119588268585 5.539607216028163 9.056283659096986 -0.1814607478140746 0.9675521423384692 0.1536475822565483
Ni 1.131093911601339 3.214748228098439 3.3501196334115764 0.5059038848613675 0.19911497056072802 0.07718657378433158
Ni 1.9319275862570673 0.18496112593653202 4.07826526944529 -0.16150770173091542 -0.6124511711960033 -1.5146492136086946
Ni 2.1378779676320625 4.271588495225364 0.087116391837293 0.18651939328390457 0.4367368389474027 -0.004615644395140438
Ni 9.199145193128437 7.84381672628835 8.14872691355674 -0.2897425003413139 0.007134039941619971 0.3836042207884813
Ni 5.001669550484286 0.4766115327032145 9.53130048895654 2.2231696544261452 -0.3760994277710039 1.9746504224006767
Ni 0.2740439112155378 3.146745743682167 7.549426509279967 3.2065176261462907 -0.8285703896242117 -0.6327199487473684
Ni 8.284598599397052 4.735216199537546 4.830244157160136 0.4305813608689681 -2.7782937097659057 -1.6716248317972113
Ni 6.535653543670727 2.9057475670262383 10.34952290103526 -0.25403373408579477 -0.5392534068560907 0.13555112976615366
P 1.2848574312296854 8.95382001228812 12.546265959214825 0.11538031124523354 -1.1198049011300197 0.6019723831518665
P 4.669212960004733 7.332366708918761 5.866617976078685 2.218638342214695 5.504606912699462 -1.1933183969381382
P 0.46110940664912 1.3093176761418737 2.328499866287912 0.2958329295097679 -0.001452416175810402 0.027488435228255885
P 6.38249073612004 5.89922725576937 5.002403545554176 -0.09087101324995964 -0.47437624656673144 -0.754968447867345
P 4.121663901218309 7.753278152833641 9.35915517975182 0.16271432044450687 0.8600250085890672 -1.0513523647845764
P 7.0476761147393345 3.4755511310646967 0.7809585523987984 -0.8021307073754443 0.6734886460242981 -0.04591861690898543
P 0.8965543283928689 3.9054263255133983 5.584737588087558 -0.8336110373719128 -0.39736013692199307 -0.5630445957384174
P 6.413324160731145 1.0779121204760667 3.785778558832992 -0.17833454348026703 0.28042945047050416 0.5460873990587884
