# total energy = -340893.7012448264 ev
CRYSTAL
PRIMVEC
9.04865467294661 0.00000000000000 0.00000000000000
0.00000000000000 9.04865467294661 0.00000000000000
0.00000000000000 0.00000000000000 13.24362076589363
PRIMCOORD
 96 1
Ni 6.434842107570212 1.779671281850631 11.367211226858307 0.17622032535074167 0.9261162437911856 -0.39223772809376317
Ni 4.534371287323289 0.42240114845177146 5.890100434850321 0.17323090370511457 -0.21847923401995276 0.06503374047188155
Ni 2.726712516913876 1.8713612985225132 4.708159746831842 0.48378545569577325 -0.875328471715357 1.0454393417342511
Ni 3.182393711977462 4.59152258953385 4.750831392013058 0.5646242815207114 -0.8549069706362115 0.9272454722996225
Ni 5.0346442520660455 4.674697822263341 2.607947116063014 0.8631815519401779 0.40764814911156244 -0.07896706272352207
Ni 7.247791330686292 6.005338670153104 2.5867841227745307 0.5793487322150797 -0.8707701629207133 -0.4783876817189696
Ni 5.172880547802387 4.394533379729558 11.687164413230006 -1.313029731458558 0.21815887456605654 -0.4644913833528516
Ni 5.663779106419407 7.681258078801346 12.400611011325788 -0.5569819344841053 0.34261183753651964 0.018872154314154597
Ni 1.8712074713949676 6.583068117942471 0.5056442460904746 -0.3021269900485958 -1.1631624421800484 -0.5641429710089187
Ni 2.903903270537561 1.679556967781974 0.22364383154615994 0.10086463412756178 -0.2196115478521831 1.03274863364046
Ni 0.7257464342412556 0.15830259209196784 4.767107206972864 0.1308318699136134 -0.8239053800483747 0.6311978556758872
Ni 8.704009406580829 2.143961065842865 1.296342827639777 -0.16654732103735187 0.5195525859930537 0.23794916981910635
Ni 6.755300208866443 0.7163693135191526 4.558719407017427 -0.6684300005544682 -0.33378858281793483 0.660787653517862
Ni 1.0079929721896437 7.285026544206946 2.698480714681934 -0.5095985601041353 1.0601385956176388 -0.26533836046533654
Ni 7.4936251778136675 3.687625339419931 3.794045660852512 0.3569431665575272 -0.5885864487632636 -0.6740334627841746
Ni 7.757203436536183 3.808397731852539 12.620799161694904 -0.16293080733068713 -0.9345880287076226 0.07779849633671762
Ni 7.896489376201661 8.682337878905988 6.642880629459574 1.0177899554480987 1.315307471749141 1.0776758331704537
Ni 6.976367888458938 0.5972066767330395 0.16665088079042623 -0.6165214846106349 -0.6783218057468834 0.7789974637920907
Ni 1.7754365115158397 6.558148123280045 9.205123896197808 0.7715358653077229 -0.36947806579974435 0.7199412810598826
Ni 0.19207126605010433 4.7716089126172205 1.285405718871268 -0.809466064694593 -0.3037197884570124 1.971359924574863
Ni 6.325977744540565 1.7287816485966427 6.977189506293123 0.0064727522085372404 0.6912691099361707 -0.29238045218479325
Ni 3.4376200625396955 4.131995716281617 0.2753360804597553 0.02082927804052542 1.0944250276043344 0.46555170629656595
Ni 6.005601081135388 5.380103785915756 4.775106217605248 -0.6125535011018225 0.9212296051228458 0.20013312741259726
Ni 5.236139691841973 3.0323036787655298 9.220698440429096 0.6875857475473125 -0.49917762188112735 0.5561908060413776
P 0.17437843178596427 5.476372421795768 12.543735390256263 0.4641476268601878 0.46612377674995203 -1.3220129087937749
P 4.095683465526237 6.141231364358011 12.560501642293303 -1.0916016992229265 -1.0927615238589825 1.0779136602128727
P 2.4341876122490573 8.435843479995622 1.4418723389527033 0.9563367332386239 0.7068371395777568 2.0751394183563745
P 6.240594640098062 7.839573339009701 5.75283053542115 -0.7738699127575382 -0.37453362594578077 -1.191078451864026
P 4.839817670701957 0.7348982434647771 12.49560740637445 0.14246071240179337 1.371052587830245 0.38562099410819395
P 4.004255859836639 6.1990884616243696 8.323045666828081 -0.9239637162245571 1.126023371235906 -0.538026476427525
P 4.725578406862767 1.1899614154218112 3.5189231286404086 -0.26068774906720266 -0.5345315759003891 1.1937734821976858
P 0.0649150478243445 5.639718733940326 3.716106884517772 0.38891174904432374 -0.9923589169695037 -0.45130573790051304
Ni 1.5106004898092724 1.1668963949444964 2.6927058633407714 0.5699485219471023 0.11202193629596191 -1.1258642199502222
Ni 1.6417607376785046 6.761842386114422 5.010287083717346 0.6714114517802954 -0.058607782340879704 0.10828612340261351
Ni 5.872350594062444 5.491809426477721 9.4755456523652 0.4332974742485506 1.5637724534979067 0.04739468723387967
Ni 8.63400901489291 2.4001194278249347 10.098750923384399 0.0097899895072283 -0.40930728198154026 0.9311136970057771
Ni 2.4013500448453016 5.339991100244538 7.021528818510029 -0.5369170454134301 -0.044953681892554845 0.04180330918903123
Ni 0.6990628568047894 0.26205175069798775 9.376973229033826 -0.753114939598374 -0.6944829888877783 -0.4358258970973591
Ni 1.6959983731202555 1.296997950230031 11.342803386044064 -0.6904694968530107 0.0007373923866567946 0.5229891224784284
Ni 4.0403328455734195 6.6668224645639 1.580612644748121 0.9170189094756078 1.0096033058722484 -0.6810168360805433
Ni 5.712216554287225 7.86528961527354 7.938226295366672 -0.9254778388762384 0.19989067238448802 0.6812019555081559
Ni 5.184589506804993 2.8381195518753106 4.928242932808043 -0.40602424035489426 0.2764619811823239 -0.5131237996485744
Ni 0.8788777202513149 7.672399445985619 7.3739024293101965 0.49789155607985225 -0.031341747536075056 -1.3029062698713112
Ni 5.318274329296889 4.747783805156738 7.422241246843292 -0.5196821695923823 -1.0126894009967398 -1.7733649265511908
Ni 8.257793104188593 7.261518139656118 9.145329481989828 -0.627602682125461 -0.09915613607688731 0.1604440363530914
Ni 4.318207978503137 0.44451967966195094 10.365305284592198 0.7280955347359008 -0.595800964233832 0.320542516441306
Ni 8.199700741903634 7.420584438193078 4.579962028466052 -0.8028891828080237 -0.5293523456922948 -0.10848075591192285
Ni 7.104505885704622 6.1701780103003125 6.902946200481308 1.2854006568873797 -0.2232090353954543 0.2860123438749203
Ni 2.2737187722550614 5.176907199082263 2.618105135673776 -0.2521799687065076 -0.12165688828256468 -0.2578947597030978
Ni 2.210332947051614 5.4151854196507685 11.576076795774595 -0.05895745237081459 -0.9157248732545327 -0.5113183710087195
Ni 0.9470593323723682 3.466295248845152 4.092040477199769 0.44752390226057764 -0.08038682588918414 -1.2568130750576743
Ni 3.6789295823863104 2.9438349831175485 2.6985992520566895 -0.6793672162922623 -1.1498724099393616 -0.3228403113365472
Ni 1.108016799712686 3.6532404520861554 8.32120517049027 -0.31392295424225936 -0.26333007178605616 -0.9508034621252206
Ni 3.7730898817534877 2.9781474812148323 6.987294138841974 -0.3058077813342927 -0.5326197035896569 -0.14895866142131117
Ni 4.1941961677375055 6.815573296900728 6.013384733789207 0.031157399439410854 0.5189164950709515 -0.035339041620926236
Ni 0.6259533474095323 7.320678243179335 11.404584884793755 0.8668271191125652 -0.021870060600213948 -0.22383458479459517
P 0.04474650167217257 5.603225510093716 7.9164009405642854 0.23196878386595535 0.31726795945509234 0.049272106762250634
P 8.404046507866441 1.5119306420298158 7.944079870002519 0.4158373697905742 0.2447574509901914 0.043405106458512345
P 1.8619326004694094 3.329153840310755 10.41239900725763 -1.4040326423006917 0.36697715375476153 0.7344554155156577
P 3.9108827934163144 6.308740057600869 3.7165973215950063 0.45866680625127454 -1.108006108722879 1.1322354135838888
P 6.856183658572829 3.9564337204790063 10.626720914874513 1.9666864303585938 -1.0838516229638624 -1.6385272779122944
P 6.252077382736631 7.743476627566357 10.126244355404122 0.19105996146673548 -0.2203903349997366 -0.046616414306958426
P 2.545223652373469 8.680672926466668 5.84058257762786 -0.8880135233821933 -0.4665845184364545 0.8312762185911491
P 6.896893555445108 3.830946979019847 1.6059479726549208 0.22352553819460858 -0.6035662100015476 -0.1787551759574534
Ni 5.323386819124148 2.6466681186626704 0.22373250836086284 0.4707098534587377 0.2744500929586177 0.8933789014591647
Ni 1.3705454145060656 1.1308103605531548 7.13093519594791 -0.007479339096180668 0.44768922419384827 -0.9144655469261348
Ni 6.801765050039848 0.8470056442892729 9.160162036547069 -0.6865213108385403 -1.2154298841251971 0.8715864881744214
Ni 2.6645935033490415 1.8721485314693656 8.965852133358446 0.0910864716948754 0.08853542313824753 1.081051948731538
Ni 6.46798732922906 1.6303956275492357 2.332585699370486 0.3536560111658232 1.3877192498526485 -0.09283790716834332
Ni 4.062348222121598 6.869114185941242 10.529950078666337 0.08073778147069967 0.7274463311876763 -0.7483938799736208
Ni 8.407575483145434 7.065831936108686 0.5466599874869326 -0.519873202557266 0.3057507028441121 -0.6168523855874924
Ni 7.496819352873884 3.747690308399301 8.335720117272404 0.24301372882620725 0.12158695427657769 -0.8468146805463803
Ni 3.075483858333103 8.368602927948967 12.615873074151612 1.4577746119088377 -0.39850299227718466 -1.4603061200814398
Ni 0.027319697852141195 4.787516447336372 10.127118455434765 -0.15213860181118957 0.8134039662964185 1.0642955552088058
Ni 8.516258873083851 2.070558380039815 5.7042655015240165 0.019832204234578748 1.1051668395018708 0.6600962838777922
Ni 3.695986296234776 2.653680825947848 11.348193669566362 0.36401755690580534 -0.18415629236836673 0.0963333219161115
Ni 1.153260072520286 3.3150288905402223 12.814024131201602 -0.18357830837770964 0.03127669862609452 -1.496796244587674
Ni 3.172195878286629 8.554579925151888 8.293618537328562 0.112807922532367 -0.6419504662067009 -0.857003448153924
Ni 5.782750816594273 7.637435444759905 3.5009380228339313 -0.6465388569083317 0.6010449862415906 0.015267210571715643
Ni 3.351847865951047 8.3596357112785 3.6809058085425463 -0.6768465067529376 1.2062474462949806 -0.2147341651552237
Ni 3.42919576514292 4.453783969798391 9.513951761786116 0.045439877500354 0.6648854777363195 -0.41543499214583296
Ni 7.290139034034206 6.091355180414913 11.397671712708753 0.597784570322764 -0.25833236146114863 0.28549760902203086
Ni 0.9238766793857538 0.027507005001564656 0.1963847596795809 -1.9226344343447015 -0.2136553302687482 -0.20498634173984048
Ni 4.540053842387923 0.27716481354663847 1.4921186128673678 0.07193149603297934 -0.8398181946238892 -0.053531396259236835
Ni 6.034059099731368 5.3598167023888275 0.3300089561859153 0.11156170883009173 1.5288375892939345 1.1377108348761633
Ni 7.783643605164945 8.601307177307577 11.378521140194753 0.2960432457483611 1.141891191506098 -0.36795314451478567
Ni -0.23404616483008334 4.799822617540039 5.686638722438176 0.1406671108364803 0.1113087122790212 1.5915107999534397
Ni 7.987944127854944 8.705764845565763 2.2477075098525163 0.3427612186301904 0.21416492291531505 0.9288683526150262
P 8.553249772931343 1.4739353415259933 3.5601107944735353 -0.44975896223868345 0.641044923673296 -0.9627678335759483
P 1.8050165632774486 3.236305595854998 1.656062136212987 0.04261500645704918 -0.7883079425597391 0.025786622045800747
P 4.597965231581651 1.2224460852976677 8.323615732065457 1.098526451367218 -0.5838607611528203 -1.675535479705527
P 8.721482358539124 1.4232176327086736 12.372269720373652 -0.7137595777292031 1.1856025163511192 -0.9434400797816139
P 6.309346317456491 7.585233756594496 1.2423259793693273 0.5346519035283374 0.0070288818223233785 0.7603865335591228
P 1.7348804417711072 3.2860460499796735 6.187896180797226 0.1908748420391229 -0.132622643265449 -0.5309955377226726
P 6.805972674410954 3.7831610342804596 6.020828157031513 0.3387744660683004 -0.1338644860923501 0.3975452563496057
P 2.393667737122571 8.474309310536643 10.424159543591239 -0.9445795927026958 -0.9967105090699802 -0.271581513161571
