# total energy = -381170.5280193054 ev
CRYSTAL
PRIMVEC
9.20307131016938 0.00000000000000 0.00000000000000
0.00000000000000 9.20307131016938 0.00000000000000
0.00000000000000 0.00000000000000 13.46962512313511
PRIMCOORD
 96 1
Ni 5.103802367672477 7.59721803456143 13.539666823280648 -0.4792220046948069 0.6465820514414413 -1.51461964592234
Ni 1.6284006064783472 0.45041578629149054 11.608553279785726 -1.9403567913251294 0.5335874668195649 -0.4279786331387984
Ni 0.30890200234262477 4.786526490920673 4.035903763877714 -1.3146284434042457 0.10152360786779933 1.6559349318657803
Ni 2.1924016168005394 0.1105123185848011 9.38975633471508 0.1884153247550368 -0.908143718473165 -2.0093189203171393
Ni 2.885889837736159 6.741157562347475 1.2851748300984918 2.183529157216388 2.8052010756797108 1.8108762932330877
Ni 1.0529785849002016 2.3916297003371043 8.325022667077386 -1.255606970564715 -0.773241792255236 0.2115511394415518
Ni 5.536687223793568 0.5615069780495385 7.2822585708097245 1.7483614625283177 1.772948922059695 0.526097586200423
Ni 7.014093042458519 3.0922226921748956 0.5419302051698739 -0.9295910897136637 -0.2998662190388771 1.5222745913644364
Ni 7.470390511500759 8.400728970698436 13.161561407368104 -0.13403983532794977 -1.4927518993149713 -0.2123021586749634
Ni 4.98747554875608 8.479939803800765 5.440274010159711 0.055819678072781286 0.053742483828778415 1.107808905110408
Ni 8.833733466744047 7.952033238398676 5.603552136992706 1.8774776353024054 0.816258147915762 0.4963185551657775
Ni 8.010445130777029 6.246823800379486 11.801438606708588 -0.30431885549359206 -1.2918201872604784 0.4606516978917872
Ni 3.6187948122650475 1.4483333170069677 6.036466442941371 0.007060763501523324 0.16793468830318173 0.04801895108143989
Ni 1.428739978599293 3.56900619752314 2.415777638640485 1.2930188355542698 -0.2710729489562686 -1.515607720867222
Ni 3.911931033477476 8.363815452448938 7.776270225288626 -1.6493796472457658 0.1761727599422579 -0.26108061363024715
Ni 9.004855371089892 2.2790761405785958 3.388027804011197 -0.9057466789958981 0.7425507909292824 -0.15474312931357223
Ni 6.091890098128097 7.226960077390187 10.636086842243767 -1.5329143304664696 -0.40048711258674896 1.973898117615684
Ni 8.184594845520303 4.13955059140938 7.852441284001075 -1.6720300376554302 -0.9597573288843987 0.5513797578059795
Ni 1.8368133549894816 7.089272930411688 10.316466022971403 0.1755019591274784 0.07793116525983998 -1.0073903573813294
Ni 5.376701035499055 3.4160879678463316 2.745527357984005 -1.0126109823503204 0.7626691589457124 0.017869938301885355
Ni 0.17749963262979118 3.7198261269853177 0.16706242967622423 0.1364857257652811 0.978775007637482 0.010376201028001486
Ni 6.962252142857565 8.258108977601331 3.80510178395362 -1.2322919499878584 -1.3622892398153184 -0.4028931509250804
Ni 3.969707913948769 7.745461104110902 3.709602435281661 -0.5302180361266998 -1.632476186622208 -2.098599706261844
Ni 8.74193283235393 8.30458448674119 11.265307256649411 0.2986017505041567 0.11511805872278238 -0.25533059852034734
P 6.061087419100156 7.451883135484867 1.9037693785926748 1.033905630063039 0.87171941420786 1.4651742468070188
Ni 6.476964999797394 1.454278500948423 2.876182438322154 -0.4667192442421059 -0.7105436418950666 1.173873143729333
P 8.545364436370122 4.542442638760808 10.080694384644234 -0.002870122458943444 0.6241520045726993 -0.04942971538603745
Ni 3.9483383828155514 0.8868649918561199 3.810260105314588 0.016620896386132667 0.850101064607136 0.2524388787948491
P 0.7088453857082293 4.044860192688588 6.526477522405797 -0.1336145748650731 0.14555889171114286 -1.5102881084265214
P 3.3504332584990544 1.6970463139385854 8.126183873449062 -0.4335625549844791 -1.2215575942894896 1.2245197622416073
P 1.9707364458812078 5.372633278065427 0.3160988039559652 -3.4014057031098646 -3.4270326596493494 -2.0273019871581215
Ni 6.777132367343061 9.049223376944003 9.307712796323 1.009798709712506 -1.2560697691337466 -1.5073830189645845
Ni 7.428286461141383 5.865089613525589 3.064312538398965 -0.5777204525830373 -0.5422695679745951 1.0190893909858127
Ni 1.6446716362128562 7.568826560166091 7.424268400291786 -2.4727463811818513 1.6584942079525244 1.0541510105756362
Ni 0.980936944197863 7.137782318268361 3.756476437400876 -0.6633883243655027 0.6155094984063529 -0.23359114996072672
Ni 5.987665317730296 0.9681630814877396 13.446402900582958 -1.2859619287074884 1.2231647908756096 1.64198566877454
Ni 1.8517039240564699 5.9103319111357955 5.600764526751425 0.3510689671649373 -0.9264731129099721 0.5385394115082015
Ni 3.589492233829145 3.9357577845988807 1.0820630505506361 -1.3252951790894723 0.3331805169202907 -0.10231807874463669
Ni 4.15121088251437 4.046645588485247 10.831302386773405 0.18541947535150646 0.7983126191809349 0.7416974417900516
Ni 7.144408529472458 0.7941955875525777 5.3346586457161616 -1.2055455351319497 -0.007973248013463687 -0.6560704505478507
Ni 7.033309054950405 2.0872841385044087 8.970824254714175 0.25582476454794656 1.2179274537360703 1.1204643890908896
Ni 2.1579177093258766 4.27910596182459 9.862418704817221 -0.8573351204617299 1.3915321958408358 -1.468292480721026
Ni 4.291254015698771 0.19763779284758085 1.584580183355687 1.041278268378026 -0.17948639769652314 -0.18651990750453684
Ni 2.9620360481565915 8.945744045306663 13.185805977918212 1.7599918476783947 -0.47428471529418964 3.0190793205925424
Ni 5.5320028605951155 6.880169951566794 8.425358229621226 0.555407905128766 -0.8888391046072821 -0.23360374836621706
Ni 5.074683850658912 3.0938148234781027 8.346371951454147 -2.400368541640072 -0.6848459800186464 -0.41266128605543767
Ni 4.139292905418109 3.9528018723072007 5.45639687044924 1.3174216898786666 -0.17162319289836248 0.3945879734934946
Ni 9.081608984204033 0.5059498783316185 9.568538875458554 0.01673145382206796 -1.572026723086899 -1.4072555201133636
Ni 6.09188089505698 5.365141978176349 6.610690224660109 0.438638941066122 -0.3211364412715631 0.03192564506400308
Ni 6.164612766093079 0.1940081015991135 11.441396058476997 -0.11645528947696719 -0.4721044198134192 -0.5908760161283888
Ni 2.3542652316028816 8.383169511007575 5.392846903466376 0.14869280935443427 0.7001155045832071 -0.7871607163291734
Ni 6.8063521181389115 7.642644393593972 6.57630202912506 -0.22621362654973298 0.9310314217046158 0.9999295302279102
Ni 5.806806564142872 2.495044610476626 10.874957154615963 0.14224216863308406 -0.5517991047315851 0.8401390682984174
Ni 7.8041859009072265 6.553506942275849 9.377553062414199 1.4237028670361096 -0.4619835293293334 -1.2278375137609305
Ni 5.10774128211047 5.65208453252717 1.4893366800607748 0.438544838690419 -0.9307267459800034 -0.669115713767583
Ni 2.196727060225437 8.718372970294912 2.525365968885159 -1.0753682680831995 1.2755250496448807 -0.051197348809421506
P 8.255035151848318 3.9001142901635 2.258155719315878 -0.36253403038174337 1.0066899888801955 -1.0059963052472805
Ni 5.771273506560893 5.472854722527419 12.356858673521472 -0.3325603668377885 -0.8384243996001561 0.1864664285587821
P 3.324333348811799 2.1260014586928015 2.1949425847358888 0.15388335241643822 0.28413852389097516 -0.23695698110916608
Ni 4.650744379663353 0.8123642905513713 9.68540131311395 -0.45423036774647574 0.6014681898219383 -1.0145727340623816
P 1.5265042030730975 1.1185504666074273 4.199559216626498 0.9371107951294764 -0.7862307483157364 1.2698578240567744
P 4.000565811403412 6.508540736799147 9.842402945445285 -0.7411940197910719 -0.8398765586656504 0.7056927415606684
P 0.5760386273429714 0.2728931459839073 0.10230225884150058 -1.307956944921341 0.21479715718267522 0.24769442213132825
Ni 8.1383678193006 1.3900226584109003 12.31040157052385 0.8188184524437705 -0.24032255514728937 0.06146427795306834
Ni 3.1694180527026443 6.0245144144819776 7.614931185539942 1.830335173288648 -1.2803291559017433 1.7071402510950018
Ni 1.3244507767036744 7.605519204708787 12.989661843512888 -2.091185930296276 -2.6364361781657495 -0.5362742696231086
Ni 3.3448285881889213 5.957580478249465 12.294534555611367 0.7003983259309486 0.6778816328856713 -0.7108385474276661
Ni 8.671152012394593 2.5432871092709104 5.6485413501472 1.8214167877530956 0.8183271146296487 0.5293736858485335
Ni 1.0428460036006009 5.396552059898 11.578112281452675 -1.3471588119317832 -0.48498976041651953 1.082295334220336
Ni 2.1837875422352115 3.2201545837695824 4.719662498028648 -1.5964673726277667 -0.7271655667224638 -0.04309271742441611
Ni 8.136269519085968 1.185797307257911 7.322438258998578 0.08485951694855709 -2.153660908902046 1.0693454589278875
Ni 7.170563657586414 3.7324159282731046 4.60739331316765 -0.47415770279802216 2.391474581584552 -3.0881406941665785
Ni 8.30397708404748 7.675674215832181 1.7070997488265816 0.08193154466848471 1.2248097826782003 0.42564664257151213
Ni 1.7868130696118876 1.9765251776136772 0.6186571293777773 0.4905703398280907 -0.8121250995839949 -0.32539727343044605
Ni 6.079944511818486 4.498893706236093 9.646487047203658 2.235476496817957 2.222362842254134 0.4562350568813303
Ni 0.8697040251446162 5.356334639117569 8.158228046770661 0.599060094601078 1.517550960636522 1.0600838311203034
Ni 2.449765500581952 2.1139362324586717 10.31654700999723 1.4816773866683643 -0.161113037395658 -1.5211913856025867
Ni 1.0549204329058472 1.0253325592653235 6.456085072047589 1.3610399407892497 -1.043019676549165 -0.8350619108858264
Ni 2.586237842173033 3.514376767373794 7.301438691324256 2.4584595322455334 1.8511174001413215 -0.8874008294988589
Ni 3.9877827456221713 1.3242943244946888 12.119995550959853 0.6190774182632692 2.089318280959918 -0.3781686515952068
Ni 3.719577644065164 8.388139169410648 11.03459914805071 0.6970867450592123 -1.086863670317309 0.27282926952574305
Ni 2.182609549132261 3.3499639018720977 12.056041569154962 -0.09582192949733175 0.6488497644296954 2.392128670228783
Ni 7.546021349938651 3.6353235279908267 11.879495374692869 0.8413960806339703 1.5279628999984654 -1.092786463559647
Ni 0.020728997383488445 2.465438330693869 10.304640076586308 -0.1357215939057469 2.781898139287712 2.5840221833404073
Ni 6.461246154329893 3.0193067597164602 6.558360641982852 -0.36513238723653885 -1.4382416840822327 1.9626616254699167
Ni 0.454030752626171 5.882501824078582 1.8586467209069868 1.0996968175262352 -1.2454966216035903 -0.9101604917928776
Ni 8.960367725311263 0.11465830212292111 3.548168603900473 0.34328572367509264 -1.4699125328229525 -0.22353145173187955
Ni 4.962940161158682 5.6598059091941675 3.811000952539491 0.8931408173064297 -0.45116689832980367 0.16637737111839088
P 4.210625909644454 6.071606529386663 5.771666477697581 -0.4106655957816476 1.8783924338071907 -0.5156787048599442
Ni 2.5317280519482055 5.434257042263544 3.341719790765665 1.3414165101313673 -0.1384166242394068 0.035078588870687974
P 4.88998741641578 3.29660449553687 13.016924101082196 1.2587578574888707 -0.26933565455018776 -1.4215205146728098
Ni 7.522028943537145 5.547565253853631 0.683402575298714 -0.2301175895898295 -0.06878729397704283 -0.7151636571655813
P 8.654890185731201 8.145895931474143 8.09307582510636 0.32211166070063885 0.06363506035214202 -0.9987895030861961
P 7.784822639277472 6.11157546724694 5.308096741858843 -0.5532085834846021 -0.7806648241921845 -1.1673913926597315
P 5.5006940126557495 2.32233977789869 4.835985635716599 -0.6816025333806842 -1.1299854412074475 -1.1983772995182844
Ni 7.896465094995416 0.8461818956771778 1.3384587712505613 2.1466708507374577 0.08725269977108199 -0.3177865509627237
