# total energy = -381166.760631509 ev
CRYSTAL
PRIMVEC
9.25742168352529 0.00000000000000 0.00000000000000
0.00000000000000 9.25742168352529 0.00000000000000
0.00000000000000 0.00000000000000 13.54917238836222
PRIMCOORD
 96 1
Ni 6.61206726890983 7.504316101610188 6.02512728306443 0.1751142367707565 -0.7390170667444111 -1.1601858760502277
Ni 1.871971044456823 0.7922983004754693 3.976289491203803 -0.7175447558032481 2.3621287814325838 2.371965050796715
Ni 0.00010646035126947062 2.9347971321564215 2.6996456567880447 1.229044132474522 -0.8242527360854645 0.50610494512858
Ni 2.6988995085869734 4.975234739430794 8.49362437369183 0.1337205043153181 -0.2929748912356825 -1.4148999240324986
Ni 1.1547985737745716 4.071978832151358 0.17247132350965214 -0.688178386825989 -1.585725046509598 -0.9329484362216706
Ni 5.590418193596893 6.47921400794738 13.257688989055428 0.6533728491110296 0.24071079172464352 0.07129643355214173
Ni 5.777269996207588 9.21608746096108 7.1311327634967405 -1.00286830114126 0.5323865045329282 1.9243077082820665
Ni 4.900768038073262 4.7295520209664055 7.56358211629081 -0.09521874869569408 -0.21257880937511772 -1.0975016096471293
Ni 1.9487798735422837 1.3618500708609176 6.588921862801662 -0.030987449520449857 -1.42932664098079 -0.7568834055018706
Ni 3.9648241742431733 3.491075611094029 12.484993279346316 -0.44517982750843327 0.2072928783858301 0.21339179219471638
Ni 8.712391138128742 7.290414112355198 1.5101234193981117 0.46135463749608285 -1.0334950248881813 -0.13848655824539374
Ni 3.3396889915888424 6.796836151604383 12.370029060365875 2.2937436079899656 1.0334950248881813 0.6579229303755573
Ni 4.078172047368686 5.649813812183408 10.12352216846339 0.8895914093922743 1.816589798678097 0.9591263801686193
Ni 6.6280085493347025 8.2857906244592 1.6974677168512013 -0.9772331170716589 0.19812458162300073 1.0772953099025833
Ni 4.364281927049927 3.482669872054666 10.137924865376872 -0.1773276994823075 -1.8197869654591563 0.17081612361603485
Ni 1.6460158919537586 6.943510743388166 8.420715696431571 -0.7034232288002015 1.3567071177418504 -0.12207469254627362
Ni 1.1202961625414136 9.074874748068515 10.528520488247082 2.441558128504505 -2.2794665292456613 0.8565121103398022
Ni 6.7206568272046905 2.0061944038530015 10.551797349745511 -0.36746386358319294 1.2664097176071738 -0.5226595070531516
Ni 3.196939546669256 0.582441804568719 2.1967676900472037 2.3585220379179317 -0.6073938112777539 0.596924536315314
Ni 7.946098787112943 2.9535156391361492 1.01167605475445 0.5850900055742311 -1.8300130140625388 -2.86911792893833
Ni 2.9957387401918063 1.4485365690598153 10.246453324687527 0.40192050259916584 -0.9415680595698817 1.2537004975706214
Ni 8.69646837254757 6.015620836567158 9.5296483736527 -0.3584233506474795 -0.5172049116964835 -0.586721370530067
Ni 5.014578782291251 1.2999364335313333 11.859184156381339 -1.426663749436646 0.3791752384828502 0.3665434086514526
Ni 1.7394788229465044 8.171507751726885 0.1661910885269383 0.879121363098886 3.3222164970732075 0.634594797172578
P 6.706650347946368 6.481898660283741 11.023836992821236 0.6457559559957201 0.9666861947937481 -0.12638154745174365
Ni 1.8512251620920506 3.4155072765364043 9.902154994228948 -0.34815847838636166 0.2338084081778554 0.42217899573788586
P 1.2282006716194094 1.0868953845083484 8.870589368630807 1.8934691256346552 1.0182116163665496 -2.3451854687100253
Ni 9.080993903911049 7.079835537544184 11.580572788398209 -2.32700211293278 1.1420390299378718 0.05921507690757544
P 1.2214797833566584 2.823023020745327 5.023776030898748 -0.340803066462555 -0.1879108743147925 0.09852775846426903
P 5.370721058264103 0.19177304806589962 3.1108631125702417 -0.9790421452559395 -0.16590737346050782 -0.03546836810993892
P 7.219298597707191 4.766442847036738 7.372253424473687 0.1875087537803674 0.2131472802840781 0.0072402265021810795
Ni 8.821887923764857 0.3822537600416063 1.12537108119932 -1.6849801700581948 1.4271646003324647 -0.08708146430054034
Ni 3.5770955749197615 5.372267047712973 0.6630026667297897 -0.28928098732386304 -0.7346960707715541 0.6959675438531046
Ni 0.7112579038625935 8.595534702122263 5.338983838937397 -0.07515103141154153 0.7413030345651105 1.8107515947297654
Ni 9.422851977970092 4.463549261542321 11.197740439491007 -0.7932848269490401 0.1926782137964488 1.4733590966106562
Ni 3.398705055879527 2.493245882199905 4.270008045903163 -1.3963180472652534 1.2911573568654988 0.42616163453471767
Ni 3.377949916092905 8.160509934569657 10.375698968355218 -0.17298253513973433 0.20686170438568247 -0.9403179892128645
Ni 6.993972949889895 1.52161465713992 2.6016308514718904 1.441663308169272 -0.8858815646408551 -0.16174912831776014
Ni 6.564993278805025 7.225306664487529 8.700939707300886 -0.2560517929570881 -0.20622098547789 0.4396077327372944
Ni 3.9214994399874237 0.2805045107513561 4.875927598024448 0.6101137813120784 -0.43977074067772004 1.0779874508736014
Ni 8.591794703695056 6.819405746073511 7.113099305733877 0.16315449330571902 -0.5886147308980378 0.7105346430340022
Ni 5.233785274266015 8.220970156668866 11.659605250211923 1.1591170684660812 -0.9363595187857487 -0.025908492335645704
Ni 7.888499108365234 8.639711119188169 3.7375396559625185 -0.36287521577124604 -0.6206707308923181 -0.70352427315444
Ni 6.285585772542837 4.34284173804644 9.315814889319396 1.648934332178231 0.615549864725985 -0.015036839728464426
Ni 1.6545049477897678 1.4936202134669736 0.8352045992636208 -0.5282118043299483 0.30496291683549415 -2.0137566443735193
Ni 2.223771589582251 3.3976867394760797 2.0664787349370703 1.8496271887490405 -0.18170500261439673 0.8420028609800337
Ni 5.929610130163276 4.113461339459054 0.5570644340526321 0.21773464254444436 -0.12813709669026965 -0.5069675502391914
Ni 3.5157188680574496 5.571097954196947 3.424309233230927 0.384091444837545 -1.1495278821157493 0.558848812489515
Ni 8.004864901013692 5.471367748612076 13.140854770861386 -0.28446968197814876 0.193936254573266 -1.0452812188898322
Ni 3.4529720627614084 0.1955065662978107 8.183686815912113 0.13215470249009495 -0.4614371699075601 0.40551413348769516
Ni 8.76691735282241 1.402027281687831 4.43767939618384 0.3709808755975159 0.8255634844770879 1.1925252116128817
Ni 4.037643054511491 7.508389367223977 1.8364688316639168 -1.1674752106227893 0.5398810131377606 -0.5370867382220751
Ni 5.999688813564136 5.415943563999004 4.98746379369401 -0.796669684260873 -1.3484140244951228 0.8495691033630658
Ni 1.2682112488530313 6.25183321247949 13.110640397428925 -1.901734965187873 -1.8298988570821775 0.7944029997138834
Ni 6.094605159787257 4.5022545422951605 11.608199712423728 0.044216289505898045 -0.34815899260699396 0.9514675780717808
Ni 5.521737380895311 2.6710624410854695 3.7846765965359 0.4201624795284893 1.2689558810677952 0.39998497613934986
P 2.710656434335863 8.119684704213277 6.604259559321945 -0.21770018976208313 -0.34083751924491623 -0.5311829711431303
Ni 1.2498167516380365 3.320933454921716 7.5715888604484585 -0.5974842654735258 0.39310264719721977 0.28723336076621503
P 7.340422705186301 6.40491394018314 3.7650036493634866 -1.131441971148316 -0.183718947720632 -1.524012914211782
Ni 4.066757646228229 7.04603669037159 8.119504184487212 0.45420851336960477 0.14447440039771245 -0.025413812087414295
P 3.0342403576639567 0.4759231315415963 12.598359667315528 -0.6166112161109638 0.020021437427249388 0.0721559533389596
P 5.079214101644594 2.2534879137192076 6.527693274688942 -2.800406225394229 -1.0736672262316929 0.15226664274862162
P 2.2878329487809235 4.749057408803342 11.857517820448424 1.2032922203213987 -2.8329666758287533 1.1762853527152517
Ni 6.426187495593334 0.6770424727067704 5.061604633802438 -0.26228388990972895 -0.2581896652356973 -0.9070965081555733
Ni 5.752561937291221 6.002058713557613 2.162854050843675 1.055558175335808 -1.1516256451850424 0.493476457731292
Ni 6.926736294996837 2.7126190077679606 6.007053092645429 2.697195973852626 2.472824028497322 -0.8876957350314583
Ni 1.3324484990668448 6.181199083767659 6.057225541843267 1.8449274692805258 2.4694581973488825 0.22027874912253675
Ni 0.033098986080770894 6.850705089346736 4.157915479180445 1.3459128553398239 -1.394382263695121 -0.901229507851835
Ni 8.852946574069993 8.282189487359735 9.033152473534917 -0.6586369257234463 0.5830616622902927 -0.6790301446678176
Ni 8.127794205753455 4.875300870565235 1.7805512264662662 0.3831936156136239 2.8821436517740366 1.9824514065023342
Ni 1.3144613284132292 5.663487024255148 1.943263375862155 -0.19399873238008525 1.232752948784677 -1.8182674434908364
Ni -0.060432449833661236 0.26551119032387477 12.327985553294099 -0.1037301286008149 -0.37930559341312736 1.4285432258475461
Ni 7.3889871402088785 8.925450701995427 10.957527931597498 -0.5077370814153642 -0.5095677068661999 -1.1857482979003644
Ni 4.317735609990544 2.261782563696377 1.0831776038935814 -0.4428833181647728 -0.471158253850066 -0.9114578704480626
Ni 2.59345747372095 4.371002815312678 5.954441312790242 1.0885762821330414 -1.5429033233583815 -0.05589115474066503
Ni 0.8046893596210508 2.211431446256842 11.84344005904186 0.842615297753052 1.3059160032319121 0.6571014629155263
Ni 8.63733196177284 3.60157219828989 9.165879833560215 -0.5577738342577814 -0.3937377096780574 -0.823164645227608
Ni 7.663756678124456 4.036402559983656 4.0399296377083225 0.5062774661507022 0.13041406564990443 -0.1383258642978134
Ni 8.744505134524726 1.5960165565445055 7.4240931353466255 0.8477749875771206 0.3348291082673072 -0.13255399481104269
Ni 1.2143515685325283 4.679284220323516 3.8274921725899267 -0.46254608670102276 -0.8424741441894975 2.885647808272553
Ni 1.1305070988414334 8.875201416196237 2.4464116593210026 -1.0869230628003343 -2.2606244568384937 -0.5423706123288337
Ni 6.580610549465164 1.9606849180407653 8.1844996175505 -0.7268763176168191 0.49109972996899937 1.3459992444060431
Ni 3.9790158019384867 6.221117086782785 5.88581511887757 -0.6669017368353998 1.331608780012326 0.18431621498499867
Ni 8.846133111588745 1.3424742869298742 10.07309143719595 -1.6410816689030316 1.388005670744816 -0.2307598511595187
Ni 6.436713184236238 1.474577696722513 0.2669183184450017 1.2672147300069725 0.11820158274411256 -1.1067151578255972
Ni 3.5188663914862857 2.533802647322648 8.122905361274723 0.5806381404504645 0.9116319341320817 -1.0355627060504875
Ni 4.926272235268688 7.431895290481399 4.040024989153372 0.9777072284946001 0.8152186509076541 0.1658639218170821
Ni 9.01990417712607 4.695734658950111 6.143520451097931 -1.378608288690316 -2.2194551816890358 -0.6853653428572262
P 8.175219977888542 8.914832439134027 6.9603999838104285 -1.0377221755956516 -0.8449110357657642 -0.7020340617621588
Ni 4.832022423418733 9.242026756983435 0.4212663871998501 -1.3649241063350042 -1.406810976376777 -0.8185855104973578
P 7.6410389649057375 2.968225682455035 12.256595093217161 0.7233888732888509 0.4903301987928265 0.9181553370728962
Ni 1.8207497293634332 6.390277956239049 10.843863454644733 -1.1196138681651362 1.181678755816681 -4.0410138943366345
P 2.1996374908205545 7.206412266492661 3.180939018744547 -0.15154930496662286 0.0645143776333018 0.0745679052145619
P 4.493098952085986 3.9571775437954706 2.1981368627387474 0.11997847213887725 1.050924018997906 1.4569387462711036
P 5.2516150687481895 0.36138845693497507 9.724281965070102 -0.0027773056348210233 -0.188669606857688 -0.23537215312054946
Ni 7.5364300980061705 8.333670010264912 13.198858998943917 -1.1840814517209028 -1.0882335540816421 -0.31355554360051163
