# total energy = -381161.0522578785 ev
CRYSTAL
PRIMVEC
9.33171488117961 0.00000000000000 0.00000000000000

0.00000000000000 9.33171488117961 0.00000000000000

0.00000000000000 0.00000000000000 13.65790799281066

PRIMCOORD
 96 1
Ni 3.38269056139494 8.375279198237457 10.129046184406695 -0.7338607193544523 -0.30113685822118463 -0.6779281698528905
Ni 7.928999277995599 6.666483611190616 5.714359436253411 -0.005870856958480212 -0.7049203821710183 0.9668093506351738
Ni 7.340140089993302 6.8076817851865075 0.0813062963590514 0.5899391061364162 0.357818627183945 0.6007799055056621
Ni 0.9132071922637222 5.50957495880051 0.8828455255587433 -0.23362200319866214 2.308502768577011 0.5919674494203546
Ni 9.183750958232308 0.37029456756216944 13.5311896381096 0.8887252047372372 1.121616757527778 -0.6471237828775243
Ni 8.499437661327493 2.018188585449708 8.984717616502998 0.7491927217258323 1.6582481533799895 0.3936315231174963
Ni 1.9606772282137894 4.406678270661823 4.944244756054523 0.45220845222044054 4.0851101133249 -1.4562563754920985
Ni 3.4120014770331064 1.2004131059734018 12.421320292802864 -0.10763820540596947 0.4133685965351075 -0.8950604029266456
Ni 0.5876647285302553 2.9236075286871284 4.405248651981222 -1.7727332065044632 -2.372460759486211 -1.0668165218584464
Ni 5.474095779794999 6.481211749019284 12.443869448023518 -0.3904294712404308 0.5156956741408087 0.0901791293892576
Ni 3.980778815161691 5.53192441532818 3.8199532457943386 0.9255994520557672 0.8078334141871764 1.1333661847542222
Ni 9.0744859116843 5.278232421523915 3.1968522641458494 1.2631367032828569 0.16453903235807146 1.4729654607166633
Ni 0.8428292669023966 7.549543766185741 9.144624945151216 -0.14212081256387135 0.700323249718639 0.08507831782758252
Ni 8.518996935182187 8.34189032330802 4.1921309533679 0.2140839331657345 0.10470534802989065 0.5077152270384934
Ni 7.779934468570553 9.332087893916578 6.07977631658092 0.27832294565046256 -1.298905890462666 1.7887725193555128
Ni 5.918042771380524 4.368352918695587 13.531216700082012 -0.9140940225193289 -0.0886377530440667 0.5146386936312041
Ni 1.7400195041831994 8.75324163570726 11.948702541202472 -0.34296022201487386 0.04053575533051729 -0.3326007331574207
Ni 5.3730426421172846 9.10556985310128 11.156434370483048 -3.3761075906647084 1.7698633411558358 0.8364701040872627
Ni 8.137348470435377 2.6044535567861633 0.4357882734885964 0.3943393478177982 0.3282671387790734 0.8535712825439236
Ni 1.9768770848033652 6.011705191074976 10.064280352221044 2.575228753418494 -2.3442099921706334 0.8727319146327744
Ni 0.157145141119121 0.9994079729437598 2.5485789822955285 0.2845792109728196 0.31032186715456234 -0.31038588762327834
Ni 7.865748916265102 3.0362133290710047 2.835832487749797 0.4004616586654522 -0.031168198072688256 0.42004189479022497
Ni 3.000818135497122 5.555141721316004 12.49858315721476 0.7607858258800704 2.947197703960892 1.7536036847638634
Ni 5.803719935505587 3.6754731077647183 9.670194578221592 0.11711169211404346 0.816727888463329 -0.5115597975955641
P 2.2413752041437633 2.0538730621769763 2.3815842163893697 -0.17343479218580454 -0.28418068998282026 -0.5823299263305907
Ni 5.638109996049827 3.440929792371634 5.086068154930313 -0.1475733510380104 0.9669294211528057 0.5551392248484117
P 2.442921576621674 7.797926014368192 7.79399456299654 1.7554363670972284 0.29941499043407144 0.454746645261262
Ni 4.190882369951031 6.5400855365905 8.503795572057522 -1.1405310779337776 -0.38382122189529383 0.1681583742782136
P 4.24081637491118 1.9517841041758488 7.86912606378801 -0.5462753466998785 0.8062457579850824 -0.3220350418264325
P 2.7192523101069925 7.019194428884274 2.0849066123349784 0.3089293576824099 -0.044954710333819356 -0.479260057021594
P 2.0890629580291016 6.749909139941081 4.614078427724205 -0.2965785494265408 -0.5882933430028772 0.1579554656032828
Ni 0.7211698369890238 7.691619121356415 6.545852536228955 -0.4883458213729461 0.28642423460135835 -1.0338495800141225
Ni 8.151588666953632 7.376449791600467 8.334533199497407 -1.1564251234562148 0.44388913372146777 -0.4392390365439661
Ni 3.834606837270497 9.408141368113029 6.699818362175225 -0.19982690902608813 -0.6612838764279901 1.0763362884234238
Ni 7.346952241669793 3.918704249473985 7.375488624994057 0.47870135630464655 -1.8968773799852559 -1.1472144034912242
Ni 8.490581864148053 2.194371357575968 11.892541483072842 -0.10407388509347881 -1.0616182654869588 -0.40027576790689134
Ni 6.073135868453534 7.828524706624655 4.733393730923694 1.8356892385117094 -1.3826698603541994 -0.08506134854671803
Ni 6.657067911133657 1.7663815979997612 10.309398366627553 -0.16426880941582034 -1.580269936932298 1.030380647628916
Ni 2.7349202589629242 4.788998618861657 2.0567584283391285 0.7548674035131064 -0.6453008707361725 -0.19622042262175238
Ni 2.6252259535421514 3.6798030233508716 11.527520267445446 -0.4732040806355012 -2.4300555271815436 -0.8609428924176463
Ni 5.34070825094051 0.6200728402525693 5.024689735153657 2.5866778757957003 1.1459609907000974 0.41179096763534234
Ni 5.740460242060464 7.261259106265374 9.961217163213032 0.9008831802560097 -0.290960431908815 -0.5670580877731847
Ni 9.207481508524525 1.9394289140119096 6.670876982436222 -2.0415638963937743 1.042410067989624 0.31817273065754875
Ni 6.353693868664127 1.6073505173548608 7.0577241454008055 -0.6009580829547393 0.4121581211667741 1.2155934062862548
Ni 7.981592821623969 4.868243539459973 1.2209046181191674 -0.5914136337994138 -0.3065785980620462 -0.15865377722188803
Ni 4.938352711440089 6.075403475107489 1.5852595493223132 -0.7595331844198919 0.3889688275345043 -1.0941609753096704
Ni 6.923161753674986 0.31883482726077844 3.0335985826329863 2.2201434660053114 0.6342538688933916 1.4338540965374984
Ni 9.464038338718767 7.692533629389698 2.3618075135839045 0.37875589155724443 -1.4594442863017767 -2.508414524007422
Ni 2.884675615270245 3.6848141541046746 6.6756165602944275 0.48081840264764936 -0.6884128714342983 1.0552010491067054
Ni 5.258579830522968 0.2621773219130779 8.93979754181104 0.016292052291804197 0.37951925208583026 -0.6628257669938132
Ni 7.492303028673958 1.9380478202473606 5.0030961475106395 0.6847086831098337 0.9150381316001531 -1.1364787622412749
Ni 1.6640126885598738 5.531625800460168 7.713685826930937 -0.5347228659755887 -0.1747735656018861 -0.36116928882373284
Ni 1.9549382237192108 1.6011449271290152 6.62867430304316 2.4305751471304395 -1.037087113114814 -0.690739719795262
Ni 7.508493553548909 6.280542557716153 11.064461924307242 -0.2698964121496642 1.2167002661971884 0.7363955699611641
Ni 7.15308587032853 9.356070400503679 0.6505082275030882 0.3329210926113169 -2.789489321371409 -0.6564054652897663
Ni 3.812117405023448 2.8900413511798106 0.44478031370156595 0.047270760061505684 0.7358677224821519 -0.0766353292665519
P 4.642304064951445 3.244459872649904 11.752001194958034 1.7979120197629357 -0.3865733307191342 0.7434653323237518
Ni 3.461216939967105 3.104502816699181 3.9347062737135037 0.6972219850854959 0.4049153235614317 -1.0821207563156847
P 7.674290127297175 0.17575911228226987 8.643160997300999 -1.8114151964556935 -1.062892504213692 -1.257190770112067
Ni 9.245648221342131 4.635939835576969 5.9536460621905505 -0.2985174183204665 -0.019229023432941077 0.6549710468360849
P 7.262070965437777 7.630767010284628 2.178599826687695 1.3510530047798668 0.9545189633035948 -1.6537718627761904
P 0.20480127453922675 3.802776358683491 8.093075083566953 -0.015520978453734562 0.43754339400909803 -0.24691820608693607
P 1.0071066375096585 4.8038173816866845 12.668023765524218 -0.7105261583935698 -0.8381305225088211 -2.1297067120792934
Ni 1.2228932065058256 2.5379370949368005 13.496730415512639 0.30491123766195233 -0.19493050016573527 -1.0185826265527234
Ni 6.4566693395546615 5.809132329988279 7.944614036078167 -0.9487782041650756 1.5054876017140846 -0.2229292993715064
Ni 2.848468562523959 1.8317502589502086 9.543148882626477 -0.19554062294590838 -1.2178868303061219 0.9468807300320466
Ni 0.5815804505945391 7.608184260891326 -0.04181354689318567 -0.1521828247855637 -0.8460335794059817 -0.20647758157338636
Ni 3.3773808157731264 0.9327879290620553 4.341316141911613 -2.212082543374048 0.4869085747057873 -0.19175878730597298
Ni 8.097380736695083 5.01648715799799 9.343757203055555 0.9184093620652312 -0.8213157649443276 0.07333968923441563
Ni 3.058777415035056 4.025309757353773 9.059044723493765 0.120417873669141 0.6729993650927054 0.18915220292106133
Ni 3.9370783955712625 8.070748023154385 4.668860258432214 -1.7222555094698855 -0.18595246503684104 -1.1243788936539474
Ni 4.505883728843723 5.291138182850749 10.652963170816923 -0.5465851646308135 -0.07672326099466788 -0.044790673952129316
Ni 0.9746229388988792 0.4576786096566992 8.590686899619834 0.3362933515176595 0.1803502883587152 0.04019739815449206
Ni 6.323552430424307 2.0294892918609846 12.740450935417266 -1.714211041898854 -0.7299768109190138 -1.2589532613291285
Ni 4.8464166589513225 4.270239271124851 7.502083598772768 0.8109619325138291 -0.7560272281491623 -0.4641725665608522
Ni 5.683975373433332 3.9882068600034546 2.3295879024970225 -0.672962598317499 0.028832865071292277 -0.18510065855950703
Ni 7.0626242287505665 8.588928804584423 12.102367885937808 2.487085937732975 -0.8260548222912095 1.9079974011578174
Ni 5.288646615045785 8.335955352806309 2.3946000919487824 -2.145009660984951 -1.2519812008866698 0.08603373976231635
Ni 4.1287984725487 0.9585537263140583 1.826690603280354 -1.7630712579346668 0.829808375796371 2.1850674482377848
Ni 2.2285254331046813 9.377906612726955 0.7430667053573643 -0.665118676793048 -0.17600486690582592 0.2583776128767873
Ni 0.3804073467016412 6.723005806676249 11.372570878777665 -0.5041426791958866 -0.2711958476873781 1.438961850077709
Ni 5.975834080055202 8.002710491821093 7.267795972360418 0.03744708910286454 0.4970106961367956 -0.35162766788188476
Ni 6.150178504400271 1.6922224618722512 1.317885395534388 -1.0877270467588684 3.221478618331497 0.025277800730182272
Ni 3.549504292037367 6.417392152696641 6.2543381698767595 0.07260538217155238 -0.837084854853126 0.16089526495789708
Ni 0.5414195503614997 3.5695861419110804 10.479794542514643 0.07259535486922336 0.3941663125750437 -0.5719272429400278
Ni 6.849021280976727 5.964197431917413 3.208446919567824 -0.8427045150327487 -1.7831829410828774 1.4055783895212568
Ni 7.333813187477327 4.107307533766561 11.771245056858394 -0.1321449322980821 0.41868640920359507 -0.932639389621684
Ni 0.7166252919664874 3.559629202405852 1.8558774071140036 -0.39741130187490264 -1.870491176682243 1.1726035329882902
P 5.896925101183398 2.1158916375769294 3.3627953458137334 -1.3312634808577655 0.6850946056943427 1.4228196931002077
Ni 8.560980319281555 8.83485681182041 10.490515749447686 1.3279544710891904 0.658218350128789 -0.20519665797843367
P 3.6791124764685974 7.7152750179316305 12.305938307317954 -0.29559484535703284 0.2579801203280525 -0.9147542818111472
Ni 4.5846807271400225 8.924870531096358 13.787931236253423 1.3208435710760218 -0.6538698433521062 -0.7835891969278311
P 6.077568432900566 5.607268679213106 5.425781760493808 -0.9014575647022411 -0.058028769908958125 0.6306350411938817
P 0.8654017514096111 1.3017181999460012 11.243298636072947 1.9040854676979206 -0.2713462572223133 -0.9700268291312066
P 0.7124008247555997 0.3184662245330779 5.148197777734308 -0.3815979889917299 0.8972954629047514 0.34659087678892564
Ni 1.871867300124509 8.787134423226464 3.404616358078619 0.4897015640698921 -0.6733276949664018 -0.011576906204321996
