# total energy = -340874.31963679875 ev
CRYSTAL
PRIMVEC
9.21223373333343 0.00000000000000 0.00000000000000
0.00000000000000 9.21223373333343 0.00000000000000
0.00000000000000 0.00000000000000 13.48303525558847
PRIMCOORD
 96 1
Ni 0.567193551414108 8.75062720790536 1.1115214172631813 -0.8867444268617825 -1.551166077587806 -0.3618768564137187
Ni 8.100225075733983 4.398196792761973 3.913060292877614 -0.2954758032806653 0.9596282595057021 -2.292904142807806
Ni 8.621886240268537 3.154213586622003 11.0389387190476 0.21678744813982664 -1.8893491899290107 0.3008198412013981
Ni 1.4806178562785803 5.74950252290688 3.0187974343590875 -0.7566386364809162 0.06112257834293344 -0.6464720082261384
Ni 2.1178649185547607 5.771814553219323 0.44520330872070246 1.4765477787512828 0.8754685968376471 1.2742014457374506
Ni 5.134696462216625 1.8363759019457606 10.68200242867482 1.0260848484670393 0.8505240110771675 -1.7142439520193185
Ni 4.086537710391929 4.39355382691661 10.58491101155056 1.4508940827389207 -0.8793478772873952 0.33421358617049535
Ni 1.0193889456043166 4.257958957317582 5.289597410232574 0.069713405335738 0.0455280663387861 -1.2644111991199063
Ni 0.21934973582183256 2.6046393536123453 3.32058837186097 -1.53870548322695 0.4433000939872172 -0.19973280665038506
Ni 6.610044920750069 3.772133382343475 9.966403475311363 -1.4059542848034368 -0.40547299583711455 0.8025947914960564
Ni 8.658339049494934 9.326649764212716 12.369417430971875 1.2547381948065164 0.2040969971563517 -0.9728835818537116
Ni 4.42851425426414 6.833653472266965 12.111675710704501 1.0286284408244994 1.088407103545029 2.1672797852370613
Ni 1.8370391827808126 0.9676254037688026 2.3506184545849353 1.3559807810987874 -0.03987523892838294 0.2576016539427112
Ni 5.3638599907270805 8.88528242965473 2.768593163803372 1.0265995833199286 0.19588129411477878 -0.6151251184837406
Ni 0.6249155660845057 7.150572740148324 12.49838317711391 -0.28631907648206173 0.1229576093718592 -0.5605138588967636
Ni 0.7457717827946487 7.274799713213266 9.788966639701142 2.3634716686137236 -0.4404163446815189 0.3646783304182558
Ni 4.871152877089308 2.9576153046658353 0.5567643815062978 0.23378758224224896 -2.5035502539365853 1.9536108281215578
Ni 4.246876640031923 9.18232169695217 11.35998322523363 -1.0283890711201837 -1.5581268251763551 0.9932420909054055
Ni 1.2087924729469348 1.3237519387887893 10.52731151958997 0.1518938327902352 -0.6312842447421063 0.27822832905412725
Ni 5.639895364914542 5.050708526478169 13.43622266527197 0.6410765482421797 1.4641522333004073 -1.5378176813053581
Ni 1.6012428459198371 1.8536396281247522 7.886254363239745 1.197010501077745 0.18664486311817532 0.3893079560414779
Ni 2.568665580544596 5.874282230001032 11.483959625538663 -3.0692579983294626 -0.8883711638319282 -0.14710155360791438
Ni 6.169709356379943 4.785036915338395 2.141294392829589 0.5029193483117468 0.9580873973811435 1.0312255121277143
Ni 3.8910633209618206 6.789490023333088 9.885155257911025 0.8845764726761862 0.8997781201172891 -1.6612620005056489
P 9.332637716195823 1.0116783058968375 6.231238787288215 0.5478154374934888 0.6853887398959939 0.25284228488085486
P 3.839530084971811 1.895969842528416 5.816662471126038 -0.8754174318847375 -0.3032608465427229 -0.14975544629099372
P 3.2290353497093935 2.0818911454870115 9.702931745607843 -0.07438201445600094 -0.556695256481622 -1.0865240275897028
P 8.804749081598837 6.235051730866382 5.016861858199496 -0.3793289904518951 0.2624764655365092 -0.2199326786370277
P 0.6807656548426456 4.01345705949655 7.4008378114472535 0.5674203562086099 -0.5593038977490625 0.7458580009256445
P 5.778917185494671 6.838535956191653 1.3975170586570067 0.49508031188330226 -0.17343222108264325 0.5434018818068255
P 2.3126944516174563 8.129630526087952 11.271250989077789 -0.005204941239707165 -0.42914359998117707 0.5342621242890864
P 9.329413434358766 6.339785617167853 1.0657992583669322 -0.9655947615017821 1.2560995939304176 0.0004131762780186433
Ni 7.330063903900443 8.859948786649273 4.4303769679425775 -0.4214801698986483 0.6991626537516346 -0.8087430704856394
Ni 3.775984096080304 4.974081165562025 2.2476892448888353 -0.030202748835625407 -0.1774040612461977 -1.5774144697613737
Ni 8.401805974304766 4.5991156123798 8.907472858480748 0.604608535223133 -0.4190887868483363 1.440917174031867
Ni 7.859122492192592 7.001933347459942 10.25616784156102 -1.7864184173010398 -0.44903339692656863 1.3072545195376777
Ni 3.5284053121633363 0.10679834790056937 4.082380229268887 -0.14076995496293176 0.3460614866480169 1.0840981917570296
Ni 6.422981300797774 0.18920270064533848 6.71236704423742 0.4395493686955333 -0.29771034903813887 0.7971090857911369
Ni 8.394712554263236 0.43987126778559027 9.874813604224506 -1.4815442035246096 -1.039298776054152 -0.4622079866353137
Ni 6.482519967977509 2.7512889037955714 12.284420755630112 1.1313067311220322 -0.1187271162302794 0.1417228057945043
Ni 0.24741020003805894 4.173685442330702 1.4276779121842311 -0.4605241711749875 1.9321847970372985 0.3755474119222758
Ni 2.9159944322663245 9.008707938377318 6.614615109948254 -0.7967583873199374 0.6014342512602093 -1.1260580811285832
Ni 0.6427016259211007 8.93282676840061 4.363420610090845 0.8435100416531796 -0.7355365643949784 -0.8700291709896306
Ni 3.6753220171273475 7.385143849911218 1.6801078584308986 -1.1662655065854044 -0.10359180325073772 -0.47813314250600236
Ni 2.797396134065504 3.576981421097073 6.764776363663728 0.5736061733043476 -0.19624330543988786 -0.002069738044835145
Ni 8.721663944774757 8.149961926129059 6.233719641855987 -0.6884205847437821 -0.7678527600291809 -1.322223225032368
Ni 8.058788448010874 5.336794447763432 12.761706589852924 0.5433363186762126 -1.2032233147566762 -0.26036790383393865
Ni 2.5514018543656043 0.13579016895601456 13.420029400662882 -0.13747354359984712 -0.27302544469694917 -1.030862986581973
Ni 5.693694810424312 1.6281517809085428 4.6764016480140835 -0.7532362956675867 -0.700846983432593 0.08985517039093557
Ni 7.8577406571195665 2.2295632536242764 5.083468151166062 1.7471445594020811 -1.1351639000845934 -1.184394354975631
Ni 1.2558393510665238 4.215241829093471 12.620781521765549 -0.4235419375236835 -2.240009094580987 -0.49031605772543946
Ni 5.106617573532758 8.564134746449914 0.2616191494822834 -0.21342830185960665 1.9265851914623335 -0.5916555746068907
Ni 6.089516860975396 5.990227404861645 8.933778392154231 -0.4424804262993992 -0.05460637449097047 -0.49928946486864334
Ni 2.9952380675873944 2.3077014208869264 11.923331590251202 0.718592480341472 0.24165310103325482 0.8668178631411845
Ni 6.804155899574793 6.5168816001267285 3.872394729125254 0.05020053211379097 -0.14639707134172208 0.020991514650002555
Ni 7.004558834098689 7.480490469949938 12.88065403171553 0.18767613259616708 -0.5308250735830794 -0.249975247745705
P 6.1085677605155 4.749846182145359 7.005164999084056 -1.4156159762629168 0.7796237845221798 0.5287440226843345
P 6.515066790064156 1.4302637862175516 8.935355526584244 0.523064198690738 0.7423016510329539 -0.5582145213396258
P 0.30575772538484597 5.00310891432937 10.92345599832476 -0.8471622936937862 3.388325987107771 -0.6892410237625485
P 8.073030561496852 7.910784699456084 8.227618293562916 -2.2420713764266544 1.6883922810635374 2.3414085181660966
P 3.7173390155811257 4.227484887840473 12.946316070715529 -2.40362690067637 1.388239641132493 -1.0853575180854276
P 0.9250833079872747 1.8965962744281875 12.739338364914179 0.11165246877168514 -0.2568498633783512 -0.9288099885732648
P 7.324840567324409 3.4281669959661074 0.6527825733905086 0.11330800209723711 0.4440225739755385 -0.3463587061734616
P 2.057276056719527 3.646045538046859 3.1690793683376057 -0.283804280480008 -0.7530362638416387 -1.2762063919826214
Ni 2.3201195120765106 2.9535803462526022 0.923268497924702 0.6963038441466007 -0.24846986684477207 0.4783558000397697
Ni 3.967957836658749 5.528187817611205 6.338172555025942 1.140574015356571 1.4366838526768095 1.8193005127410409
Ni 7.981156953608334 4.408330249964156 6.056323340074572 0.0014740134423652034 0.6555243482363936 3.089438587042395
Ni 5.7109953855385855 8.598164738181609 9.550465590990564 1.141369514674673 0.26507996459762734 -0.41761991561229367
Ni 3.3670622490369446 4.559235852172299 4.483486417139218 0.737725087405865 -0.40956079275324303 0.48992345027271106
Ni 2.6828788554470173 8.825651640136794 9.224890508211777 1.5881470256875292 0.7398398197560225 0.1264118864690468
Ni 6.54078734689006 6.910630898068274 6.333103062754704 1.1797799961320714 -1.3098659890185957 -0.05456497973007377
Ni 4.004760710770313 2.5637370354508073 3.1362211727478364 0.11237700564253551 -0.694588661227707 -0.872389443691691
Ni 4.288221145416829 6.752622663584783 3.954816585114281 -0.20969223185594207 0.45834541835611387 0.7480714636371955
Ni 7.270773967033853 0.7815134075701298 0.5364302177950449 -2.1138111238949597 -0.06909505502544876 0.9586972630510003
Ni 8.595530039309041 2.3032334874841456 8.267096400375857 -0.1972223815237055 -0.2917644158673491 0.39067886824707554
Ni 2.367065055624078 5.35888538446419 8.743748432911842 -0.24240566292856316 -0.14741754218643643 -1.085171884437183
Ni 8.99886927265738 6.230215308110795 7.628998127694692 1.826640755156196 -0.48355637040410265 -1.96043659279414
Ni 6.698989038283775 2.5207251157444506 6.914896162327011 -1.9440442674790455 0.677341187001169 1.604365801539237
Ni 1.7957591630326475 6.59616208438308 5.273012625686129 0.2997114386285677 0.9315613260661569 0.5071259301939266
Ni 1.7276531184001587 1.7422268723036616 4.616254052178836 2.3509457682325707 0.591888002332671 3.0776395375249384
Ni 1.8335569583967897 3.643014713120025 10.200630968752765 -0.9681319261013392 0.1472661042102367 -0.4344436720378518
Ni 4.856044813624235 3.63666748401793 8.36265029567553 -0.8427207129826647 0.07550970030254092 -0.14106228939236998
Ni 0.8107631711725396 8.879994607441954 7.9585639501643755 -0.027620589930745978 -0.11641749426049629 0.45464123003164925
Ni 4.680385939141305 7.594510287942136 7.476424189941716 -1.2448929265813204 0.7303601624003615 0.7663913449923059
Ni 6.827121998488467 2.6277528482671424 2.5987877426897756 1.2574532797448346 -2.9127117543688805 -0.515784377199873
Ni 4.427187692594036 1.1735925275200796 7.836556204226712 0.1468624410139148 0.42029412001034716 0.9847499942739942
Ni 9.109056801380389 1.9981150911264196 1.1497466602765791 -0.07859759519924528 -0.9773038224085943 -1.3912272630059073
Ni 7.673901319004329 7.811504455576152 2.0322712904614497 0.11715591508841759 0.10938064201837293 -0.4074023516493436
P 6.028384477344773 5.80550369229967 11.252631222080469 1.4282393214538822 -0.49447173176502585 -1.2220347910362244
P 2.335328910113605 7.102595426412899 7.4505636071617465 0.4075154801884401 -0.2537275156992856 0.2836407583189502
P 6.5238552611285945 0.2241437823018471 11.960666010254188 -0.9586792653288714 0.7987718182055404 -0.2949677532959952
P 5.959329572628807 3.775265541842331 4.1052468360573044 -1.2107900713603406 0.6498275549619326 0.7827029376681359
P 2.2683099090718954 7.740533406225592 3.286705775870398 -0.16121202486736752 0.4886957485131971 0.21844786656138507
P 5.186874554574047 8.331617964828919 5.296257855284554 -0.2626276464023929 -0.286849495064235 -0.7966429447879957
P 3.9019798180387184 1.0376291685682457 1.3220845244673394 0.7829219956574774 -0.050035981511468666 1.0372447217386007
P 8.645745925862768 0.5983566959809663 2.7767505968511297 -1.1290914686382685 -0.7607961102927155 -0.1738428262575006
