# total energy = -340886.87767725514 ev
CRYSTAL
PRIMVEC
9.12817694711273 0.00000000000000 0.00000000000000

0.00000000000000 9.12817694711273 0.00000000000000

0.00000000000000 0.00000000000000 13.36000965236933

PRIMCOORD
 96 1
Ni 6.649146447415814 2.163368741785097 11.517102653719776 -1.2359609141990133 -0.004171871989502493 -0.23945043695498114
Ni 4.499524739690474 0.48912056722735514 5.674316512581377 1.383193336957837 -0.9468794444804659 1.0598287776867037
Ni 3.25351949653583 2.066701350886806 4.668615084260819 -1.2019277358737042 1.429368549962319 0.4276135364898958
Ni 4.02879379717546 4.744397206946147 5.226943661338284 -0.8834148482679173 0.16947606464837264 -0.5665886043359338
Ni 4.09203380512101 3.0750271299989844 2.674660737317727 0.5622521817441091 0.10623772551401704 -0.4930380846422928
Ni 5.452834998033625 5.043098532004199 2.575796194295808 0.4464365827336699 -0.11657021778827664 -0.3865378494955085
Ni 5.3724340179550465 3.1556015454342266 0.3645264326355573 -0.22862454998407078 0.8578454844392451 0.21089525102510776
Ni 5.898810325429076 8.26877708970719 12.386973161972069 -0.700709172303148 0.5582821413527674 0.38047107447613826
Ni 1.7935771768482998 6.847474341848976 0.2935731154068113 1.1264545452360537 -0.8671778175837646 -0.07603317690617874
Ni 1.0584303408346263 9.108131190545688 0.1388121825675466 -1.2210091779851875 1.1209881228048437 0.2747601679998687
Ni 8.731265288692347 0.016507394683708244 6.753591957651635 -1.2729873708246915 0.6905790258476817 -0.021195917351324787
Ni 8.915453637469092 2.270916919269863 1.2848803219419571 0.44102415346884694 0.5479095398691919 -0.7069741793762534
Ni 7.407707056579074 0.6380412926353898 4.479090403404835 0.32625345078315426 2.2188224332010433 -1.5274036850608856
Ni 1.0161486265153736 7.799734859875478 2.5433446134287148 0.013415244964641412 0.7313351247191211 -1.1973586284457831
Ni 8.030549935064732 4.221580888372054 3.6345241136897624 0.2631310684013727 -0.6579797517554217 0.1878003168788572
Ni 8.310082089123124 3.8169379449225382 12.563498406437283 -1.0075865325525357 0.26110581044122777 0.5207851728485741
Ni 8.416544013584577 7.551557992666532 8.849550027572256 0.23161551429159463 0.24884910456106174 0.8605993930352985
Ni 6.738027503617577 1.243777968048017 0.40276710314454806 0.7781675116916276 -1.2786574246262754 -1.1145513660405644
Ni 1.6935141042300683 6.825822306796025 9.279087334426665 0.8915351633822065 -0.024641195587447887 -1.6463182347116228
Ni 0.4641750860331294 4.882351340907041 1.2339989523851898 -0.09245224169415045 -0.5389816412519427 0.008114144466702155
Ni 6.502840031805067 1.8645396222537123 6.3346086486590405 0.20122713180772442 0.5200626928602528 1.9466153706403315
Ni 3.6770121248016783 4.909197308483233 0.3475790598365235 -0.4123792360386447 -0.8126622030343875 0.24486672287454606
Ni 6.485861623205367 5.951461648441479 4.815494749366223 -0.549279680743841 0.13636179859290712 -0.1170733826769403
Ni 5.556613238555125 3.354340207817381 9.394317785393962 0.6155377805411271 -1.3110898341233679 -0.13954148187246937
P 0.5030364725554425 5.520739504255758 12.339625309602907 0.5277394926792202 1.5439050251500186 0.49860452298647684
P 3.8464219555553507 6.648644397699157 12.428643288454667 0.8429122601681805 -1.3846794345850606 0.5040588612328287
P 2.819474696043501 8.601216155724646 1.4988858597998416 -0.8939414588308541 0.5276878135056783 -1.2014857632402791
P 6.753992684607294 8.339602612462603 5.729439745835069 -0.6641884516692949 -2.5687351752743504 1.6538420538924938
P 4.730522378413059 1.3444526285029044 12.562296225570304 1.4805651274407923 -0.9126971421718023 -0.22241893539399116
P 3.962413696456634 6.19408858423719 8.270513268909157 0.07184227875328272 2.367708589513206 -0.17746679616333305
P 5.137465622382533 1.30622382462358 3.7146302536620133 0.3669894950499357 0.10374606944041487 0.7415465180344841
P 0.5252754493680495 5.880197973206072 3.3147120544550814 0.7202989215096175 -1.0764095648635204 1.2611263577210474
Ni 0.975637778469423 0.22409764998037254 4.418208203492245 -0.45506314806041626 0.6720925370077199 0.3945761464189527
Ni 2.216741190754154 6.950933096187147 4.444273711963451 0.3269664176897788 -0.9552535274767742 0.7422553711760507
Ni 5.92612183001526 5.864442740279683 9.401024256790842 1.5973580027628362 0.3411558218162834 0.483928666141857
Ni 8.634442718790725 2.672940076016091 10.393152086408307 1.360405135418728 -0.3028643824352526 -1.5767302992101553
Ni 2.4065798808874654 5.462154866410128 6.937999382668376 -0.18890049192157143 0.33938587440005424 0.5751033266751644
Ni 0.9456699744732859 0.2333682262028754 9.053877872528313 -0.7553196605591765 -0.2551603914910702 -0.5108386031588235
Ni 1.6262759549045902 1.1901408019556317 11.164505835169676 0.0791858636025475 -0.0529032757569347 0.4502911805930697
Ni 4.403970986345496 7.0568929709319415 1.2341723877418536 0.44172632174219406 0.9891290971782964 0.5838545905052331
Ni 5.88537364937598 8.100006231320172 7.783902037447425 -0.7493485305774062 -0.24716811731421304 -0.18974689908226677
Ni 5.726515990848788 3.3320400722211088 4.625114758356588 0.20086614892387986 -0.38927941679638767 -0.8344361043763694
Ni 0.7577244681806077 7.268812720421529 6.280433832960997 -0.46235685350835215 -0.6119372076740622 0.6678653863002498
Ni 5.391429753598044 4.924706080639626 7.359949349077585 0.4741967835660736 -1.1380869872686592 -1.6415488383474373
Ni 0.9943961815190915 7.682675122304214 11.414283784565928 0.6811914139851946 -0.9644794169504164 -0.15311382124026532
Ni 4.924934285056288 0.3501057391378121 10.227247475494574 0.01941028620581173 1.9537303844185578 0.21707361192167776
Ni 8.355859895105649 7.606801717852221 4.300279463502329 0.3010944350190234 -0.6029121213573165 0.8103088723108626
Ni 7.453886502334925 6.343544220797883 7.113750557752269 -0.037417264306193625 -0.11323883942219852 -1.454187665888528
Ni 2.682761994109251 5.611336657670824 2.547967122092633 0.5210021739553865 -0.4552181855810418 -0.9728804965299181
Ni 2.4460136040867684 5.453464842223614 11.096409637237546 -0.7118309932479224 -0.5183547090302105 1.2327418930410834
Ni 1.58949853111524 3.859475248188453 3.794175923586941 -0.77155000637511 -0.5896531994648813 0.20688175899034048
Ni 2.0788326976765914 1.5061947908567126 2.516811742312184 -1.5074987186068425 0.9462304980425573 -0.26210494112970345
Ni 1.1658050829627284 3.4465165357957517 8.28571715996489 -0.37218646586984294 0.6981429542378687 -0.1827982356785755
Ni 3.8761341706048253 2.8382878681531687 7.115981484129563 1.6708005361237028 1.555636968874966 -1.1149293182052735
Ni 4.200029263262434 7.157293786086833 6.1090778749420265 0.3810855681316856 -0.4650318292373539 -0.020709207522893368
Ni 8.491504600369918 7.4794180124711405 0.14310425123613738 0.17416267149076456 -0.5929573241374497 0.575416487040209
P 0.35440511034773614 5.70378683094919 7.8333475448145515 -0.14297853257847634 0.8868120468749243 2.066631895105996
P 8.876129452389788 1.7825959803184936 8.028804627686096 -0.31394172329533676 0.40300885056733815 -0.0015722295831263244
P 2.012114854421104 3.2498317131625614 10.39001199363503 -1.7693480920823141 0.9426623210753249 0.11981597841908398
P 4.349484899823126 6.505149460501692 3.8251980319880587 -0.363964849290999 -0.7701618677783316 0.1599429283469568
P 7.035396114882321 4.362629474222894 10.73331085143263 -0.2872611286803569 -0.29032254121449996 -0.4204028776740695
P 6.572588429713835 8.001211975258585 10.032458575155015 -0.08909849473056913 0.09901446829270044 0.04426205514216893
P 2.412120684124034 8.600641080594658 5.843935378580713 0.6085389806257907 0.6689493633930479 -0.012401458988146385
P 7.2487398599318835 4.1584230340165025 1.2799520193597111 0.002327105471279863 0.01818386999787836 0.3569562791836498
Ni 2.857548320919495 1.4696729560140247 0.23966392964976413 1.318554260821213 0.029697784174748856 0.34293785341737065
Ni 1.9557301071521005 1.5328399385462415 6.805641733821715 -1.5110864359581007 -0.9150954672006498 -0.31718799814677634
Ni 7.005693028009513 0.7887210176870599 8.830071411383601 1.2386482312231895 0.8678036240932216 0.7069505252271695
Ni 2.966949518267561 1.9158582314728052 9.001947675472563 0.40766331862021404 -1.361008830440998 1.6825918723316766
Ni 6.803631709319751 2.1570702998852087 2.5677268861226175 -0.00993062885015064 0.972426696821951 0.22566803845890812
Ni 4.301963612097299 7.269807691678177 10.323505924078205 -0.3855564594188457 -1.5948483489671048 0.16765958026492417
Ni 7.641452276478276 6.85143597052224 11.494203709734183 -0.3411853895026382 -3.5126401105075247 -1.132821625104662
Ni 7.823322068381729 4.225405594395319 8.342510849548551 -0.43227468941099106 -0.7330320528055698 -0.2761997286598727
Ni 3.135766017537911 8.55215220614218 12.285610236996526 0.7608297917441283 1.4163767656883413 -0.5311829711431303
Ni 0.04546653515819641 5.158268737005497 10.189732495030569 -0.045439877500354 -0.12092463810223046 0.08901930475320152
Ni 9.035890800406964 2.292988850449473 5.666193348165854 -0.3764344425129194 0.8295695203126874 0.20010098862308118
Ni 3.8300003657323076 2.966693929320899 11.383476188316472 0.5662492187186441 -1.1683028487304072 0.5791759540826412
Ni 1.6292791250278704 3.134351150154602 12.728160672506705 -1.1111438830209122 1.537171820191243 -0.5398504170101412
Ni 3.2948518804817657 9.014366559827344 7.764449892971102 0.8692892074998126 -1.357649684160778 0.9505082994823048
Ni 5.844543315146702 8.012658708798382 3.4823528445707854 0.11179413655587198 0.5656828046922129 -0.3307829632223916
Ni 3.3023643698783 8.981623790124589 3.5170088801028396 0.952010080838812 -1.2373066295936304 1.5226810827742354
Ni 3.502426617878097 4.401880633888866 9.181439577354391 -0.4359547093657395 -0.5030625587578303 -0.1652712825384057
Ni 4.889726907653578 4.953377683549119 11.596100633044715 1.020463388515204 0.040402315076446545 -1.585558953245379
Ni 8.129362447479652 0.02272003172293177 1.9541418044121286 0.9270413267086163 0.2892866437508179 1.1566387821289177
Ni 4.7829728815387975 0.6603240846959959 1.715077595969354 0.01529086472079947 -0.4847912712524683 -1.017020938492558
Ni 6.10734352137539 5.845437876460019 13.327357009337781 1.4183074070521509 -0.026835632135605397 1.3989094621415132
Ni 8.285362986710227 8.954732181665065 11.290677318689445 -0.7381477767655803 2.152485657647022 -0.8786927602018995
Ni 0.23247914179555776 4.784278210802108 5.938791739228369 -0.8937655953746221 -0.27587448410997 -1.3015104179650487
Ni 7.79628440909554 6.318414350434994 2.4185222744202544 -1.5173658412089093 -0.051054395473654014 -1.4962858806101584
P 9.06249030721316 2.043543166683882 3.4698481553553395 -0.04006781455516325 -0.335552359586577 -0.29761393266959063
P 2.386780865697815 3.461568899118819 1.466568463129746 -0.9305529394063007 0.39444861970215295 -0.2145829842893401
P 5.010374018654779 1.3156441029434136 8.178182674745123 0.5678209340811382 0.45097766513713294 -0.8385357283670397
P 8.815956511804185 1.566395115972315 12.334628545695661 -0.02414574400826809 0.6877649534376542 1.4331593844633188
P 6.651784490472435 7.863796403721013 1.2310368590569087 -1.6014817951232225 -0.016602898664003662 -0.5781009758509076
P 2.0513021168504113 3.540901882527417 6.044536189003834 0.48118838439255834 -0.4252787177091321 -1.4222681914721118
P 7.111141724860982 4.17459816306955 6.049425240426414 0.44519011192107844 -0.08554343038945914 0.09078231019089526
P 2.8091689845870165 8.695181606329651 9.905110469662935 -1.4941886317614974 1.133219631874029 1.0890863890002405
