# total energy = -340887.71684041456 ev
CRYSTAL
PRIMVEC
9.08591232107421 0.00000000000000 0.00000000000000
0.00000000000000 9.08591232107421 0.00000000000000
0.00000000000000 0.00000000000000 13.29815109998463
PRIMCOORD
 96 1
Ni 5.40449146472191 3.2200382478190583 9.811362474654201 -0.5800066775140527 0.18202536206829298 0.038291696491346956
Ni 4.363436714576283 0.6538231606660408 6.715020746039863 -0.6012180214843452 0.17245571610198687 -1.0915132532741783
Ni 3.5311126286456997 2.7573109041049704 3.292329400770809 -1.1563379630590473 -0.49417348379831666 -0.3587974461574466
Ni 4.828744457395279 4.4953641617709215 2.6822903430859144 -0.7858067734044403 1.463825446088608 0.7941584878032453
Ni 5.503500651504277 4.8645883815814255 11.993469708990547 -0.9738852836453485 0.10464055623022624 -0.09992078215705372
Ni 5.969135487167558 5.762530926440362 4.997671556825869 -0.5374636619455195 0.3459645560588364 1.335999452880854
Ni 3.597612421071152 3.4926519617052794 8.010739990241614 -0.16939224668531472 -2.0375257217686586 -1.0530261529425735
Ni 5.717392113929138 7.62614240674975 12.818673165419309 -0.9804405682653631 1.4658105948394369 0.0187903932336257
Ni 2.187378880676727 5.557280166652008 12.014972429137298 -0.23437019421859637 0.0998063680663765 -0.038608970621449634
Ni 8.066264000558862 7.692069786697705 9.584496329406067 0.13305356015528053 -0.2867420229520932 0.5412961483177323
Ni 7.534311090716954 0.11152412244117575 7.551554335158136 0.9603407121916945 0.4681168959205809 -0.10525067901039939
Ni 8.581071793812871 2.2993445784576863 1.8855585015696261 -0.46753891192992375 0.22623599514723616 -0.3059826163492601
Ni 1.231495472817777 1.1510215472115155 3.3340591789716036 0.6423407596665841 0.7473926924026161 -1.618721813150593
Ni 1.8434589267365435 6.429618610533362 0.8918204571234156 -0.8774100368347341 0.9222503330778762 0.41885584490192385
Ni 7.450084683313765 4.012229858938435 4.326845928395687 0.9092593201348471 -0.2434654716516452 0.2761105113801761
Ni 7.387219255824804 4.044848284243445 -0.016610864942234044 1.1337742188259183 -0.14097281500235723 0.08049969731796458
Ni 4.472258686687177 0.7273390946013893 10.81743464510363 -0.9474947094669617 -1.9558178630752057 0.008109002260379583
Ni 0.9738553424699 0.353311152936077 0.47145708829154015 -1.1165514271897288 -0.5869720530882924 1.1369680431728677
Ni 3.321773208303794 4.801050596579215 9.868957164394015 0.40433219736445203 -0.07271902493128123 0.7798392429670956
Ni 9.063833574239368 4.879389332785287 1.7711141669019796 -0.5792497447433702 -0.09800376763999896 0.37751276317876276
Ni 5.811912860014939 2.268897686202229 7.427788763019624 1.4150714166133564 0.2375982142375908 0.8894862512729779
Ni 3.1291882103191138 4.279482884543331 0.751076949184083 -0.3948759370475587 -1.239477411992704 -0.13985721334067527
Ni 0.3869817268902018 0.42484908375474 5.419395086735227 -0.02641525676873515 -0.1668661378293513 0.4182310668337313
Ni 6.614071716972643 0.9581185422948922 0.6862335185784372 -0.5975040629678677 -0.9002247207364045 0.6763122315160224
P 9.01754993677315 5.837553304641887 13.04615079256801 1.010693967833266 0.08731569179853349 0.31352443325226004
P 3.9897785695432586 6.002807878304151 0.0834041323363075 0.8841180449825291 1.8501059281576717 -1.034071466216942
P 2.102816294516913 8.334661851118753 2.143821925504111 -0.5576915589566201 1.092772579602576 -0.8492726551685695
P 6.221169609600897 7.78418276601308 6.268827945604343 1.115922278246162 0.3654357774095706 -1.5248940312651544
P 4.557884324590915 1.1721553793172133 12.845601992416244 0.7832734654596253 0.3793014796480694 2.9313378541105
P 3.603854442849576 6.595745431780385 8.594289070495657 1.9655235203987442 -1.677482319019253 -0.5720856228947632
P 4.652795764907389 1.1474780413984365 4.298002699668458 0.674910208962173 0.4781398273742218 0.9659125498525171
P 0.34922885252116304 5.62369818586639 3.82633027525443 -0.7363048100195706 2.0938454794063097 1.084202578545378
Ni 2.5870045631809826 1.8287488346560947 5.36846400510647 0.11698776494166947 -0.03911444950295844 0.647235111644408
Ni 2.043385341892937 6.68984822589849 5.334141062646244 -0.49491627550161216 0.3377182568896442 -0.9284348646220334
Ni 6.499180355417808 0.9379932464590709 9.707796702832708 1.1047680614015556 -0.018779337490032175 -0.9448161341935342
Ni 8.930843075300805 2.661699848538222 10.916731855307216 -1.1952755206645092 -1.3700200328006729 0.7594213414323759
Ni 3.431449256174764 4.560864503838838 5.660105436617692 -0.6537232904719128 0.43932465427923695 -0.6161882696409323
Ni 1.8442766588472541 6.88894782303183 9.652516194966203 -1.4431005548364306 -0.9385511271204288 1.1300438052492086
Ni 1.8881070999813407 1.524843238666682 12.021368911425524 -0.6239206052881835 -0.22750483455733078 0.6383347238309846
Ni 3.8874348529316602 7.140945601815804 2.1156292481005132 0.6288249845683364 -1.7610570557181153 -0.7412698673343298
Ni 5.5324301963987494 8.18007413854509 8.264228767240784 -0.5355232503896971 -0.7109118238677627 1.3329598947235817
Ni 6.953185223284317 0.8256968214688908 5.362492743515815 -1.5018597751535103 -0.19162817526537967 -1.0952158989367462
Ni 8.157831825133762 7.572689984446303 5.15546750504722 -1.2845894738399941 -1.0257830009559041 0.7168662416789847
Ni 4.98723911227567 5.342307480658541 7.436871040995916 0.3825061026282961 0.174865353984744 -0.7316392862231013
Ni 0.37313025352599893 7.592642647947641 7.297200579304082 1.1498659821814583 -0.0501910190320942 0.1960000790808302
Ni 6.456985378505143 2.1298377978197265 11.937896634746657 -0.06287067138229173 0.6855139526199484 -0.8416171955058408
Ni 0.3141445106067431 7.970871006888303 3.28920475551666 1.7294168031050152 -1.6307180662805205 -0.2820091362527982
Ni 7.291998894488729 6.557493740823812 7.74054767199433 -0.3076191235114186 -1.7380328269088003 -1.338185404788579
Ni 2.254769092511619 5.069657423122955 2.8893428392915332 0.6983388722987586 0.7627558051222476 1.1111922197603443
Ni 1.1325317155971155 1.4363282806384334 7.571288936763286 2.1416654271030664 0.649076792838837 -1.047332702102222
Ni 0.9070475376160807 3.5322665395130364 4.267536726997084 0.4513335058146549 -0.2507357800608133 0.2889914811079023
Ni 0.5779548840255483 7.666529287106512 11.780778495585963 -0.1875835728823608 -0.7766346199868689 0.4756975364813163
Ni 1.9621300278253297 5.230096463244369 7.740028866399645 0.560690493683944 1.4827677915190656 -0.6324646382034527
Ni 6.057114376367674 2.239186752846412 3.0895590950516114 1.192779493715533 -0.0021921225553123537 -0.7921476280208034
Ni 4.131836808998367 7.499875482943697 6.157083944084509 -0.5590452447710371 -1.419980938099832 -0.18778257626704434
Ni 8.356277236578535 7.774733417178202 0.786398433410609 -0.5924796131700829 -0.7968370630766729 -0.12193379609303516
P -0.02275839323230928 5.6222989553658405 8.572054934405436 0.2694590675019295 1.3218187905050978 -0.5822281106454037
P 8.634069920499257 1.4936876452486092 8.862393446086926 -1.8349040236062528 1.0277000154729592 1.125967578297306
P 1.821570963906524 3.669618276375388 11.11924866407209 0.24897585994691315 -0.1787549188471373 -0.15883966798044902
P 3.9994368943619847 6.171487840919059 4.07358248202258 -0.7294764742438276 -0.08974307029310351 1.2314370581867307
P 7.22071991217179 4.038315513270102 10.745385177420156 -1.3167395762099774 0.7881570188041717 0.8496269531841948
P 6.121469893480596 7.832120039525401 10.578972149934383 -0.4175281272294357 0.6524202553897731 0.021770044687239927
P 2.182390714801392 8.734060385814477 6.492330486103756 0.4468374177165143 -0.06548316930447431 -0.3235090552687977
P 6.825791646347951 4.280300616654042 2.224342189263313 1.183026013873195 -1.1022656066946759 -0.8312929307616973
Ni 2.828117418980164 1.7697085762627915 0.9532775681994856 0.8994685592966704 0.17137199611950485 0.14924122565873651
Ni 0.8249172501900134 3.6092878184296304 9.053607379899315 0.9672307544433084 -0.3178762824630525 -1.3656270459392996
Ni 0.9102812138183238 -0.06674056910249433 9.403841134325418 -0.06958999238399628 0.3778194957859042 1.0145465088101366
Ni 2.416480160360805 1.9912958064406734 9.873837207912489 0.906168339914349 -0.6383439798023651 -1.8983210544103177
Ni 5.194643233288895 3.152130138980716 0.66590197253247 0.442163923500245 -0.7927454095058025 0.17405802759210023
Ni 3.9884701981661217 6.91039966206947 11.186670676600178 0.26640305428442507 0.8018463433658061 -0.3074941678977801
Ni 7.427969572675214 6.424603186921004 11.730697855352345 -0.44018391695573866 -0.2679953384722094 0.24638727328413051
Ni 7.593414950496645 3.7271866169694126 8.59321238988322 -0.44709812757706874 0.09900084144594563 -0.30542931494895137
Ni 3.1144145168522765 8.509147711719706 13.344827446005047 0.9678868999700686 -0.4280598799986951 -0.8679440063258278
Ni 0.09514949121981366 5.29622373326383 10.704506749205732 0.19657189242390016 -0.6588500701755169 0.28670962705226105
Ni 8.378646752762641 2.529636112658465 6.437448849789034 0.07827440753187165 0.7264777966268199 -0.07729610277900237
Ni 3.82878528876903 2.9223110722216807 11.810460354022288 0.15508174359991356 1.3717208175418634 -0.009305593671642038
Ni 0.8286633718483019 3.5744342586886777 13.127548755459374 -0.1139554058732489 -0.06920406979948727 -0.12050092030125054
Ni 3.2207560348940154 8.616143415450013 8.715528759003307 -0.9989982766628924 1.720946817960791 -0.10703785281780921
Ni 5.481721719622352 7.932773776441532 3.823484567509157 0.5608555585068986 0.1298723342138215 1.1794642646638656
Ni 3.160752669792542 8.780180476858554 4.019285978462633 -1.546829397885665 -1.0663902329543056 1.4622524451745333
Ni 5.231459350095553 3.15319319072464 5.278501661242264 -0.2104260246981731 -0.5641830802182348 -0.609867212518911
Ni 5.798856403980594 5.741424352071688 9.62864568606333 0.20853986341905376 0.487459819223567 0.6478938282743293
Ni 7.544314680204646 -0.02229592029414075 2.821468348328853 -0.11860524594043444 2.0265064878400194 0.9044675551731584
Ni 4.429782046491933 0.3549684233471171 2.1424254207772644 1.0794658351913409 1.1835451196014584 -0.9886719550362199
Ni 6.11779918489474 5.912357620947221 1.042197757918153 -0.8647123867624077 -0.5409868446074296 -1.2624152517358
Ni 7.812330922446206 0.041071958147289554 11.648741108851995 -0.22182629611531474 -0.05742456066605594 0.17676411366935363
Ni 0.18716434268190346 5.39614151128032 6.0404062921633885 -1.0650542877517013 -1.0979057870640834 -0.06622004747049885
Ni 7.340690298725373 6.34507419619823 3.0393458004978116 1.0936778650256649 0.05612615356960656 0.5042262400486283
P 8.398381354367789 2.0062421322419945 4.112919030912695 -0.7858132011623434 -1.4757409665792713 0.40758695685632385
P 1.5888171474612722 3.2078449534571294 1.9570491856441148 -0.03161325602990685 -0.6657311135660663 0.7778980600803248
P 4.307322119956855 1.4314854893605586 8.779917893991891 0.4701547522862161 1.169686102231179 -0.5456299998063958
P 8.457939509764541 1.652727454869474 12.984314798947311 -0.004166215562547663 0.7453082990697616 -0.07305455389382903
P 6.229246985672249 7.915610488028951 1.711538748271778 -0.38364073045337155 0.569238383253955 -0.23063875220062213
P 1.5789316748340154 3.5047725687684785 6.507396745947981 0.11867826527021498 -0.7570983497261542 -0.1658865475249014
P 6.742273940107378 4.08045597470872 6.543182520295144 -0.16953211469728866 1.0088520295285206 -0.24035392260585703
P 2.3240310022888044 8.661800124964687 11.199543597205231 0.7844474311630684 -0.06703894382736841 -1.3118753061391406
