# total energy = -340865.5204184032 ev
CRYSTAL
PRIMVEC
9.33775127251263 0.00000000000000 0.00000000000000

0.00000000000000 9.33775127251263 0.00000000000000

0.00000000000000 0.00000000000000 13.66674286168869

PRIMCOORD
 96 1
Ni 4.090859585165328 0.29655578166886615 4.28649201507483 0.28444474227748434 1.8955725451309036 0.14970016757302607
Ni 7.329331864328515 8.539607171263393 6.590623278605949 -0.6557521479764835 -0.7611285539314698 -1.695201590675887
Ni 6.666024688023116 1.8045764998110259 11.934729569237017 0.1873388038614064 0.18260386027958228 -1.4008218486728776
Ni 2.627802007944485 8.09319728631045 1.6107079711558918 -0.7234369529179671 -0.025653438902046143 0.03900517761860379
Ni 6.054682098697931 7.0118296385421255 9.791073167522104 -0.9177187637561098 0.5645129527538277 -0.27755727112903167
Ni 8.412595075647063 5.238730698966554 3.6220559046156295 0.47916158377051676 1.879792142368195 -1.5862693490488422
Ni 1.2408751185313138 2.2029903421622956 9.030191157137683 0.2365458617136765 1.2881175415979105 2.286002016371334
Ni 4.262216662555071 6.990576916176093 0.580586837279051 1.731541819867818 -0.1547158756200626 0.9994821582778465
Ni 8.52712259753607 7.218959641847627 4.956763286433211 -0.1756744801496007 -0.06760201541969002 0.1871511133306325
Ni 9.067255494082978 3.8598062625708205 0.9095474179052288 -2.6727784642402095 -1.1593268704840423 1.2127698207945308
Ni 5.7120426459302776 4.543451061597318 8.894139184314605 -0.7436031434531968 1.2426874342895693 0.3219494240911616
Ni 3.1954719336027404 5.9070335723131775 12.641792515197508 -0.050369196481171316 -0.8065722880865659 -0.6472420536229434
Ni 1.4780259928415584 5.594909891378649 10.884672335952672 1.1136324537707207 -0.3771463809782795 1.185029931677101
Ni 6.320789340344321 8.813875607702363 11.476237567645496 0.22213122895024323 -0.112244079609097 -0.24121498505457165
Ni 4.4542288462161945 0.9153779099286692 11.478957654651307 -1.4612813395105155 0.8318611445603415 -1.9126428703496285
Ni 4.697542636502529 7.902772520400745 5.762254536957898 0.9437079887310198 -0.42066924396157873 1.5810525807345932
Ni 1.2871343393579056 7.596260828105049 13.224446730653993 2.3441158897949306 -1.6500085390790165 -2.201756993078324
Ni 3.8829732239900325 0.6695709399974616 1.869610203761143 -0.14256869873456737 0.8710820377341773 0.13412905260764643
Ni 5.725012782734503 -0.33115962109946445 8.220176699796605 1.1621846516478114 1.1157009062639753 0.4279148697803985
Ni 8.017981698147715 4.234063341846113 12.079200458793492 -0.11374046164896541 -0.9333582700655796 0.9878204056692019
Ni 9.101282260472178 1.6274393542558288 10.923991739880128 -0.4854170777619252 -0.09181409388951929 0.8635474199200289
Ni 1.7262514404058074 6.698734831453788 8.78409378313548 -1.0045688287721342 -0.16584026766799825 0.3991745644229125
Ni 1.671308110703816 2.5261885963508295 1.7474163879079376 -0.09775102819924456 -0.7589816827917961 2.562551672171458
Ni 7.840060181468289 6.610474404474994 8.032026610147165 -0.667639900553005 -0.3514698021477818 -0.6229908943850625
P 0.09010930177162106 7.898066293655368 7.212117871339021 -0.9493266204693779 0.023058167371044158 1.2841940381737882
P 2.9799846427236 3.696862499263589 5.735603660461899 -0.33301108122196194 0.9339938467670494 0.6658265014933501
P 5.921040199531564 1.4726754612441346 2.0930887423559463 -0.3875084409388939 1.321581734793627 0.2612557057555307
P 0.8963186253850365 4.990589291165615 2.234389465285327 0.2784211617912237 0.9038126951979789 1.0011551751048953
P 0.6584207309564779 3.5679268268426 11.387226385447795 -0.9941342637023717 0.2435814284042192 -0.5597692674212553
P 4.6635718966222015 3.165815234905676 10.608303839206092 1.3955127777551386 -0.33718732408683866 -0.051868406734517127
P 8.797123681549172 8.426190841800377 3.054216031880458 -0.524456193942258 1.7953694558467403 0.25438134723320066
P 5.181630348672931 6.834991301034254 7.79306421205001 1.019865864140521 0.008769004441881672 -0.8108058665519391
Ni 6.845486933696566 2.6404173101925124 0.33898839193939473 0.16498691852876746 -0.24553726657900937 0.772949714936114
Ni 0.9487902522705568 2.0393929362515393 13.102497563889536 0.106233611748959 0.6196880552640747 0.8798507850657429
Ni 1.680795266206403 2.70572554403611 4.43089473904551 -1.0625454052869185 -0.8891471227660042 0.39678703802734244
Ni 6.168527964728979 5.8427338156293045 5.481798906388994 -0.9799474306790283 1.5908371709251827 -0.6060735498044337
Ni 3.648035396780293 5.759571800958003 4.8234855595745225 -0.38903773309922673 -0.8324255017042438 0.5538827267334913
Ni 3.724194097842401 3.1094805802333245 7.985191250054324 -1.6429107516919703 -0.858626585579644 -0.32419039760653845
Ni 8.932175581188856 5.167586370448628 9.616822320949042 -0.5994524449434903 -0.5782521567167912 -0.08404524857737783
Ni 6.946689484225149 2.3080213707972383 6.504604845757244 1.0173757507288157 -0.1298309394529248 0.6061224007644981
Ni 2.874440037757317 8.17439837317118 10.731796536290018 0.24954587351777022 -2.087962281152656 1.9652368423962605
Ni 8.776505926283708 3.1429190682793533 4.040804568362553 0.08643200364199953 -1.6543889275348993 0.4902129564886719
Ni 2.976090800356889 5.69699019054625 2.421322845917064 -0.1461813557864902 -0.7754359716930774 -0.5603817041942736
Ni 1.0190381566465054 4.921060393653544 13.260457769232467 1.6050402018984422 0.9587093472358585 -1.3959467799687635
Ni 6.657256539384406 7.505236426688494 -0.06202041154786838 -0.39173276343288665 -0.14675882555651498 -0.47048025394643483
Ni 7.868857807029292 4.502308928581176 5.564482828184573 -0.015148168495348103 -1.3915987874127131 3.7891185467500814
Ni 0.8322756568668331 4.977049551521175 5.265769092148928 1.167614821524447 1.138802525278445 -1.5368188077271985
Ni 1.732012833068304 1.4671008236112169 7.0621806620667815 0.9116198499472236 -0.03367913742000006 -1.528335967067168
Ni 5.098515022759025 3.6257555217515796 6.082206054957209 -0.6491670385597981 0.895222896646439 0.00238418396146041
Ni 1.8918658006360116 7.083739662681323 6.521209235437068 0.8796170717883819 -0.6532499503799202 -1.2067629524788186
Ni 8.103412786428395 8.052718133649314 10.185372796571759 -0.32040316264996427 -0.518479921754165 -1.5359837134204128
Ni 8.905049413142581 1.7153262711754658 2.290641947744664 -1.1421441880571683 -1.6595645581985679 -0.6769755761316341
Ni 0.8461207409846343 9.154815589700853 9.56614634367292 -0.482443082735266 -0.01330623019060289 -1.9969053771441354
Ni 8.566247776232766 6.558136307435622 1.8045708971601384 0.559214680469366 0.5095707921899933 -1.8978418007810538
Ni 3.7492192718059183 2.6971254749240208 3.503852109969368 1.158432897914863 0.4698608751948811 -0.4483780227307569
Ni 1.0842997017327085 3.8836268665935574 7.1836909545117305 0.9350649683440413 0.6467802834951765 1.3259898911636518
P 0.671253602813964 7.633770575795889 11.028582960420414 1.3819144702454134 -1.44896549825764 -0.15977812063431837
P 8.489258015289032 1.0046673571204405 13.74847013834946 -1.089493394630672 1.5422592620164794 0.472066110376316
P 2.634161016701633 3.5574965584406413 0.35650974881444863 2.498963148786535 1.6697864930368922 -1.9303158621493597
P 2.37781172535072 4.401330484088087 9.207162090716556 -0.4858587932850343 0.7693625118054879 -0.4932039207961958
P 2.807796505452233 7.997942883473943 4.732423807152052 -1.4183279758774412 0.0845836375793511 -0.6625167203938268
P 4.949110999096233 1.3370539587642358 6.780044236231671 -0.016610354863171393 -0.0037175580609032748 -0.3612549065590036
P 4.691566475556018 7.487504036630017 12.046413745800693 -0.3335481846723546 0.011950230383340709 -0.1942866959341493
P 7.475439661719245 0.8011902821934935 9.707706656093414 -1.2991689143160658 -0.2139540924560896 0.465037999884941
Ni 8.753320289361538 8.805630373146473 12.29826504226421 -0.9667093347221997 2.2800501696632733 0.7775532751463964
Ni 2.7643572855722764 3.158961325320145 11.65398726969771 0.3417494895362243 0.6960572753534335 0.5969188798883591
Ni 4.81630015981149 4.343903312492702 1.0334519098293733 -0.9202086200574991 -0.05719984624975955 0.7366627075796216
Ni 4.023160886943125 5.78789320119358 10.243429332616826 -0.7162309220878309 -0.24039428892548922 0.20281375956855394
Ni 3.5337693319326946 5.501625754104193 7.4464207314481925 -0.1097033154651143 -0.32422716438174487 -0.14630348318665123
Ni 1.1570127724990933 7.225225273089986 3.3515776615019557 0.9093390243328469 -1.1836273949026195 0.56543726434031
Ni 8.378428242985677 0.8468257412212932 7.719318385970055 1.6464074519913197 -0.09993929409981499 0.9401045876504777
Ni 4.459261894263334 7.417797721839845 3.204701367164509 0.6408993992343672 0.8569839077698982 -0.1889071767897908
Ni 5.280946673402772 4.3896116059820365 12.446179694566112 0.8615504440946582 -0.1399873111606363 -1.4816948701698611
Ni 0.9258007081294447 9.144095851003048 5.718397919586834 -0.11926627656320105 -0.016994477675467506 -1.2653995311751047
Ni 0.3253692814073834 8.74384247161043 1.031352783296911 -1.3158517742883855 1.8264954878275836 2.087426977474476
Ni 1.9362761466697762 0.8191271690093596 11.396819991317242 0.5992832663554776 0.6629471230630261 1.1551552556048557
Ni 7.77389287448863 3.018829688875926 9.540808355034857 0.09498914918339124 0.11319050268276634 0.3593574324259746
Ni 4.972072529982908 9.2771681473292 13.473932774667897 -0.09400544511388326 -1.0511847288584604 0.8843918674692058
Ni 1.5455285982827034 0.50030458516385 3.3042492681310267 0.1074209471888408 -0.5532085834846021 -0.019437025678689105
Ni 4.434535528347142 2.1711392718676845 13.537838478239362 -0.4131425965672304 1.287077016148538 0.23954736754416164
Ni 6.592938107197575 8.797133019300652 1.8929938010146659 0.44358677198970053 -0.6018901078507053 1.297805972530268
Ni 3.685862628021416 8.148299357787586 8.70156113291386 -0.8001206189239511 -0.787739728761095 -1.6442266422899168
Ni 5.689221181315786 2.199003122280795 8.768842433644954 0.3407346751184648 -1.5898763496738102 0.7040194676233037
Ni 8.274517744528207 0.9240676214549564 4.813181350817529 -0.04876765632200633 -0.8637489944078737 -0.6882025551957051
Ni 6.065887400472641 2.3181248178974343 4.363996286125051 0.11509594723559533 -0.2694752654518455 -1.720669653040004
Ni 6.185130486858506 5.985657439765721 2.1626120372171305 0.06056593450851505 1.5522847645732816 -0.09059873342517945
Ni 8.521183787595476 6.6081212911023055 12.517670453663905 0.10481899078961948 -1.941545926537224 -0.39582724521723445
Ni 7.031793751204066 3.66125765287445 2.457882010507349 -0.7974284168037685 -0.4033397515441957 0.3383625753418624
P 6.449230111936926 8.10866994051103 4.275080348992437 -0.3678387304241084 -0.26351133455892684 0.6670593454591867
P 2.899782695271118 0.7071385817474706 9.465791660978622 0.6083515472053329 0.7120163697858513 -0.7362862980768093
P 2.5664903317338674 0.23395923085474818 -0.19029964003988897 0.5207142104013225 -0.13503948023705775 0.6782937807224254
P 7.1630731992462655 5.447158649727626 0.3396700477973562 0.31317553455327357 -1.7190858534926523 -0.5229137891558027
P 9.231179721295497 2.352067544523325 6.243310281223093 -0.1461355901502193 -0.20983647074329023 -0.9939311465526303
P 6.890224101032092 5.449754544638767 10.800513049423422 0.35538353537989115 -0.7300971385469619 -0.380288526151687
P 5.296568731627012 4.732503178039622 3.580180758108393 -0.8431611429541931 -1.1612001762473552 0.9496058422726935
P 7.526143652249806 4.268865141608065 7.855999723242812 1.038700480348521 0.6551358545487234 -1.3509450184470926
