# total energy = -340858.1494467698 ev
CRYSTAL
PRIMVEC
9.37699293708840 0.00000000000000 0.00000000000000

0.00000000000000 9.37699293708840 0.00000000000000

0.00000000000000 0.00000000000000 13.72417700440157

PRIMCOORD
 96 1
Ni 2.0175819758397022 2.42559370152087 3.1032971270162517 -1.8932138150907394 0.02654484036806396 1.597619741064655
Ni 8.802061563349845 2.3057463521475707 9.736466740057073 -0.28707549503211205 -0.09873781759254609 0.42235177387032424
Ni 7.429391667981001 1.7515097953790675 5.189756868295796 0.19661945783238396 0.4991642521446886 0.5192139717067122
Ni 3.9790332707194973 1.5152752071025997 3.3875794281625096 2.1677389842616663 -0.19146105355989607 0.3927234094809301
Ni 1.6330783719705102 4.59145406994644 11.647338533918203 -2.2203069881663695 -0.25281605962860976 -0.0772811903806669
Ni 0.6449561523386353 8.84069477510307 5.204537822588664 0.753932807513979 -0.06913105046970675 1.0631408727790723
Ni 6.739338742514987 6.951690129253721 8.70752365617148 0.23887476695716925 -0.4671969552094728 -0.2305240809996288
Ni 2.303430234841006 5.805512126284742 2.4195858620135176 0.9632154626363283 0.15534990965963566 0.1028875780948615
Ni 8.304846501889926 8.731237134133309 9.310303031047777 -0.6563671558526631 1.5409433714185332 -0.3425889547183842
Ni 0.9649301024888512 8.011102814661387 1.7619923360147305 -1.4967432798625513 -0.9414539025895206 0.20013801250860372
Ni 1.0760474712450987 1.0269401581500381 13.347516793428456 -1.6913215388951903 -0.583670242408569 0.47220083618196745
Ni 6.306731163817142 2.576778961981374 13.144509580357706 -1.5151863170590874 0.9319246229428467 0.976005672422461
Ni 2.860789330326457 6.138507906814012 12.968991022688556 -3.181821666061507 -0.5968024089151529 1.078678049182723
Ni 5.560528803404934 4.733234206283526 7.510994950816548 0.9718651678915262 0.203901593316094 0.11124649158251808
Ni 5.064776552875479 5.414594659105062 2.9806995055538206 1.2165164323211566 1.7906095725642515 -1.6012339407784746
Ni 3.6471345983880727 5.063548166773616 10.778681082339354 -0.030198377960251217 0.9051216438173896 0.16976274265085603
Ni 3.5353608401117467 6.929335377598455 4.678764190809419 -0.7504085964108044 -0.730261174928652 -1.8863150310883772
Ni 1.0118431991882189 5.014084527939085 0.6082349094874673 0.0792272583634442 -0.5723550745060659 -0.2415762250487323
Ni 4.885347789065285 8.695857739001045 4.092110431042838 1.4256849304631445 0.5928387962817144 -0.28787870765969775
Ni 4.833614917889909 6.637682759841023 0.1926062522754388 2.312014381274696 1.2954837521549947 0.555867361263688
Ni 7.072606455845435 4.183386082306409 10.142524300367034 -0.266862767529663 -1.1547775605504629 -0.14852028833231196
Ni 7.910872134945308 6.6428963680290805 0.4739113580984806 1.085911847927001 -0.8070674825554296 0.21157170826684207
Ni 8.606419978393697 3.3210121538333444 0.5900529197812763 0.22988541897436537 -0.6177756687327103 -0.0038386570197998407
Ni 8.301827110097562 5.858773447342589 10.96130833851096 2.253940617060415 2.069612060780242 -0.6688251791103579
P 7.534245205317065 5.596236393297238 2.6268764855524402 -1.5646705398321439 0.05872990974104079 -1.445040709281937
P 5.651185573121002 8.645550170783554 13.618088992898889 -0.04772738798295006 -0.6773630413780399 -1.383228818181463
P 0.28767489726575224 4.54665079670447 9.481924510366285 0.5606190170160602 -0.7193167601020064 2.162756957666043
P 8.749278468942341 3.174693552814569 6.717257799059527 -0.5072583420067328 0.1374519463332923 -0.17372481262239758
P 3.6087639424428777 2.918982949778041 7.533310319100609 -0.34776252849952366 0.07957872816559197 0.022928069551083095
P 1.8813905274164333 3.038070762706677 1.1692988549641075 -0.6637765609428569 0.8674328710173642 -2.0346820816722766
P 4.1598967144807215 7.380171830968211 2.057748325971971 -0.5274379022784013 -0.1690762581067927 1.9756320695876557
P 1.547869635271099 3.91739829478407 4.542908438740705 -0.5009899924995178 0.6566417496702885 1.1190538818966083
Ni 7.3086253732795905 0.46994582769788845 13.161815758904249 0.8372676602878936 0.08964125460791658 -0.7277625768765145
Ni 2.66046862579146 8.38152217482831 0.5262190389535839 2.0287657161878414 -2.0200743590614305 -2.4460079367457426
Ni 6.538230370555896 7.664079052388711 1.9930798927544637 0.0474975313603311 -0.5222283330530039 0.6361870813603625
Ni 1.90113847497767 7.113311983083483 6.175193517091233 -0.17961932372996162 0.2304556896555386 1.7611087348916574
Ni 4.670211435362789 2.1661041702473143 1.046217380655447 -0.6581921248765439 1.5399077310651674 -0.5618117517725808
Ni 5.292524962356638 2.560959974547468 6.108576544698406 0.0853102313327305 0.7785305514580012 0.04221725679799826
Ni 3.0396929825205867 0.00024755261900126014 10.60165282877402 -0.3931335004351552 0.8304627215509182 -3.165667424899148
Ni 1.5263400590125047 6.981340181575008 10.9356716392553 -0.032568677964640684 0.46193364992800445 -0.4673576491570532
Ni 0.1734331143939283 0.6144518559419309 3.318656653155575 1.0514423533952215 2.0914996048819527 -2.2610471461982096
Ni 9.457635285025416 0.3080886113402122 11.251656616522062 -0.050313660652887546 1.8378818752876538 -1.9171099049820468
Ni 1.9581974782588316 5.607310622200286 8.623957768670897 2.000388193486413 0.07389324774504048 -0.38901510739140743
Ni 8.680282553388883 8.046444701821073 3.4488993371282985 -2.3694625960898352 -2.432437140039843 0.1012353872034192
Ni 7.350896858372685 4.821237286939844 12.685888347279812 0.5665752345994952 -1.0359771678800869 -0.5082952679116794
Ni 0.4143712024314199 1.8845880820785326 5.176759418098916 1.0227156748844903 1.5617803627685425 0.6419702637010427
Ni 5.014459607664843 8.315170571341456 9.712257219157928 -0.15033420161259914 -0.989308045958322 0.18679604398405894
Ni 2.6058851487003105 2.5352951443123755 12.808870425461146 1.4461797079823868 1.7153024751908201 0.4724067815451864
Ni 6.623148420467844 2.604675516584736 8.43689707014081 1.1607186086252461 -0.7104891345080473 -1.165367420251167
Ni 3.7761901550287678 4.127846151914573 4.048468029552093 -2.1625898359605595 -2.506458942942948 0.2834330131835183
Ni 1.3085875242228355 2.947217076134586 8.406593441397389 0.766763383619744 0.11586856373556173 -2.5187614144593846
Ni 4.892343025950699 5.479492828654597 5.504287473925928 3.213806189387904 -0.37886439211065076 -0.8657035470310833
Ni 8.588885001214441 2.9571004269083483 3.023243861147405 0.4512610007055067 0.8131666534746318 0.8626637317634949
Ni 9.13431656142074 8.24213317174294 12.827206197854897 0.0013179474804751496 -0.8421509565221238 1.1720360905205944
Ni 6.41192227290639 4.610001762385247 0.9370569903683497 -1.0106060361051499 -0.42414614676658563 2.0767748970772684
Ni 8.95536602426089 7.396984779675381 7.103853410099142 -1.064258017102651 1.2335474196615142 -3.585420327694045
P 1.8854132574752036 8.782529286630918 12.141354165317393 -0.21018228411848316 -0.5929688941016755 1.8884914699144058
P 8.572934735876519 9.01249066649406 1.1553421383685971 0.22486379739005788 -1.4062913564278812 -0.5435674608504122
P 6.902854748959836 8.216008868843792 11.080420531621773 0.742329933167728 -0.25639400678785523 -0.27937195574026724
P 4.66464150143526 6.003873039252645 9.088740623943705 -0.21720190996942593 0.03845881819683054 1.0336688314618843
P 6.977908202084309 9.23420029239049 4.371767999170482 0.29282859546580536 -1.2520747890417403 -0.08945202141524594
P 4.5712747807005805 4.909999904040828 12.78020120662272 1.277854983329638 -2.0127875955920302 -0.7763494846462824
P 1.8381719660157965 8.094239235875976 8.642649866804119 -0.38733283459297807 -2.0651594243255276 0.6696361050474274
P 6.934202037040184 6.479849211241432 6.522758331868317 -0.2966114595470053 -0.08864752323607959 -0.2133568251917229
Ni 3.0150783755176205 4.712023447791827 6.296886258715269 -1.69570809799866 -0.8424941987941555 0.9939637995627785
Ni 1.6837610199137605 2.523245708122352 10.584689848176549 0.855801714536339 -0.9725603941863378 0.6567535926578044
Ni 3.9467389063316056 7.482371679244528 11.615375177388295 0.8957011218344381 0.7793946992305093 0.517526042481328
Ni 6.507895797735097 6.745283756168275 4.265310058307481 1.2575401830316857 0.5942824707067765 1.698512914437307
Ni -0.022827352109722265 6.669948993249483 8.935318012919046 1.4050379436367544 0.37094925102863213 3.63505804532583
Ni 6.612739958078017 1.829085659659273 10.98937461669023 -0.28452007560011 -0.4892323377429575 -1.581997975366998
Ni 7.487210207706825 1.1185627581599364 2.0872005237379203 -1.1345275520521751 0.33170418948508035 0.11304215003036017
Ni 2.6117926543810226 0.9598477722048102 1.3624442843453255 0.5207453207495741 1.9948821760665192 0.674352022465858
Ni 4.597052134853401 7.08412140342625 7.237554329143369 -0.36820305574206263 0.4577584355043922 -0.19031742687375608
Ni 4.5791139469689535 1.558137442763765 9.133165066662658 -1.0254148189832082 -2.8677904683761577 -0.7839229261181659
Ni 2.6722555061734514 8.735606812938407 3.101129166201362 0.23014227218017785 0.17096164805496364 0.9382927312527196
Ni 2.6425304379070123 0.543062931738128 7.727493781622867 1.2185743432914498 0.353393758643372 -0.42403533222033424
Ni 5.204184309947135 9.427066287376016 1.7256921201557276 -1.6860708320192124 1.352559414122064 1.0308149069528572
Ni 7.349424670449078 9.0786265991386 6.64773114569412 -0.2515477344391474 0.0011587961947915526 -0.03386734217140619
Ni 4.779781600250279 0.22086475881415837 6.822796794594417 1.3098510766202602 0.13224134866663034 -0.32735671114966197
Ni 3.1297402476822955 1.702205565427983 5.572194720575368 -1.3064299667538533 0.6358050154305954 -0.024927873589931263
Ni 3.7409326608073763 4.566801954970899 1.1095683463362238 -0.09450912422317918 -1.2790366623425649 -0.8049008139214138
Ni 4.724682388536209 3.64614063711481 9.353218715569863 -0.11838644506140901 2.0448729061623494 1.1698208280368303
Ni 6.73553168329853 3.919489364255179 4.511864027538907 -0.529868623207081 0.5240972679409425 -1.026772104342051
Ni 5.97667038214194 6.0736003602713335 11.210841378464231 -1.2983731578876476 0.7975155772009362 -0.25848431365798064
Ni 0.37844700399749087 5.366115604550649 6.193186091535916 0.3762446950996165 -1.9629256777645805 0.30767003135401205
Ni 4.035370245528572 0.5116575063002864 12.727253077135881 0.5017291846583875 0.09465104911768216 1.117644146033275
Ni 8.178650928158147 4.944019635167213 8.050327714681998 -2.019515401234167 -1.378931990578322 -1.509643018643355
Ni 9.03321382134227 5.517263357038577 4.022981362186736 0.6878819386314927 -1.121000721210334 0.11135216392244694
P 3.1999457953513266 8.919133322752524 5.524613044264835 -1.0787734371100066 -0.11638586969161246 0.03521897110329419
P 6.135479138028505 0.26764563991019574 8.603274934893204 2.892737625239799 0.22775294601239485 -1.399566636109538
P 8.186424455474512 2.794831560551651 12.210002194425206 0.7245034465092685 -0.4595602645998214 -1.0548935451686154
P 0.7599021473955727 0.7724335610331972 8.391963456694139 -3.4907736494517363 0.635054510417816 1.7193725314951358
P 0.2984978227525422 6.191469164091251 12.694727101017333 -0.3532250942759917 -1.1237353465326776 -0.2557383754817273
P 5.898925731985142 2.4929017583084097 2.726170403653434 0.28264419873363583 1.0136941881121702 0.8866570093542987
P 3.951221109054432 1.9467106616574477 11.101240269499366 -0.09959322361430589 1.007979140005264 0.32195508051811644
P 1.2897491449965655 6.899957258078343 3.8089805623539763 -0.6660926106705432 2.0550045952797125 1.772696696839573
