# total energy = -381172.09389294765 ev
CRYSTAL
PRIMVEC
9.15890607035118 0.00000000000000 0.00000000000000
0.00000000000000 9.15890607035118 0.00000000000000
0.00000000000000 0.00000000000000 13.40498483036954
PRIMCOORD
 96 1
Ni 3.8556063355330683 8.671936114571917 0.30273023547872535 0.7146471225404789 -1.1185761709292414 0.2610975829111116
Ni 8.777629889661831 1.1775697016538598 12.456568255830568 -0.08885526837151149 -1.1760971479638456 1.788868935724061
Ni 4.209359920374741 1.7459805661127208 6.933111401706835 -1.120895048870405 -0.1582172039051017 0.0191374921603993
Ni 1.78535470295081 0.580767144525915 0.049135698839027686 -0.5642126479045896 0.552030761126417 1.079863327740076
Ni 3.7204117242590433 5.316836514510133 7.040271517645269 -0.1850240396853007 -0.1506915849520179 -0.04602223236638526
Ni 3.5489570041825083 4.078488312726577 2.756480831876618 0.7248117217783066 -0.3260379923382385 -0.22116603682349653
Ni 7.897312481815876 4.151264979699235 2.060251939025658 -1.3181770799874524 -0.7428652368459077 -1.69522395927339
Ni 7.3687428584004415 5.574531493360208 13.235089918974673 -1.1569223748076074 -0.9924496769110973 1.0696313655994223
Ni 1.4253272675080462 9.203235091971475 11.341421077931068 0.6718071445568172 -4.484624577585735 -1.356494230400096
Ni 6.075770941310451 3.4252568199221614 7.163288447518985 0.013032150593609813 -0.11088756558120258 0.33910228172136436
Ni 7.37691260254084 0.5768755253720411 11.003561858539225 -1.0363265807997055 -2.2269779724286423 -0.7451907996552909
Ni 5.01592065830743 6.271460126628574 12.765861763339572 -0.730215152182065 1.695373854587693 -0.2363260323933865
Ni 3.364661497912206 6.983665815083247 8.954918832852083 -0.01762465506029868 -0.08259154684998679 -0.5267940980468153
Ni 1.22666143774415 4.209863660204025 6.9247740495868735 1.8893833856010558 -0.16760841531201456 0.9313823772861315
Ni 0.4010932222166506 5.318082125724364 3.0198213603770765 0.575158348282816 -0.586075766526268 0.07232564614760446
Ni 4.557352553350594 8.775917174242265 2.789295360246822 -0.9017383291674533 0.8595951201405002 -0.9291707143467934
Ni 7.978121509339128 0.32801980669001435 4.455522004805992 -0.13239098687061715 -2.4194350713532202 1.0348903625738113
Ni 7.751337838195159 5.672101318839659 10.681038311332006 0.7464624672788628 1.3511692186427569 0.8585728495235729
Ni 1.5024727326365002 1.5455562263993219 7.455369623006631 1.0082336792182314 0.11724487525779809 -0.6040855728401274
Ni 6.913499436316884 7.4297411722738245 12.158012649700714 0.17633911031679309 1.080137664447385 -1.7768909374265787
Ni 1.4803722924898826 6.5507243290780215 10.431557955261667 -0.8213224498125468 0.6328387337134198 0.19918619011829566
Ni 5.672330291489334 4.768501971974763 11.258082360574209 0.432196527874888 -3.029200725297261 0.28533460108160535
Ni 1.2832909534617365 2.144521201230796 11.272385824054098 -0.17000571189959754 2.8585082717432835 -0.8447130608223452
Ni 6.2569890551691225 0.6700307581657614 6.557477190462232 0.2535092290408924 1.2709461720249466 -0.8013845732380391
P 3.4963574070991994 7.448434499393279 11.191312104147821 -0.331625513728345 1.1941221237863564 0.20883759716513065
Ni 8.81932122971463 7.922627697963929 10.23950485562038 -1.3777017177156465 0.812375267921588 -1.458911039506126
P 8.104431981805767 2.0647379711780878 5.566326029486459 1.4202979551196184 0.8704832278079139 3.4342644015110984
Ni 2.338726643779026 3.0998225723922754 9.29450725369427 -0.0272601212675337 0.20157551628607864 -0.7455638667239934
P 5.564447537868527 0.1741144663751588 4.58230599271216 -0.05256826101501914 -0.21796115673295363 -0.31381522501980147
P 6.733874972099948 8.349020566188454 9.457886566362072 0.1488848707605823 -0.9351480149761509 -0.41613818886044457
P 2.3488014403647197 8.844215136187282 2.1095286850168855 -0.0756480256526181 -0.5103254109678308 -0.3397023771992085
Ni 2.4443379887150583 6.806138740337335 12.990542549668929 0.5460645162406531 -0.6742340088307549 -1.8583350009356834
Ni 0.4103656986378838 0.9539458530754041 2.1687117037236456 0.2585866435637998 -2.6634337898005165 -0.7313366673810179
Ni 7.865769209596667 6.601125788724451 2.554869497947305 -1.623194761320282 1.2792464643605257 -1.44731382158683
Ni 3.696919130402403 4.4809214828891255 13.019081700724403 -0.5702642534153083 -1.1078271599428535 -0.33805404296250813
Ni 4.825186441128272 0.2310627120210927 11.315643337030673 -0.2915229892805044 -1.4901594559974465 -1.1926457963511459
Ni 0.36146446779212316 8.507542911011354 5.991384445108679 1.1392187868802572 -1.1995054995854568 -0.6822373387512057
Ni 1.8681237363552785 4.506603055276658 4.584866822826124 1.9373383162137798 0.15316318642096202 0.08292630448158621
Ni 4.592751724990327 4.220616215832757 9.01806948963241 0.550749066200516 -0.001320775693952564 0.41437004121642834
Ni 0.8512543673680253 7.586944634634596 8.166906711324254 0.199818681495972 -0.2436588186093739 0.15346606237336152
Ni 8.08065546186353 2.7172459104095315 10.398366995855397 2.3024005123340157 -0.5633168755631976 -3.574826097117966
Ni 6.244010885385552 2.478180146337003 4.775405039417161 -0.7779250566635183 0.34917612101759865 -0.5638773760523579
Ni 4.6304131464088485 4.43224189756825 4.864106296229406 0.183405016024639 0.2727554788650141 0.3284957098501117
Ni 6.3470852133631865 0.11532802829763507 13.148480556289858 -0.4626687283218161 2.443143984934386 1.3227700986747735
Ni 3.8022282314408646 2.4173466927713863 11.07226281234767 -1.141205478292983 1.02634581543791 0.2660533842544902
Ni 8.506159916207316 0.5650587048676209 7.563748789331934 0.07810522894385905 0.12142368922583605 1.117740048181191
Ni 5.407839404396909 6.7256044799936925 10.395391267300223 -0.21914386418714518 2.594943715348918 -0.8716417668923893
Ni 6.1096222578383825 2.428300744331831 11.11796025787918 -2.4445938300070353 0.12594677390717018 0.9358306428654722
Ni 4.5076746472771365 1.6972735040738844 13.124981551199024 -0.5909670331802983 -0.15605079238140224 0.3470151088105378
Ni 0.5971670815862272 7.770763877793574 3.641142308832206 -1.162216019106379 0.2845838389585099 -0.11441254801532555
Ni 2.5336831166181892 8.887225358702207 4.223709178384564 0.7498660936437731 -0.2465713642704786 0.5148207277350231
Ni 6.774027615946932 0.25489968074284436 2.5774571918924303 0.7007965898106318 -0.10263303888189422 -1.7028076851579188
Ni 4.832696744037607 6.76492366339586 3.7529267564034723 0.28961420229356577 -1.6623922574553498 -0.6973101739239281
Ni 8.090785211885146 3.471564248592405 12.373564754432833 -1.305573532290829 1.5748572505571587 0.7823298705994334
Ni 2.7446951516525537 8.45120648028535 7.007348914184418 0.48955603963096334 0.36190616698975736 -0.698173807475804
Ni 8.865472956983096 4.516961777947948 5.221147928320409 -1.8258362569770297 -1.57099725338112 -1.026112102160549
P 0.14531795006144962 5.427357033055194 0.49079096800028055 -0.6129116557721896 -0.011518285052244679 -0.3160474567844299
Ni 3.966236760949974 1.7873055499260397 4.222851904784182 -0.27512526464877135 0.22060296523117492 -0.1640880608635819
P 2.4327061781115757 2.723254152737 13.04864023801623 0.14333077371157252 -0.6258594741821092 0.6395022617765245
Ni 0.03783544063227396 7.106294407343117 12.335361125779881 1.2132935545084846 -0.8180910873594427 0.6131538536899828
P 7.545262453487784 1.7790075811018227 0.7655883719998703 -1.5095196056916131 -0.323407753804243 1.1221949986287512
P 5.80148918371793 5.081965529379647 2.054997474660919 -0.10762560700047916 -0.13994617351005573 0.11627968313105136
P 0.5891640295347916 6.197437848441685 6.033838722030194 0.6031160098380065 2.1205731252091415 0.11352526031436577
Ni 7.083049103948124 7.850995894239645 7.057416073762322 1.1903117489013306 -1.1147768517878092 0.8987350235647553
Ni 2.3688136499463024 6.381889056113765 3.036684738080331 1.5755709887947318 0.3476308880176658 0.2155576894977836
Ni 4.850245207908689 8.670150127904453 8.29824817084955 1.6568258191111658 0.053571248358236775 -0.6245404982603696
Ni 7.507335423795641 7.090083143746136 4.814963270265589 0.5245731791360966 0.616161530168055 -0.18050455454839234
Ni 2.823141181431161 6.769054329995994 5.277917575299597 -0.9483336604284893 -0.6788123722300567 0.5692851773314904
Ni 4.9728005289206605 7.574259549842609 5.873112744426825 0.3543018722799382 0.3857642045542775 1.1738975692093654
Ni 1.287787976301351 2.9153255701902596 2.869765508248555 1.779017239740962 1.1070776833713387 0.14531258002829167
Ni 8.251386628367094 8.269310607383641 0.6698457482648241 -0.481957401348099 0.7853095220530475 0.8799333174772199
Ni 8.584285384276379 2.93991723276534 7.559298476912853 -1.3970695807192972 0.14566584960265236 0.22005043516181455
Ni 1.0746235983600427 7.257590375342277 1.2455269522961612 -0.704469924897161 0.3824037727224769 1.148139486408655
Ni 7.00730495143568 5.421660193531284 6.2805036304001325 -2.043214030402688 -0.23056496153989323 -0.9998606246631877
Ni 5.706612076598654 3.488480747950384 0.003947488480394596 2.394337504954644 1.3958706753151897 0.4742309792381188
Ni 5.61800882008047 2.3673207482704224 2.1535912658297165 0.42834424400833326 0.3267486452520179 0.31293642195927396
Ni 1.3696136423891592 1.5314973057092856 5.00028732167823 -0.5455119861712928 1.1177529036969975 0.21799920905974068
Ni 8.446846841035542 2.2748615923317135 3.5286480460469463 -1.3796832669220498 2.575534714694687 -0.6900290668814827
Ni 0.21983297739043883 2.8387662750449736 0.6373105665272238 1.6740439827616653 -0.15169740050871294 0.9412001347075015
Ni 2.972385554489235 0.3866597022717461 9.25032377532241 -0.7803269812367916 -0.031927444836215985 0.7682006302869028
Ni 1.8321933481682993 4.4701414505424335 1.0754900308664124 1.6934529834158962 0.33749791334872203 0.6435869733688593
Ni 6.710382378243308 1.3284626777895931 8.89290662808594 -1.5983666465330086 0.8245335005506768 -0.3262413665982962
Ni 1.2409310132718874 4.394589635055716 11.937822474976784 0.1812738286142491 1.15471996783965 1.4376081642632919
Ni 0.33115398431876386 4.425491783855835 9.836175944452304 0.5760389511155563 0.08409049999301646 -1.0777051437464922
Ni 8.427182669881464 5.6577401542520525 7.915830873830981 2.2145898831769344 0.42832958872031396 0.7687125369263148
Ni 3.3019687864312295 5.26830347168505 10.795584169058353 0.8898516050321964 -1.3280686280695517 0.0016519337811261873
Ni 3.9683249915150087 6.058112570567526 1.3693059031479962 -0.039539709965835126 0.05002543998850739 0.7590490456946217
Ni 5.900854154770832 7.452610960523349 1.179909802133537 0.6824731089110956 -0.3768458190187252 0.6711304302047667
P 4.418631763271576 1.995066173335021 9.075469269343502 1.0565477929425868 0.049288561822482854 -0.1651406704978124
Ni 6.129478766018186 6.112140956984806 8.266264355252368 -1.8903650327880348 0.2309136031285636 0.21259834975914352
P 2.006817049716335 5.253301183678352 8.663587771764771 0.743579489304113 0.08505774900229222 0.4259880850713309
Ni 3.2858949064240544 1.5961225463535182 1.7150335386732654 -0.5515371093194501 1.1913111367001226 0.6543997477136472
P 3.085781969514213 3.1899187305863395 5.716234423228591 -0.3586874029421435 -0.6109380769855866 0.7769997166357715
P 0.8274906698941695 0.9433123632245036 9.401438396983028 -0.7661638023625321 -0.04608213907004322 -0.1377897892886853
P 7.118026965912456 4.4189614838871085 9.157991012286322 -0.6083865142083265 -2.1650015307258457 -0.78576229331975
Ni 6.845274745619761 4.920970279940259 4.037460993357835 -0.6527357297476629 -0.32891788498919483 -0.7457857529268124
