# total energy = -340864.9172969917 ev
CRYSTAL
PRIMVEC
9.36305559603413 0.00000000000000 0.00000000000000
0.00000000000000 9.36305559603413 0.00000000000000
0.00000000000000 0.00000000000000 13.70377829696161
PRIMCOORD
 96 1
Ni 4.033604384649348 0.5273619389036084 5.953071995402388 -2.058508751778229 -1.057573920214256 1.205268627321479
Ni 1.197197750786454 8.691012990568145 7.632730215298984 -1.0426733489533397 1.1629282146820552 -0.893443436148513
Ni 2.157219938277753 7.084443719573616 8.878417358813438 -0.1063310565587717 -0.39131855871360344 0.9127349373882733
Ni 2.5755893549891895 7.868702625939944 0.15304757175264574 -0.38583490989121294 0.31312436960036394 0.37763051970354966
Ni 4.828275008925914 2.767026391313564 0.7306114062671512 0.48848414672302326 -1.4103691260416806 0.5145453625864493
Ni 6.084928163246544 2.1412933805751333 12.180945929634172 0.22118891964163198 -0.32073612050935085 0.30342848246883874
Ni 4.009915853792425 7.511015173056067 7.133405946613187 -2.0573700101880954 -1.2292007126570443 -1.3096081073715187
Ni 8.665994905805418 7.924806055542588 0.34680290066206954 0.6416802432644497 -0.7591850570518538 1.3666318330547302
Ni 3.249720000510008 9.152424374216055 8.886311351052754 -2.9004334512221597 -0.11113696258784729 1.5047332400465634
Ni 6.475994909610632 5.8231745788053715 7.520524292399266 -1.4214145852225648 -0.1815363382470164 -0.8329561773967333
Ni 7.669831323409879 2.5287740766158215 9.902555878953766 0.6489839760147146 0.6275543453860289 1.4333429612290347
Ni 5.361716379879088 1.1675543165204374 10.029973958408128 -0.0838444454204814 0.5072156616942556 -0.24546913234523532
Ni 4.2168581103140585 5.206373923180579 6.148460241221474 -1.006747581591008 -0.6822010861966316 0.18813661717235342
Ni 0.42088058824338387 5.322260463266014 4.533469837953143 -0.012887654595945545 -0.37912690174341807 0.29858683810582126
Ni 1.2964086887152944 0.26304943134654746 13.026688277393811 -0.47899163385155574 -0.6587569962410783 0.6800994664725963
Ni 4.8396511215706415 8.28350471843933 13.565877628225667 -0.07262286567304913 0.10496168701507085 0.08003021388071378
Ni 1.7978096831497354 7.2575291667756305 4.4362831926611666 0.31443460377135524 0.6614399423898801 -1.3587148922004988
Ni 5.73373867100089 6.991056602274423 5.417049229999705 1.368692829348817 -0.41566433454781965 0.16643162139509401
Ni 7.834368300780916 3.2634743292961033 6.313632033767254 -0.009901832494744238 -0.4347915422955738 -1.3504128000927065
Ni 5.268020281742629 8.849323535915525 8.276013337594023 3.5579714874544726 0.7696476471460746 -0.4943382915109551
Ni 1.371977911065584 4.843040547724874 11.81293102634113 -0.8568432684269759 -0.9522458509987021 -0.1230933636187751
Ni 6.76113740712714 0.3240956180398513 13.816423635024254 0.6249418474638463 -0.05817043769314498 0.18567658566763506
Ni 6.538287319014236 6.607377306837652 -0.12023755205745482 0.7252251551666413 -0.5601253652090935 -0.3405721813986715
Ni 7.114967281073051 7.280028589561871 2.1635662174140466 -0.5408947991142556 0.3057949258184862 0.7593475507716471
P 3.6313581498097 2.8822668805574456 12.73864885045156 -1.234582802904564 -0.02451469731191262 -1.5492369788858933
P 5.7319784165340515 5.716988164398899 10.986511216577314 -1.3474519176921698 -1.5760101332146792 0.6504916709084926
P 7.3008332992709954 1.9936754448082308 4.356033378779108 -0.1980317647988783 -1.1222335651761706 0.5022696305428898
P 5.788990062537139 3.832336139866567 6.731255214941418 -0.3505197795296867 0.6712584711421988 0.11664272289742493
P 4.4597451375707635 6.1887831767900225 0.7759791562332141 0.2765519697929689 0.6037595569592764 0.13744706123728587
P 5.981325952206282 9.301858742783844 11.689446366575698 0.20172129783532358 -0.778046669843047 0.4480982867068089
P 8.811955580717903 4.478546153365508 10.172684716695933 0.007581669001999846 0.6237845939309514 -0.19046912196027196
P 4.161690986278882 1.4099076496036866 8.090313045481523 0.9286919749381619 2.0898214458485813 -0.7448398440737752
Ni 0.7087159005719271 2.9454768694171665 5.203201719918 0.556679315642022 3.1781527018503524 0.17483630051902146
Ni 8.412733612861174 1.1443807537256205 7.484016802018146 1.2699056465755743 -1.0763041496339076 0.23506773450625323
Ni 8.664787071623385 9.073774706548798 12.127487563259622 -0.8295029287408101 0.44494174335569825 0.13097970834538733
Ni 4.195426075874731 6.0416521199182025 3.7685390874160443 0.20921194978541388 -1.193829789356918 -0.3791675251733663
Ni 2.9412822204749127 4.236342629173054 0.6468448286736845 -0.2922675807560128 0.854533903567509 -0.18304583291300733
Ni 1.720676830501775 2.0469699577084723 7.286449773143563 0.3475182736992015 -0.5974369571753582 0.3917397054114221
Ni 8.236792433678383 8.204321356598616 4.3390132161736865 0.3839022116448743 -0.6043154294627463 0.435825639987043
Ni 3.9529697491790605 0.8018268077287178 12.277817976255477 -0.5504443904759037 -0.005819949115886751 -0.14377634588942334
Ni 2.41096811011708 2.81373867607451 2.558234931296182 1.6119017049049658 -0.833539560704029 1.6325882867200399
Ni 5.04618140364259 4.570772251761043 12.98929036041803 1.5197901343796858 0.7485676865473236 -0.25572449152465637
Ni 5.937900099987146 4.136813347351275 4.0456705544973 0.4349316674178639 1.096333557480957 1.8925669255353603
Ni 4.002537765920781 0.8223759060179238 3.552896679561503 -0.3961656023932596 0.6024418665891172 -0.22433440724914913
Ni 1.256699969599004 5.957628058293683 0.25681831779505226 -0.4528221745450395 -0.4061707932350876 -0.3449949930567155
Ni 1.0963108258918468 2.4741031945314034 13.418740017214875 0.9189526361632109 0.5346189934078728 -0.49415600029682
Ni 6.389405370731252 4.890492513884118 1.6586372236013884 -0.15869234376930735 -0.06288815488378847 0.17984095282246448
Ni 7.832870211872968 0.7532447207495394 2.4702296983987906 0.8572870408326139 -0.15395277220179293 0.14096407325160884
Ni 3.0915218118307237 2.387991171491431 9.876710100069397 -0.9669625883835863 -0.5719128447623247 -1.31619681633263
Ni 5.972721304041257 8.730787251074158 3.9124286544132914 -0.754934766415932 0.9785896310995533 -1.1935549384289768
Ni 4.353128022603257 2.7787957522966287 5.3457888858709 -0.5987456486844527 0.45198116670098293 -0.25590549718721084
Ni 6.378544226148631 4.289328161236032 9.294820533833192 -0.09542932204460339 0.9952856036979956 0.31835476476136787
Ni 8.192252377833961 0.402453158370059 10.085912598230896 -0.9192426565998041 -1.0307521720357216 -1.844885303188681
Ni 7.095145692209768 7.288577059392848 11.211883711888975 -5.922510420990445 5.310718994865628 -3.161201418707994
Ni 8.560903968912882 6.197434640233421 8.516157925843618 1.0779964497346661 -0.6297626658912574 1.0368839959650724
Ni 7.330102211310025 4.111888893145294 11.911789913376602 0.6166384698044735 0.8975137495631446 0.027644758300462067
P 4.337678980740046 4.059643042480616 2.6021148917155394 -0.3177238160455883 -0.5266100070604672 -0.7496516636401218
P 2.273022210862115 1.4691945181357193 5.022215726337696 0.33717369724008384 -0.3066403045379171 -0.4954325530163983
P 7.537999499510476 5.588527040542378 3.908577629614298 0.34759694945593683 2.174372173307468 -0.5794379494947762
P 3.145059764178507 5.408718919365948 8.141263985546393 0.5515797896319276 -0.5073892111576424 -1.9765751502272153
P 8.608908355356933 8.225406957977981 6.555626761818163 1.2728708998514853 1.3730444214492934 -0.6508685946319371
P 2.479271601263823 4.253898358563067 4.730982561104813 0.5070904489703009 0.76289644446517 -0.15036556907116683
P 0.7093984673306108 1.0260317299977473 9.01551028369644 0.29238945104585773 0.00429811315472163 0.7017918638443655
P 7.2132512764901 7.992435406680754 8.295226327838455 0.3505238932947447 -0.3403999174868654 0.788455523881197
Ni 8.174902635668792 6.169148849040232 6.136963345158542 0.3567917285813275 -0.4526910482838139 -1.7983095123116706
Ni 7.424126016395096 2.7766328864357788 0.5135851387838938 0.8645041274063433 0.44877268706601425 -0.4160453720363222
Ni 3.1338334604245737 5.293731232625284 10.213521684021023 0.2723057929221052 -0.4974907210970077 0.19946978279698552
Ni 4.645405168543865 3.609579682310409 10.829945008502126 1.0245961797366547 0.18741233741181917 0.7128254959507078
Ni 0.23014203587233995 7.850042055980319 10.11289505207417 0.11535614287551746 0.22408938111787857 0.35199353586173576
Ni 6.18282827338093 0.7046457802701465 6.0459151191668825 2.7539949851195407 0.6686128059892357 -0.4609453178728061
Ni 5.032464527079193 6.5381281470677655 9.094814428955358 -0.737811219361768 0.0577433774580554 0.7048723025419023
Ni 8.573806259632581 6.386240657913213 11.90893979922923 6.804338127276901 -4.067832814301691 2.8909867039869632
Ni 3.430782771146844 7.940039747125282 2.5831209969738964 0.20367122247284275 0.33313166596022625 -0.8764612997682195
Ni 1.2605200963142706 6.536826682328986 6.476282355419845 -0.05725563918835946 -0.542129442852305 1.9725778561423641
Ni 9.062295600291648 5.890354503271154 2.0978150952442194 -1.5820308854874625 -0.2361923350289997 0.3061469098412663
Ni 1.9933945531379906 0.5576186533163159 10.921815310782023 -0.4512861975164873 -1.1195776156105623 -1.121640925897494
Ni 3.9066694388677994 7.825117601774339 10.97513697654372 0.4367260403141253 1.5962724830081414 -0.7164695204611984
Ni 1.969406404499477 5.4175763700341895 2.741715242908219 1.1368718839146357 -0.621346416803104 -0.05796706343308727
Ni 6.537238656778672 2.2742955864338708 7.9777232372991405 -2.6552509968794076 -0.8431865968754899 -0.07513457635130931
Ni 0.6625747622071361 2.6110191576621538 10.82207910542983 0.04392729751056951 -0.20939861187492323 -0.4221417147420472
Ni 0.1511880688956556 0.9177601630925253 5.255275290358265 -1.7249533680170228 -3.2224348115971795 0.2137134372001932
Ni 8.418426350711375 3.647677955850656 3.4634383004234026 -0.6392932310895119 -0.6837131519657839 -0.6557480342114255
Ni 3.415464812063078 6.135123504718469 12.404057247000399 0.27933493185474473 -0.5764367007746073 2.0496564435939213
Ni 1.5138750198152613 0.08310273694613222 3.273037754362214 -0.3747043471956902 -0.17530989772133035 -0.22017204834134338
Ni 2.8916767515104924 0.8008970563002228 0.9295313966867248 0.7911901492035406 0.21773078588970243 0.7881246229043395
Ni 0.6032607408136468 3.6275848383728064 1.6226372108378362 -1.9824696613347792 0.7602944880659487 -0.6820406493593674
Ni 5.946954174824556 2.3930940368341282 2.5929053901539305 0.6851357433449233 -1.8634602379773908 0.7827975542644713
Ni 1.3491039660523567 3.994953690824296 8.951266613490235 -0.12070815121605018 0.9831001173753973 -0.9074245809189533
P 8.626361091134525 1.9600339857691287 12.35451825573127 -1.2912566014475244 -0.6878652264609444 0.5404124601611984
P 0.1270641559498593 4.4463185157332825 6.905457674685422 1.3797426594050755 0.6372921414990831 0.45689248795967125
P 3.8205480527721525 7.894984723218752 4.892577666382868 0.3087879470085392 0.8179707597314946 -0.0343180565555796
P 1.213339658769591 7.443282828305478 2.0071104933958197 0.6767079242925442 0.6221563142989092 0.0548431730921249
P 8.703091332388473 4.927233144351538 -0.09425788147693823 -0.5809618423384705 -0.19928697736221807 1.0572365914794952
P 1.8454208212554502 6.907725406769828 11.229328020916459 -0.8398958419393601 0.4947797499237479 -0.7892075715558731
P 0.6766165368024439 1.3442913554355747 1.702571489743659 -0.18348574866390335 0.6775738718372654 -0.6060912904162464
P 5.144989730177419 0.28663871381331996 1.6608019620733732 0.03862156902693994 0.3725070824340552 0.6708830900806511
