# total energy = -340855.1815204517 ev
CRYSTAL
PRIMVEC
9.40556293200941 0.00000000000000 0.00000000000000
0.00000000000000 9.40556293200941 0.00000000000000
0.00000000000000 0.00000000000000 13.76599207986305
PRIMCOORD
 96 1
Ni 1.9040245296634009 1.6497075146188005 11.126610660889448 1.4045293794314522 -1.2211701290430839 -0.6125095352377644
Ni 7.99589474824423 6.412581102082097 2.9346757652812396 0.5949280747105754 -1.0703792995090404 0.21763179841799293
Ni 3.6254494613359047 8.225653838577063 8.779537091184778 -0.8520142224694488 -0.5578684508541166 -0.5599754698947904
Ni 0.21869156447747748 3.725148427994167 7.603094927955014 -0.569002098873433 1.5385987824457568 -0.6851329151314458
Ni 8.398339973279489 7.377206226752357 11.827960912416493 -0.47091554171164063 -0.8746103626024099 0.3432330160602863
Ni 4.087704660803229 1.3094988992418177 13.097405281525207 1.5930143810821595 -1.0635190820540974 -1.4778484998405774
Ni 1.5997921923494232 7.36094400851159 11.27144316164265 -0.917393004985575 -0.37354349411836957 0.21477401725422368
Ni 5.286387218048098 8.630168287448626 4.716380008974134 0.18931006865516428 -1.0601095421519162 -3.4022575095871983
Ni 7.2956788076019965 2.9754216042869244 10.649935792951956 -0.7139668086440027 -1.82019782774433 -0.4303977841032523
Ni 4.835531560806228 5.922353758573107 7.60688066701916 -0.6437744067893171 -0.4537634554123862 0.05586184416462638
Ni 0.46544368528780977 9.311620130120744 2.602832457540659 0.026493161194522115 -1.673359040879499 -1.1718028914638658
Ni 6.046629461068919 4.885644399896344 9.772987444451035 0.11579323041293606 0.6532419799601201 -0.7344705850243092
Ni 8.117508676441526 7.742057416907136 1.013960123709183 -0.019280445496166795 -0.5212361443430636 -1.122272388833906
Ni 4.700401838732714 1.0027458710727069 5.960151894168347 -2.3633981350633104 2.0087836166389597 -0.5284498884826835
Ni 6.917434095888597 0.2361605164373257 10.806344660512986 0.38188826653863905 0.11909812641645294 -1.3161412805043462
Ni 7.867170214500364 4.396846701946981 5.698762836385035 -1.9073692806555154 -0.16349285048174425 1.271214852305301
Ni 2.9669283809951876 9.166482889129833 1.4583692081446777 0.32576031319681964 -0.7173791767596613 0.3250195783760531
Ni 2.861078176205368 2.544232979052831 5.231545261935739 0.1888423849901264 0.4562178304901498 0.7119857736582319
Ni 0.03365498514118823 0.05718111960367052 0.09377346203612058 -0.25266487876272614 0.6721164482671199 0.33914444781320946
Ni 6.1066087356330465 7.603786236827597 8.821165171989758 2.5907618160570864 1.0632894825417947 -1.515340069028132
Ni 1.2883740049857368 1.9904052192661823 2.626840156823226 0.33225003468622133 0.789413516919092 0.48038774286813396
Ni 1.4439702319128727 4.209083449928217 10.190949967145992 0.707629296461749 1.0576682797002752 1.4417998337471363
Ni 5.298219416166598 7.241436926402166 1.3243559263864775 1.121992395699642 -2.9765170217503 3.8839865969745757
Ni 3.5865762699020745 5.40794471286804 9.851770320349425 -0.06688776296148481 1.3437127623647118 -0.03273734233202104
P 0.26971109983040953 4.767482313280518 12.05234660466896 0.262923837486573 -0.3642942076059597 -3.8418436450579385
P 3.353647504874539 8.075334132432504 3.7515902869532587 0.01781928756960802 -2.1620874424028442 -1.9503882074192025
P 4.782230235895627 8.522926059350748 13.800131566903394 -2.0012975926745598 3.44625576954502 -3.53133820113766
P 6.158555659487158 1.761379762838947 12.200881134976568 -0.21325346684463917 0.7970368377923047 -0.22596371532245602
P 3.067793637452094 4.272966033092644 6.84190460419465 1.1389773602934126 -2.5729055046019558 -0.7561791803459944
P 6.580009527127732 0.36409498289823966 6.528907222821348 2.108359613862085 -0.16379341244129855 1.7782135128927439
P 7.109994184982429 5.588719631657833 0.9739272263707336 -0.5584680321113284 -0.05138503934019537 -0.14454510573464785
P 2.425704075484206 0.20694589753758708 6.966362774610574 0.8618803166302511 -0.28165535245780526 -0.7628699621026088
Ni 6.852338195111066 8.386808753173542 2.959040875953714 -0.3714943248988247 1.2884170751162005 -0.14018322922152632
Ni 5.977752524008688 1.5661202771950289 8.694531494876848 1.3966618037579173 -1.6887260102538721 1.1537051534218905
Ni 5.4265959440834495 2.934798978155129 7.154516357489368 -1.3632066094232653 2.5576231245215886 -2.369953933903957
Ni 8.045424442435024 1.9978450195139827 2.945261726316511 1.8092403002915614 2.712265980811871 -2.5461693741586924
Ni 8.705045973634139 8.545424165789102 4.404773710352602 -0.3126500010671067 0.3762830045367197 0.7105410707919054
Ni 5.379398829489943 2.213787337958044 0.8304030394158508 1.9720703203783263 1.40912394078067 -0.3067017539034718
Ni 2.192286221186272 0.2543123122631541 13.063884795933381 -1.4085333583845225 -1.5718338903498026 -0.7951128812967144
Ni 5.1419365831483255 8.319700061937061 6.836247158114937 -0.8285781029336956 -1.8432871054636255 2.262067102822291
Ni 7.699770006143406 3.416965754265428 0.5484835189512502 0.5612209122661174 0.29566349381143914 0.222820541707784
Ni 1.1762785064354375 5.45943076414043 6.144409692897155 -0.6574704162191709 0.45388455437128283 0.44923625696599406
Ni 8.27831558521099 9.064131553735944 8.314411313922726 -0.2185152294642108 0.4444357502535572 0.48750892729394757
Ni 7.627977344586565 5.056985539105171 11.832531075425855 -0.8678866707253312 0.01974658649930793 0.4062440696751842
Ni 9.409701339961533 4.2813369840667805 2.6576621864212573 -0.5226890747395062 -0.47182545512041973 -0.253952230115582
Ni 4.329418221572161 4.814162121914948 0.7052450951207405 0.2683642917758539 0.3149904762748253 -0.40566120058852073
Ni 2.2353354825442784 3.7542304284571246 1.6523871594868138 1.3369605312425425 1.132360112087211 -0.5381879417060538
Ni 1.0537992664520512 7.22825973279007 8.819912351012505 1.5539428690019947 0.7642413885288386 0.5797680791406854
Ni 0.9179631866053253 6.5230870605036 2.125689192571131 -0.6126889982384223 -0.2726554629520401 -3.157034688924815
Ni 3.195003875570302 7.381184779855795 5.708674418560929 0.17233847379783224 -0.6538392472244868 1.0889508918636408
Ni 1.0415438180033987 8.246788138396036 6.249182020179519 -1.4431941429915016 -0.3359747918359762 0.7952416935650949
Ni 1.4267204295684146 2.289671419373031 9.02347036479629 1.633126418611697 -0.0589314842288856 -0.4624576407522745
Ni 5.817312432192023 6.830931133968217 12.86712794467701 1.31950814009405 -0.7437129295581837 -1.3876624284727845
Ni 4.677414643023959 4.871056371850404 5.363092405103582 0.5419240117097184 -0.028213743430054637 1.3274621048338042
Ni 2.260006274010752 4.6313932237919895 4.227866359024118 -0.41138961843186567 1.7979714122459616 -0.5703136185960048
Ni 9.34193425932259 2.4588492791166323 11.714143255300613 -1.0140919377712214 0.9244033748651369 0.8637726485569576
P 0.8215251286018193 7.218374486190274 13.465576635380966 -3.0435688210934746 3.3768488397061063 -1.064804119414108
P 6.2546617011205665 6.48138279463919 5.991538257539916 -1.2069442152516892 -0.9449819703474371 -0.9015424111065635
P 3.6026221601963195 1.8180953070794492 1.9769063554031694 -0.7679684596714387 1.4194718596738973 -0.9927201569636646
P 0.6349817780901853 2.326832798360465 0.48214420275935793 -1.580722193978368 -0.07150597845978654 0.30274174081445926
P 7.199553954842805 0.670734203756354 1.612245157618814 -0.22191628472595976 -1.0655204287548423 -1.671002110611548
P 0.26296637068034917 1.238797282980482 4.36571899155495 -0.39703952035778073 -0.531811862976381 1.3917257999088806
P 7.183160058721544 3.7654888872391945 8.106641489075775 -0.1132105572874244 1.0132303611018745 0.9729200915186018
P 2.5277826495542177 6.1246486052604565 7.6596317665005635 0.6613106159008675 2.8680478358026025 1.8672423307276422
Ni 0.429382757158774 4.753721974769099 0.24143797777618903 0.2230203164234159 -0.48605496845624035 2.2927275080206253
Ni 5.274235230791261 3.949471102975258 11.833342775503459 0.615347776017508 -0.10739317927469891 1.0696575908516675
Ni 4.141071824654076 4.116137677426618 3.3665143149111905 2.0027314969076087 -2.3654825283961647 -2.369687310506132
Ni 3.61495285314811 1.328968414428856 8.223610950316859 0.26830438507219595 -1.9706240748501032 -0.289972614074249
Ni 7.776171393517469 7.8364892683457175 6.388810422984415 -0.1163619584322125 0.6041745330095079 -0.175177228798208
Ni 7.370406004781232 1.0409230508525076 4.669053097612715 -1.3833784563854499 -0.9765864846265954 1.9413458947112763
Ni 3.1956716705356545 0.7083715042261373 3.7045107418959065 -0.08750466788088801 0.7903866794656388 1.3558352566598584
Ni 6.881081595309901 9.239996768695963 13.084134972840477 -0.12748275093572237 0.19570465932759845 1.4810256120169782
Ni 4.455584442209325 8.876057918141735 10.952498642852554 0.06003654436760628 -0.5337453325536679 1.3220123945731426
Ni 3.19721418284999 6.1043325894131115 2.5342640229432942 0.5955155717829292 1.3051071341773717 -0.1143996924995191
Ni 2.3451548348746436 2.856262528004516 13.006370719403323 -1.0023772204374544 0.8647368122424398 2.7703921955306416
Ni 3.614040513547558 6.457295148072039 11.982855484351862 0.5130813764464132 -0.061862284722435386 0.8475510444917725
Ni 8.639150600010762 4.516560706440034 9.494666492349024 -0.5902388967650223 1.238327614658977 1.3686326655348429
Ni 0.5791484756489798 3.4065067683292027 4.862616760267153 -1.4314305746976703 -2.290235080616075 0.9143387915402834
Ni 6.69152188077871 4.183462696609622 3.0486711875357817 0.3133313434048475 -0.2904834922723965 -0.5650639401612914
Ni 8.766718249518876 6.19686451714745 7.723836960472195 -0.8678301064557828 -1.088477294661332 -1.0508633409633
Ni -0.010575614916089668 9.335369176423773 11.480754558247646 0.9171608343701109 1.3711096663204259 -0.9848582377170845
Ni 5.56499880204348 1.54413947671575 2.9894086168640475 -0.06868933494659783 -0.9822768501431535 0.7799803965306503
Ni 5.6780724791345785 6.312882135423834 3.567635347349583 -0.9908458227590872 0.20826269849826715 0.9089998958258731
Ni 4.392313220632897 1.8226664106451018 10.490415565186158 1.397480957225103 -1.2252962353963157 0.9973226887326824
Ni 0.8862448068636594 1.7558304807324967 6.9093443712449405 -0.13050662536371074 -2.0571517235297025 -2.433670498226312
Ni 1.0465475774620965 7.2156092506999405 4.083186228389773 1.5167369493756588 -0.21069290520631453 2.270604193759025
Ni 3.689661239201561 3.3438845305923435 8.893160993705074 -0.35052852128043505 2.3288774755786212 -0.46231057365144895
Ni 7.733931010568199 2.1766071478448263 6.880394048662475 1.445088788911053 -0.9424792585302413 0.027042091719456655
P 9.00921247200787 1.479241092758956 9.18052633508431 -2.0307912312583025 -0.40306207240277675 0.8412163605229964
P 2.342408410510095 9.124656350947825 10.318959678110046 -0.05722915682579822 -0.021480281360963003 0.041323798449451415
P 5.425382626470344 6.929435594139158 10.501028802353817 -1.7302464980951622 -1.8684756889141112 3.3384429862343987
P 8.429858014531549 7.1817774409763775 9.57810230021023 -0.8438944215757918 0.5320540608941741 1.1305598256536786
P 2.280961868134772 6.002319854283347 0.3613532613151374 3.497617411846447 -2.5575192519538725 1.4005652525773813
P 5.847466666824702 2.8447501190243547 4.599878944765086 -0.3171075226178281 1.3855759782574006 1.4392536702865149
P 9.145499078317137 5.447250560194916 4.487300000282123 1.0098257062956995 0.7659869104650356 -1.1062698427580626
P 3.3349586514075615 3.3882317596294853 11.358264972145077 -0.5252128696026245 2.160719358410724 -2.5658344566877873
