# total energy = -381170.74156662676 ev
CRYSTAL
PRIMVEC
9.21355939757757 0.00000000000000 0.00000000000000

0.00000000000000 9.21355939757757 0.00000000000000

0.00000000000000 0.00000000000000 13.48497549920976

PRIMCOORD
 96 1
Ni 1.2909578766022882 7.403592517398388 6.900234575694079 0.15051957815052786 0.2029361440790311 0.5251663326354054
Ni 4.615772138519843 9.11918492004604 8.81562762090719 0.9684353162743707 -1.0878861980445522 -0.1732422165590242
Ni 2.0363901141527627 5.943123574787971 2.4197174892994298 1.0026947516778733 0.6245389555984728 -1.1241192122346575
Ni 4.09977595737411 2.252346733142029 2.3496087516879687 -0.7902673802789552 -0.5335728115315456 0.023322990996656606
Ni 2.874722671224922 5.679385436703251 5.704468430838512 -1.2121722964198478 -0.10224865895928195 0.02514513180705992
Ni 5.588650303642699 3.97839652571898 11.571484319483776 -0.06780101880437356 -0.052707357696044704 -0.6888533014058266
Ni 0.968225317621273 7.879712413421654 0.7512128247237271 0.07554081065079249 0.3666346828136782 1.6063758899907303
Ni 7.177768176282004 6.223694885913067 4.552338624700257 -0.9351536714031056 1.3322389573971571 0.13124273219878688
Ni 5.644281775354683 7.805469551703342 13.279706795960111 1.199649995583121 -0.07418763905700772 1.2077852230957458
Ni 5.61597772085001 -0.11905208654839815 2.0064432820054523 0.5659638262677413 -0.3019848080437767 0.1185373688169765
Ni 3.2105845523638665 3.7336106793387236 7.0273448413016535 0.49538190228412105 1.285406827534967 0.47964417983389
Ni 5.095540604069102 4.371843153164631 3.654536227066294 -0.6961305517935301 -0.4895591249547569 0.5968620585084946
Ni 7.902064508548064 6.3404030429477976 0.9056578783861389 -0.6271841065308037 -1.582709913832358 2.806974622640366
Ni 4.09281050646085 6.302553740895325 7.79115997258511 -0.5823569229137842 0.5273504847709177 -2.1719617640937625
Ni 2.4684968368788853 7.5742460647732415 4.1859789405613395 -0.6958099352293178 -0.13937178906382447 0.3398671849118469
Ni 4.614509880880801 6.507140827573795 4.410153133187558 0.47129889319298834 0.8865220264383312 0.06237547691342806
Ni 3.9137634064643314 4.177151429291507 1.2440267690402922 -2.413925968609533 3.0705484350061116 1.7092292724135467
Ni 7.082002439784098 1.8136431018790096 1.770415845199461 -0.43566186071566904 -0.0966570238041174 -1.2658307051752522
Ni 2.9956229977907802 7.456404639931195 9.65771009665884 0.19788983990437534 -0.8428855206953031 1.0192948221283995
Ni 1.8495022750991224 4.180403815762909 10.596871241124193 -1.3179613644322203 0.8476831991942626 0.8080447588670342
Ni 8.119891480097372 7.409341778469649 12.672316712256075 0.3596824198655612 0.3742538899218329 -4.012144776710768
Ni 0.5562474581361522 8.251451894899528 9.50379297995057 1.25978861274623 0.4077797895934203 -0.3653475885711385
Ni 7.590434288654983 2.620345509499821 11.558835945127 0.33298768418319424 0.6087570101738677 -0.595571107611213
Ni 5.942819527327472 6.507140827573795 2.280794519173483 -1.0361841416845705 0.12260176869433724 0.47559443524454864
P 6.222607685902797 3.891162545233875 1.9758588715470338 0.4434391906682428 0.0636646280384968 -0.8601995864937184
Ni 4.170913849571564 1.7583985996622067 7.522957864966695 0.4999067867376681 -2.035985116754416 1.1278300854273415
P 8.501443402345911 1.6916740024216987 13.349047122716854 -1.1918927202352054 -1.0363885443858925 -0.1586100684681462
Ni 3.654392495539512 8.239723033771778 6.183710802145512 -0.48513425641418384 0.7998239136191386 0.4281830358401206
P 5.115183912729247 0.9140062845667 5.6256353738226 -0.7176211175671383 -0.37097496206024494 0.6288332120984526
P 0.5550957632100181 8.579638881050716 3.0186255702114724 1.4939698308824723 2.2792428432706293 -0.6497805037740809
P 7.630024953435771 7.832253368905517 10.065509606951947 0.2085941136957569 0.030538534908489342 0.21167403817266126
Ni 8.034159309795948 8.413546045583354 5.604207398704919 0.8241470637455356 -0.46403861208614916 -0.7328870425872733
Ni 5.955184124054448 8.275572993432482 6.8788342412546255 -0.6078465825444563 1.0123302178851081 -0.044494997088581435
Ni 5.724458169332437 5.487107665395304 0.1515658163470765 0.39975589084767926 -1.404981379367206 0.4392552344938822
Ni -0.4151675937525419 5.962112720730071 8.53565242707586 -0.058937397766156564 0.2861840935660942 0.2215866693006829
Ni 7.148551979395833 1.8946210755253539 5.813400343731985 0.6287617354305687 -0.7617810999138042 -1.1780596710068552
Ni 0.24598268774749477 6.80820309482467 4.004848654782429 0.5775145072198182 -2.071046222123608 1.5182040208394887
Ni 5.313183304430229 3.02236996075532 0.17634752708966062 1.4312809364936834 -1.1095086614103342 -1.1180051289171198
Ni 5.72830943716543 6.836258383225298 9.180814418933332 1.2267234547611454 1.9861537950545858 2.0638741298552006
Ni 7.923734800278205 8.816602415492667 0.8800635317036745 -0.8328579612559721 1.3726852383376618 -0.07264266316739103
Ni 1.241573198169656 0.10328307961976942 5.289562502173188 -1.4385815839201548 -1.3057000305663642 -1.141015216659048
Ni 6.717034924471891 4.4319616283088346 9.20025963606618 -0.06909248392228746 0.7595825496005887 1.3118326258266633
Ni 5.969695480123738 0.9825616160617908 13.012407617163785 0.9920863800344075 -1.4506444286219597 0.5818622426655528
Ni 1.3972454979453566 3.4393480189317445 1.9711258660785929 2.0096372228885064 -0.017943986072930386 -1.0508939370909194
Ni 6.692867758141892 6.175259204099571 7.368190336724965 1.0973429725820778 -1.3098060823149378 -2.229457801427702
Ni 0.7480341467275967 1.5910342929963925 10.834908155237303 0.40745300238162085 -0.3604812616177727 1.2556725336953278
Ni 6.007636917770302 8.564031111411746 4.404812954154059 -0.6659098052357757 0.121887516236132 -0.41466854629345357
Ni 9.055196749950028 5.64161905668546 6.058367697232599 0.5116346166975575 -0.48260094846936885 0.428657661483694
Ni 3.273890919063608 2.8218368402168417 9.494069910706175 1.3829097442791474 -0.26641848090339276 -0.1814646044688165
Ni 9.06730336701355 1.1385195361791725 7.125784352740072 0.28048987139479437 -0.8604083600704149 1.134717299465478
Ni 1.1418824853634841 8.247241298249582 11.836774020972983 1.1135964583264628 -1.0825205628572647 -0.8838226252292972
Ni 8.000686448462785 1.0476001319304384 3.8955399073091255 1.601922739315383 -1.8656227928463485 -0.5665089001379341
Ni 5.634589110856338 8.539154501007248 10.96738439784472 0.8640295017627699 0.2713701684817133 -0.2856608740727725
Ni 5.794038969989758 1.9086625400647814 3.8009019104828896 0.16671675673568062 0.06512141508968139 0.505271136373375
Ni 0.9754763888762136 2.6323876316474792 8.864914635610084 -0.7143699576196924 0.599520064956632 -1.0098802136827187
Ni 4.3221175730338635 5.152627818167719 9.72571537865721 -1.3969703361372716 -1.6838265160697259 0.43932773960303045
P 2.6757374286671682 2.055452968570135 0.686009386141657 0.2894455379261854 1.539349544568852 -0.07583083108738553
Ni 5.705478236949747 3.266584566452213 6.860508471589978 -0.8183929348705775 1.3018089230420742 0.652843716080437
P -0.19901380459192153 5.186312591367291 2.3899291303739547 0.726438201638136 1.4229441344932139 0.40659502525669977
Ni 7.908744339119642 3.9428598270781845 7.379679645308079 2.0851950028201633 -1.2450307377107654 -0.2760441769186149
P 2.9405259125245227 3.378575381069498 4.2022823339356945 0.7664494519237509 -0.04374989139244078 -0.3216959133194589
P 5.590013910435242 2.67035670997227 9.357278036871545 -0.2648598781670213 -0.06837103237523064 -1.3517880831736784
P 5.183824930326842 5.2250187544448075 6.141516385475722 -0.47570267868763877 -0.06202683532475769 -0.6365542348917941
Ni 0.8569706664007734 5.689299226627415 0.2871074101698929 0.6373155385378508 -1.4235154336156517 -1.110531960468526
Ni 3.3587570147805814 4.30982668478216 12.52484540171039 0.055079971693279335 1.0786024587497813 -0.17411124942753886
Ni 3.482992649852524 6.547560712701399 0.2546600179989599 -0.6465362858051704 0.44715494895693314 0.28544952939291485
Ni 0.18306144783105224 6.316152954583117 10.931285672079971 0.9117849147701781 0.33269509264343994 0.0730193297805194
Ni 3.814146402133432 8.793347391544168 12.386179489891958 -1.4325508043450426 0.7366591080351959 -0.6302334348800888
Ni 3.415484900062245 -0.0031749925723666165 1.2778092059696 -0.7460042966955217 0.20804261206766103 -0.9787881202636045
Ni 1.9198017333903508 5.537478194684707 8.588446122489849 0.0998179380306023 -0.6357039710763568 -0.6487641466944246
Ni 8.613222305096787 3.688648509422446 0.9767312756677293 -3.281138496085975 0.39202226964884745 -0.9554345331393287
Ni 7.159829376112539 4.1302175576616875 5.16444881488956 -0.1688404879469028 -0.3910804745608684 0.06547597021562272
Ni 1.4519832543946602 0.6693816754761027 13.22818088632081 -0.03333898047176194 0.8729021216620515 -0.6070045462591352
Ni 8.252981345761434 0.9254651884037643 9.49104970593188 0.06112000723977216 -0.021516533915537137 -0.49337875581116314
Ni 2.9416407532130204 0.5134504746810072 10.138571290354015 -1.3159913851900433 0.4268285786947552 0.5854867267920175
Ni 2.818040853740304 2.24468105171368 11.868490777882776 0.6951067385147062 -1.118573856936396 0.3976876954647409
Ni 0.7919883532445212 3.1200429040509046 12.83524284735454 1.4337772205529757 0.4743291953788799 -0.9388023238992864
Ni 7.646498797659193 5.158579777545981 12.069174079439623 -0.03855497745506264 -0.808530183143885 0.06277759744785318
Ni 7.820662711168904 7.874921362528935 2.971347111459754 -2.188820230411998 0.6395377430001501 -0.5090920527813619
Ni 5.1905692558142835 6.258319442172365 11.538540316460693 -0.6123334146712164 1.0353004535280363 -0.09786055719391534
Ni 3.5404760470057317 0.4193007965034521 3.7380617498892468 1.6459791062046494 -0.7833377430386573 0.5732940413805675
Ni 2.8206943588501168 1.6757253310845932 5.722889100165072 0.18905912898662278 1.185266216057623 -0.9134265641386591
Ni 5.01215789141699 1.7239675281505003 11.089086304079167 -0.5127826142590718 -0.9865078575053656 0.04218486089816605
Ni 8.097078707000508 8.236277162552785 7.856171769131471 -0.5280786211861938 -0.15151948016995195 0.6237321434264613
Ni 0.25399479900962485 2.437060172175128 5.408634858552286 0.5076630336443193 1.954222750673944 -0.5904697818289056
Ni 8.028106001264186 0.2738205361460685 11.66755133937436 -0.12103082466279155 -0.2581575264461812 0.642392438840126
Ni 6.7626328299873935 1.3335337346316154 7.873432451328429 -1.641652196694521 -0.40862799652632853 1.598447379172273
Ni 8.208009962285749 3.2408142407850358 3.2909138914278118 0.11047130397939038 0.7666057749959572 0.148110454488403
P 2.6925245339105 6.151994966591661 11.570392512693802 -0.18002684358102544 0.7236881496968247 -0.2725163662710145
Ni 1.607093527046407 1.6862656430485727 3.511635763343451 0.24361073898025787 0.2644682991555574 1.1790827129547308
P 3.809945019042895 7.53877386104831 2.5361197561617783 0.9559819210023663 -0.7712332464656395 -0.5799740245039043
Ni 0.3497808053382314 1.1679660720505702 1.7480434802423495 -0.7684947644885539 0.16420530316773657 -0.006845819277239823
P 8.806789974722005 4.460726360783961 10.184230926717559 -0.4224001106097564 -1.7021330276883977 0.06350367698060032
P 1.9305631707801483 0.31161824226585033 7.322584139005994 0.5025712209437087 -0.46780296422458795 1.165884726207218
P 1.136833454807312 3.8892092706391512 7.040681468546286 -1.7014154327960826 0.6578270282276413 -0.567812449440706
Ni 1.102586654483787 4.514533547732948 3.966066019161817 -0.269843961645174 -0.3379496561741599 2.913870807673988
