# total energy = -340859.4835724844 ev
CRYSTAL
PRIMVEC
9.32103090708500 0.00000000000000 0.00000000000000

0.00000000000000 9.32103090708500 0.00000000000000

0.00000000000000 0.00000000000000 13.64227091676309

PRIMCOORD
 96 1
Ni 2.0451833525249286 0.9708879169356341 12.575308741866337 -2.3355934541462164 -1.3331684111899622 -1.8948194690149627
Ni 9.04484891616662 2.2672848807815917 12.112358295568612 -0.6528144055043983 1.1338328399779956 1.214587847839876
Ni 2.524899537402276 4.484394651331288 9.366319160315754 0.7195072788462576 1.1995746622604955 0.8232546338382533
Ni 1.5473843673782377 5.645534133368766 0.8764146065593789 1.781324290607584 -2.4325880637954107 1.4596476605618345
Ni 6.934586124734186 6.64997776214442 8.163712275268864 -0.5317871803860326 2.3253488936000726 -0.6924649300164849
Ni 6.315800156342092 1.9758442024199547 7.383156084302248 0.7446117872233692 0.374766053671561 0.8944837044875693
Ni 2.1405654634301845 0.22849482346529357 5.247704138515241 -0.5097127170844964 0.397194043657774 0.9182833780103281
Ni 8.260101989632428 7.727181359426516 9.768916862559882 -0.276346281540066 0.597184731955236 1.0460947159300629
Ni 5.753182721157763 6.165013836776537 2.1626954553886777 2.2414445414759334 -1.0531539367696894 0.29765429898922285
Ni 6.226197084698173 1.3240058578654406 0.8895675134975599 4.078976746733653 -4.599050238227182 -0.2538267602813113
Ni 3.07363795732833 3.346436573556623 1.3932713718249876 0.30749185390493494 -0.4903209428214459 0.0168990897481838
Ni 1.0776696488354298 7.991935925844271 0.8759401660780853 1.155835569501332 -0.14465772005311214 0.5707126538066364
Ni 5.5101741202185535 1.3485015275086547 10.912398583344658 0.005755671536854603 -1.2692181335902466 -2.007586253896749
Ni 1.033432035393004 8.677311340176672 10.97170084719704 0.6061208581026013 -1.2116711884137132 0.48534302999088025
Ni 7.104405989737885 7.20760844570808 0.7090014317770944 -0.8754631975210083 0.019706477289991867 -2.9104039321713104
Ni 3.63779336263866 4.72848449187423 11.44682083165541 0.5656164702306518 -0.6966252320417615 0.5030049660470175
Ni 8.731019121182836 9.362043603365471 4.8633877745021765 -0.4355343339988693 -4.0026581773765715 -0.18003969909683185
Ni 8.027299917711225 5.062233330247492 11.911381020018348 -0.44313785737774003 0.3953860439147578 -0.38949667501351626
Ni 5.962346658293884 8.51035303171044 12.872000889130938 -0.07752750206351809 0.6378606124080434 -0.6997141553797305
Ni 8.670618839870802 2.2964410659581422 0.9045510709372353 -0.6231500456707462 0.8543891504595286 1.1242991894559478
Ni 3.434389822701741 8.384491149217167 1.2117042113679615 1.2538347091556405 -0.5345490594018859 -2.382342794486613
Ni 3.679458371506684 3.5196772569617907 7.529497204152107 0.6382048831213395 -0.0038710529196320422 1.5776052456159413
Ni 7.664721130248747 6.494941052412463 3.790505407222589 0.3191096406495214 -0.35928004222081994 0.02868322686730544
Ni 5.68462653766239 8.0421017150451 6.698177745893288 -0.5424793699925561 0.7165507673210949 -0.28034691805902684
P 0.7433867153820478 1.5415866860547678 10.441685582374609 1.5217588280702823 -0.6603407957884305 -0.35774329386131937
P -0.37199302883981744 4.380763427932027 13.804204662933667 2.605034523926017 -0.7105377283577957 -0.7262754508080266
P 6.622033311006537 8.903085354673603 8.839509398077153 -0.5742952289515723 -0.0515390484195564 -0.7187745144452911
P 9.26916884981715 0.4125572239388678 0.2080025366652149 -1.1175233041846948 -0.6971458804319219 -1.5212633764911025
P 1.4472298885668458 8.106323619094471 7.093844329436239 -0.0672456605215358 0.5617996675877227 0.46558667329955944
P 3.7742625784858057 8.225520964375074 12.024584010219975 -0.10192624262285671 -1.2685586456293765 0.03529301887433922
P 6.58216726113438 2.003816616651038 12.39126125504247 3.1536524027161428 0.1409854134078475 1.4424562363842124
P 4.527588309294246 5.5422477881189725 8.933709602243155 -0.9663835759516648 0.2997245512546903 -0.5169069208400905
Ni 4.281419878823436 0.6748538344643411 13.029283035246856 -0.4570292706478516 0.7539677745169724 0.39602599149160184
Ni 0.5579839506410861 1.0648345890566222 6.998103358834917 -0.35699021774537876 -0.048995456062096265 -1.497872251260672
Ni 5.459607526681857 7.804247644285762 10.415260459300594 1.3110574382235356 -1.0684283464302569 0.14579723297419409
Ni 5.780446737027779 0.7415914847986067 5.4419702716975005 -1.0272624137149082 -0.7859199019435368 -0.2999274112941157
Ni 7.284068863547991 3.200711573860271 10.267418653449 0.7042166712357742 -2.0419356779108964 1.490754666379284
Ni 2.026690426888651 7.263236359113979 9.132996042757924 -0.3386333125047458 -1.8266104161388927 -0.2520876661030174
Ni 2.7203429168082565 6.375007345677593 12.803994646468498 1.805314482874594 2.546774868953175 -0.14546247534259463
Ni 5.031492569789607 2.787761934513496 13.574932465477415 -1.8325198396447924 2.3672450196132266 -1.6713366111328312
Ni 8.22841980503681 0.11494322670177384 11.554240122080166 -0.7912680536293276 0.19296360624735154 1.013719384923151
Ni 3.75274031775286 6.085868961989424 6.845937526671495 0.05619737312717418 1.2810107553498002 1.497154656368357
Ni 3.0108328500010932 2.1573339983191273 10.78585253717109 -0.4910614205318963 1.1226907073182473 -1.2453122735069262
Ni 1.7349607965639473 0.1897696677956976 8.891855376444477 0.17492937445346005 1.1346136840080783 -0.5235591360492854
Ni 5.525926662721229 5.873806184191567 5.358547975753892 0.660371906136682 -0.34425888622163936 -0.29047860717639
Ni 1.731614546411012 4.862278571805242 7.224987508131889 -0.6448866660168894 0.013057090294274286 -1.1514857771730687
Ni 6.727211825562866 1.0581234466886185 3.4680294238213603 1.6464948694988033 0.28767713317185295 -1.770345422998577
Ni 3.9759510487064573 1.2341138342584546 6.800180585165201 -1.4504485105610698 -0.9700065174162326 -1.9104497193530519
Ni 6.926103986463515 4.450139862161268 0.6609682944843197 -0.02984742237873569 -0.3233375626879399 0.04846683725213589
Ni 4.816512309267882 7.590441833678437 3.6218730415767837 -0.09365654641489676 -0.9936660658167016 0.6339638484567984
Ni 1.2446745624569944 4.430882611977523 4.6197639855125665 -1.4912022954396642 0.9445973333145087 0.5540076823471297
Ni 1.461211435166854 2.6228169687576663 8.368428216379971 -0.061649911601313175 0.15935311728175783 0.2542293950363686
Ni 7.063822220473595 3.964719206271117 4.811042728237958 -0.0486774106010452 -0.6726635790198415 0.7891990869154408
Ni 0.3310364183328601 6.8395675340405315 12.834225546527033 -1.5007889106868346 -0.09766361069176084 -2.1342675919770984
Ni 3.9511105009137757 2.3839189425188603 4.345704233780953 -0.05971104270738748 -1.553539720026305 -0.7589901674322284
Ni 0.2961776263497198 6.4913244923585935 6.071684216912162 -1.7135132445008814 0.21087828174424328 -0.025708717620013786
P 5.268675526312147 3.521028806466458 6.087263388236997 0.4870486998280773 0.2252687461379604 -1.0480153299915436
P 6.334190550636635 8.334204186612471 2.227864376194422 -0.5130818906670455 1.976886767930363 1.0650069794535337
P 5.016476388741199 2.2245013481855667 2.124374832467375 -1.7612388327116186 3.8375321621667777 2.015273338128362
P 5.657520979320507 4.771128209004255 12.305437861496086 1.5390620952354204 -0.5093933860718647 -1.2853669754359671
P 7.568406916236824 7.379823815695913 12.03360210777698 -0.4697714008048684 -0.11555720314273 -0.5363192639284312
P 0.27188888359618557 6.330443496147834 10.55035948358094 1.992260679283272 -1.300093483012864 0.13837497236819396
P 8.379448471410097 3.3536417305711597 8.51474137313663 0.5608434743220406 0.3660937227085437 -1.8359682032047089
P 7.296987812606398 4.277588935055033 2.78827552332527 -0.004083940261386515 1.069862764883938 -0.7182209559346663
Ni 4.973795387486907 3.380141421893709 9.89554400170373 -1.8308450230455309 -0.8720498009640851 -1.234246759721384
Ni 8.519487642155779 8.303472747185653 2.1453294424083604 0.03390770849103838 2.1127963094772 1.7013169595450055
Ni 0.45378787275918525 3.76968595223207 10.173205399839507 -1.341691875279941 -0.06459099650750812 -0.3757441013141141
Ni 1.086850864436102 3.4005638009607875 2.5765343210992127 -0.5584310082258059 0.06792391753548303 -0.5987965565270461
Ni 1.7606775212768957 0.77544546963276 1.0866420733402085 1.6105737301221617 2.5636245935206623 3.6374072622842966
Ni 1.2701116562379422 4.799016733955738 11.995321565289265 0.07503224644549013 -0.9608667598984936 0.9752767646762365
Ni 3.9579148535924467 8.440687645518134 8.204447977339543 -0.28928921485397924 -0.9963778083209098 -1.5115057828837066
Ni 2.558641669863629 8.470431055651884 3.2068345591679677 -1.6588616185942722 0.5097209446146125 -0.23650858071783784
Ni 1.9827604074714256 2.6550956993415515 5.932109233513601 0.06604032735952498 -0.4230241173470004 0.622385656700896
Ni 4.63619696328311 4.920246064008876 0.4545521973066523 -1.2687998151059052 0.6525814635579857 -0.43292363584889954
Ni 8.822393188729423 6.178734394506678 1.3537548606178311 -0.13537603764087006 -2.1762938158102134 2.127753959228297
Ni 8.312831062376592 1.0886591444630362 9.199897743238964 -0.34997110611506826 0.30931810848039626 -0.5985271049157435
Ni 0.20365986829125238 2.00778737588544 4.568960637786777 1.2990660701896144 2.6663255095260143 -0.8465511424723485
Ni 3.388893870065314 4.317669368641724 5.356187890687811 0.746152906458244 2.0027289258044476 -0.6728800659060218
Ni 6.2629778732872605 5.123528430541928 10.080929056485665 0.5731060937394775 3.7887768471399457 2.170761058917442
Ni 8.6100414589685 8.631218841551977 7.551242237527546 -0.9285065984002331 -1.8285901655730832 -0.9278892765312085
Ni 4.553892258964395 0.4095446666981194 2.872025919562425 -0.5819656010126365 -0.3699938290938983 0.22746061158295666
Ni 8.940127132132558 3.7872281326995467 6.338403656678771 -0.004288342962708743 -0.3828305758472504 1.1611086449748131
Ni 6.481229815713388 4.595575909894553 7.87557403821415 -0.4739967517401256 -2.7655940028110497 -1.8986668677855105
Ni 2.915972716835571 5.260724686812275 3.205455978673207 -0.856213348152461 -0.25621788622130715 -0.2870251014101508
Ni 3.8725901352081302 9.354027516648134 10.146684270145505 -2.545017777052752 0.41637370191001843 1.5510820025144318
Ni 9.00070451303486 5.6436419640622315 8.428317705189553 0.9074659756798501 -0.7661249787047967 0.5059923308101157
Ni 5.0129716810601295 4.26524788992276 3.2365602593426916 0.5605472832378604 -1.4778477285096292 0.08675519130937318
Ni 2.292367775382006 6.897535026244165 4.900726892852158 -0.7806882212309523 -1.733591503307995 0.41206299034980653
P 3.776024253357407 6.301399163344083 1.6444116402667612 -2.594062341185229 1.8773593645569862 -0.17519111275527893
P 0.3845643034394381 7.5803285149710975 3.902125686349094 0.44612316525830914 -0.14110111305010536 -0.2995376320548648
P 7.367026040041373 7.058611764107326 5.892561030800818 0.7748983540220525 -0.37103512587421905 0.7056562318957783
P 3.8418773378434454 8.157645216147568 5.3738950534051675 1.6474171242027562 1.4029959735060613 1.9028040298823357
P 1.9505562451360734 1.5740704793221199 3.3058630574265058 0.8523929459651062 -0.620764319047389 -0.07117430615198064
P 7.698705609517833 1.6850839593261848 5.554737037645206 -1.106908761893642 1.6419190772026628 0.982641946792056
P 4.477953818864218 1.6000109087806684 8.687602690577384 -0.10998048038590091 0.31542113605434063 2.5517499535702632
P 2.817533307740447 2.8476682011789975 12.86568495848016 0.4543352687554562 1.9052548054156735 0.5322687480081414
