# total energy = -340854.9960668432 ev
CRYSTAL
PRIMVEC
9.40758104469599 0.00000000000000 0.00000000000000

0.00000000000000 9.40758104469599 0.00000000000000

0.00000000000000 0.00000000000000 13.76894579177337

PRIMCOORD
 96 1
Ni 2.372629602448248 0.5359583663150422 5.0548137819160495 -0.7827723574534906 0.9003005682796624 -0.14464537875793798
Ni 7.402571621256049 5.763780388298276 4.577775096494781 0.8937928490681316 -0.17898091881501435 -0.5883879595992124
Ni 5.994764728867464 8.276027902952256 6.9774411464794515 2.337465731468265 1.285933132352082 0.7055842410072621
Ni 4.282227467085438 4.372822473792613 9.063105655823545 2.774990356424285 2.080573187777436 1.1925203265168753
Ni 8.310770100228433 8.508470418603439 13.21988208719342 0.2078749761415452 0.5654789162115229 -0.7647692360078506
Ni 8.630571414662883 3.3858166873242768 3.353330428013662 -0.4837134648072573 3.1251812918596436 -1.6159018272032946
Ni 8.585095167266987 0.03932933385669992 8.134431576425598 -0.5743021709301077 0.8533951619773753 -1.8196285855044212
Ni 8.020988377320734 2.495803062761546 7.28757240822498 -0.9193413869611974 -0.6068996452501547 3.1245431440550124
Ni 0.2490045623082959 9.321972185476715 5.98547097942551 -0.7335781551170268 -1.5433350115791613 -1.5799817162679177
Ni 2.703183782164764 0.4877877876708653 7.4408482467793595 0.45470319361783623 0.2438243976529607 0.28028238336967853
Ni 0.6446657890568316 7.136741600017765 10.941795853271143 -0.9931119930854445 -1.5655272314054844 -0.7224095400947171
Ni 1.1431245960535483 9.101176255319142 11.798086121598857 0.3952456616821516 0.620196619469377 0.19680483437031265
Ni 6.030927470900941 0.47164814140847366 3.389900518311981 -1.3675090934533611 -1.4388050127848706 -1.41122324651186
Ni 5.964933288964198 2.586153472358194 13.720506519376428 0.16744617870253742 0.48795321392021773 -0.5975814531730225
Ni 2.2781586722973177 5.1850354020450276 0.7496732101228233 -0.5089604122995041 2.001260054568405 -1.8275663522942587
Ni 3.125123205407085 3.2281738495888512 5.212551636221333 -1.5919589432344519 -0.5312752737466205 -1.5913123107893883
Ni 4.102166363411985 6.349994994003806 13.406217106751921 0.7294021693624664 0.4726291819686376 0.7450725289098717
Ni 9.282657903749893 6.4005231124902275 13.486048899837739 0.5010216170684016 -1.2625322369296386 -0.6668091771215935
Ni 7.884324445603689 7.239199566585559 1.6148084862704837 1.6860078399917608 -0.7445698782418403 0.7906867272045608
Ni 6.102707315259794 0.39251250932954385 12.82146349840274 -0.08158753106550465 -0.04160919090035414 -0.03742214940220007
Ni 7.887701767245214 1.0426516291135026 0.8169101335326735 -4.495464605624031 -2.1682773732636402 1.8699422461573088
Ni 8.83265566586505 8.98199160942369 10.230422787624567 -2.031951570114991 -0.5810451460808961 2.2076530468477853
Ni 6.3174823934659035 8.623205278603514 1.1724132185230656 -1.765715380425733 0.8228142038667248 -0.1219397096303061
Ni 0.514041524453598 3.574692694557919 12.605098538978195 0.7530565755566128 2.0187864934879425 0.21221911204285387
P 1.192523804799071 3.097878850326713 4.177718647821677 0.1987316190793803 -1.4600176423067437 0.7313220120929986
P 0.8282744915910607 1.6127416406865205 6.861024210965437 0.5381259781198667 2.003546793720053 1.3766743048923966
P 8.584050925756653 1.3760751210881375 2.9382105603644906 -0.24257535573720804 -1.4280668004317598 -0.4130248400424435
P 5.445992296235097 5.463311653176728 0.9522739375314497 1.8699376181716183 -0.06907911418584876 1.4213495363125845
P 9.010082646809735 1.3816444091432412 13.006256615406794 0.9234453818272419 0.6192196002680884 -4.244087078214162
P 1.5488735720951377 4.722822123796122 6.681106102525832 0.6976770703450436 0.06443930142099225 0.6364349357051103
P 9.25721980425496 6.430674410153416 3.6051092860102183 -0.5014900720643879 0.45638675196784634 -0.14266511510311558
P 3.4679825012994043 5.993617003964217 4.103641472140094 -1.3795225729744691 2.1476080178397465 1.0457129071106122
Ni 5.116971552249969 8.114847814695345 11.331979986260082 0.31913817989461163 0.11092741768020252 0.5442500887397337
Ni 4.549835521165638 0.3570562766422462 5.774461755963418 0.3324904328318016 0.2668815365827404 -0.6450794987539858
Ni 1.698585818900745 7.721131134975509 4.210213373955348 -2.6348680623476812 -0.5423978660223433 -1.845513166580667
Ni 3.419693387132433 6.998139706578842 2.1172645745081016 0.3234550621024107 -1.5847698816851805 -0.8073816713617384
Ni 2.9814694408776377 6.992212930439121 11.607882704661542 2.1529787952333566 -1.213274528345091 -6.022828181475602
Ni 3.789768815361601 2.5106105955296765 10.616724411862931 -0.09615077359166022 -0.009535193183944869 -0.628740138164014
Ni 4.280261282620038 7.198925711578973 7.806978135464085 -0.16657997404750022 -2.404288702630085 -1.0640204471705481
Ni 6.974235042815297 3.851284988659444 9.319345588812888 -0.4069200126962863 -0.6195474159211524 -0.223240402854022
Ni 6.639569750125673 6.713278148625229 9.357031418238462 -0.48608350770133063 0.08209326705732958 0.052048126845491004
Ni 1.574339894333593 1.8411483040139895 11.869092662785194 2.508655179263318 0.19549177198584397 -0.2944756441509251
Ni 5.023892944112815 4.749445578518999 3.899613614667347 1.4289409755065972 -1.8306339354759893 -0.8766006535595613
Ni 1.9846797699881729 7.523666006129857 13.190553952882972 -2.4953355793362766 1.3186535054032387 5.885202942789238
Ni 3.02257116302755 7.419100741379052 5.860434818039729 0.681877898529258 0.686162899057857 1.3480869801730073
Ni 6.657801642441198 2.3947280106263538 2.274698563941461 -0.7198368942715344 1.5824849423057457 0.34787308593545896
Ni 4.879919321823446 2.961638259762505 6.470427085162952 -0.27675997203871694 -1.4491416188241881 2.5119737021135897
Ni 5.631538019733085 5.556333815826838 11.44455486562257 -0.43041295361190385 -0.20487706985548587 -1.1643379505453884
Ni 7.76100987157278 4.845873285554155 1.553646978782907 -0.966966187928012 0.16282744898360346 0.31361956406922764
Ni 2.7272860051329664 8.113493123006267 9.141244084298014 -2.102887277893604 0.9711118346652694 1.1921552298679727
Ni 2.8086239519647673 3.1850306823241463 8.124393687312766 -2.9458044231577913 -1.4272443045304646 -1.8394924143078835
Ni 4.3094718221658095 3.748629462886993 1.4101192758411933 0.2317589818479944 -0.5616320316616069 -0.08285457070338634
Ni 0.9203267326221144 3.6887502087134543 9.94887552051861 0.1329941676722548 -0.11277784062537996 0.450933699273075
Ni 2.034822177646454 3.4710775955057036 1.8994677812288523 -0.3928275391589622 -2.692909173551814 0.07577426681783724
Ni 3.5510326279049025 8.874340658047759 3.411421301005993 1.0496027290833214 0.9352953391872924 -0.13442061570613625
Ni 2.257527846782381 5.681699242553715 8.615063957855394 -0.5542205696888842 -0.11684172628210847 -0.13476822885354206
P 4.391769342277375 8.560259152967198 0.14212032879805908 0.8187865707645705 -0.18726012810467105 -1.0209423850341512
P 3.356709631171421 0.46569690555769905 10.65311575811894 -0.8242177690824708 -1.8759542566793432 -0.11004372952366855
P 1.0608270759419829 7.95966976322755 7.397187662550076 1.7949380247362765 -0.0006774856829988332 0.4380360173748004
P 6.465999877462393 1.0077589105385372 8.212405372229519 1.0468835303799455 -0.8721567588555947 -0.8462546942778522
P 5.688792558759033 3.4408510371931222 11.627668729387038 -0.16836097720732293 -0.7942212227203805 0.12599048266091203
P 7.429307966953016 6.519284417232844 7.05480815329764 -0.013998371161621054 -0.07225416947972071 0.5582893404416193
P 1.5365872710816826 5.325951560452795 11.573597715830427 -3.22777036487748 0.43093463044332886 -0.13447255198999422
P 6.433948248402024 8.256497764434696 4.905999018354457 0.04482152719006474 0.7253925339824411 -2.084002010953327
Ni 5.923897419882505 6.928053226831339 2.958671108660175 -0.7822013154413691 0.0019254991574870065 -0.16338692103149927
Ni 6.6188918867048665 3.4684999182639835 5.337380830821284 1.9879445684064214 1.5111193460785652 -1.1640690131547178
Ni 7.855537247210756 2.6860243541030937 11.743258738515845 -0.6666849928389035 -1.4776965476437451 -1.9583380583938985
Ni 6.941600143722131 0.9653213118618944 5.285953347574612 0.6655861033477699 0.3925308338541498 2.7048799727604447
Ni 0.7322475475139237 0.5505965626220377 0.6912812945329196 2.7021399481214625 -1.6437862123183884 1.0117337219516898
Ni 8.296254202476703 5.177979716164407 10.684261437112236 0.5366221398808306 0.9681753777447648 0.5133495425061353
Ni 8.682548300650126 2.499773062017042 5.293016559520172 3.0876560412206757 -1.3451800909388574 0.03668012902985295
Ni 5.022669958560174 8.900493733711928 9.0452886378378 0.07712718130130589 1.9681478453954686 1.0294581358146464
Ni 4.354129609999555 0.9752839403253315 1.5390097232340292 -0.06632314870726641 0.3914951935007838 -0.7287951319060867
Ni 1.5694291369606805 4.984691553360083 3.5053117833984775 0.1288770601800877 2.681479334448317 -0.20741860533041695
Ni 9.150961174892805 4.702228928605882 7.891533475057449 0.03431240012862478 -0.31817607309165846 0.05299737813263776
Ni 1.0854279007124152 0.8715550095409085 9.346966247140227 1.7399922646280161 0.7577964042344433 0.14673979939312148
Ni 0.8036096952686438 7.323651422786007 1.7590652767531951 0.6405523003075936 -0.15444822378097273 0.17525590455494336
Ni 9.014099683971102 6.965570660553895 8.576277441432445 -0.022400479182387228 0.1799178288069869 0.7881570188041717
Ni 8.487096394175746 8.825552942078556 3.9795968698100688 -0.1091656977940894 -0.8636001275348353 -0.8329772604426559
Ni 5.9949905108156445 1.4917977771114992 10.448344701733433 0.4270106127985743 -0.10298219469119684 -0.18286071348539476
Ni 9.206484718982708 2.7485095082618747 1.0230753934481898 0.9153420359938172 2.594808989543267 0.5832074438395376
Ni 3.892565454851665 5.181394668130628 6.267927018872889 -2.4299362279948604 -1.2055689321707175 1.9652322144105703
Ni 5.417270950910382 6.486009802619834 5.545209351088392 0.67072111058149 1.3570606444265276 -0.7996267100066681
Ni 1.463847853443065 1.4237057045729176 2.903182372620617 -0.15788990247267 -1.6925032179081172 -0.11807019937257086
Ni 9.258169969953551 6.694030237542895 5.984438027012588 1.1860856266351252 -0.19314101236548026 -0.4960599021877522
Ni 3.1612483171158656 4.278304505735813 11.857113989676133 2.1199079808213166 -0.6834650405107197 1.4423312807705742
Ni 6.794362090765329 6.586971963780937 13.225347891855609 -0.4096782921677138 0.31113844951858677 1.173577209755469
Ni 7.909320388783437 4.394036569340348 13.085855100479492 -1.6308324803711978 1.4668300372428869 1.1667702141359648
P 4.276705216936205 6.5930586688006185 9.833739897560518 0.33270100618071086 -0.8655618792468964 0.30147367273531306
P 5.945205591241981 4.909402681223268 7.156299961278847 -0.20782046875452595 -1.3278405712191454 0.8181180839426361
P 4.546213602413586 1.9689220715214524 8.559864975316003 -1.0811902740816155 0.01595858021178542 -0.13232542374000436
P 2.45121112799602 8.819193417204822 1.3646232725248308 0.1409738434436217 0.4236527520699349 0.981401903737368
P 7.6050980287734 7.376164540900178 11.34968693554609 0.4461568467097219 -0.3805227536496802 -0.841683529967402
P 5.1301045355690995 2.421229166793967 4.124432226534991 -0.26175527109976854 -0.6443978993059288 0.08854802154373784
P 8.693649246435637 2.0415109678612833 9.692814331571578 -0.44571384563503236 0.7896377171147562 0.052417337259451656
P 2.962663686110489 2.195879967348101 0.12810021057420606 -0.20080598510990577 1.0418271989029606 0.4610707877070768
