# total energy = -381169.22234853485 ev
CRYSTAL
PRIMVEC
9.17037031304288 0.00000000000000 0.00000000000000

0.00000000000000 9.17037031304288 0.00000000000000

0.00000000000000 0.00000000000000 13.42176390837259

PRIMCOORD
 96 1
Ni 4.036099961986098 4.529447531659482 3.5935158929388344 -0.04892989293148347 0.3450176187645348 -2.3034950309497746
Ni 2.621570376832015 7.31050898495827 3.1651339760376205 -0.11273310343037359 -0.06220861231826061 -1.032728579035802
Ni 5.380797178965476 4.6076707884592505 8.089444804911466 -0.8833778243823948 0.410028476418281 -0.8822221135113968
Ni 6.224572100583708 1.05602313716696 4.858759189453433 0.21684992594664587 -1.5484692474819333 0.45830762313964296
Ni 2.472102514864907 7.353967368777039 10.241745335757493 -1.0263766686758453 -0.5326932371400697 -1.0608798446590373
Ni 3.4491137434050434 7.00462212050187 8.151614411845621 0.8572423036376075 0.2535272267630214 -0.7984200912930766
Ni 4.138404610621294 2.083663978930018 9.689855957554405 1.350915707871054 0.6510598847071367 -0.9556962714411478
Ni 1.8240141204272453 2.2662827287436866 9.385463863421379 -0.846574025290484 0.22369111723819537 0.36797345622975985
Ni 6.45877418210883 5.10978523193106 5.4672746858760854 0.26301871119322445 1.4579520180269665 -1.062694015049641
Ni 4.857434988013589 5.0047294722712525 0.5064180981513094 -0.6857985737399027 1.7675951139469495 1.1388428915980773
Ni 1.5132302783470386 0.9434018221894734 6.588099326190745 -0.3838942412250743 1.5218359611651209 -0.5051384674502526
Ni -0.05228394798572116 0.4521386776357372 0.7708952394652662 -0.6742833740114517 0.5074092657623003 -0.4065556873783321
Ni 0.1998498751978148 4.9898551319981905 0.3385159582452923 -1.2878588886198852 1.0012513343631273 0.11924853595138815
Ni 5.635100711710421 -0.09420904592677423 2.686352622202543 1.8557520706998556 0.5404124601611984 -1.0955581127675131
Ni 1.4990162047198825 4.237811422310566 2.3571702666267473 2.1438549785552174 1.3147276879862713 -0.28676079200517063
Ni 5.69666140607113 1.0322993897647323 8.031569682286726 -2.654953263133331 -0.25743144691343406 1.299325494498588
Ni 7.878631752280577 4.444007193605151 7.132794549064474 1.4170933321393917 0.9282188919564852 -0.27824786943815305
Ni 1.9789108414829188 8.503840073363557 0.7976818904748938 1.0635648476903685 -0.4577093274340117 -0.28272570270384856
Ni 8.352024596655449 4.24431321469873 11.074028866625925 -0.7918843470570878 -0.7768498213214685 1.831055339284124
Ni 3.652420848123786 7.8337244499888445 12.058286521604884 -0.37672137762571895 0.14927413577920096 1.1967518480997195
Ni 8.228013682036073 3.989019281984924 2.0789238146346136 -0.5022529183723415 -1.4590660770267518 1.490558234097762
Ni 5.080696818030842 0.5606883482967996 0.3350954102046928 -0.12074903175631461 0.7113167726156653 1.2157481866965643
Ni 7.824526568796563 8.184573638957469 9.87381449843706 0.30329015711876156 -1.045337011828432 -0.5830940581901248
Ni 0.20172796699061582 6.054214135569722 10.358138423949718 2.0259138485613435 2.1359740331452444 -0.7429066316068044
P 8.375702492207267 6.5550538976001285 7.961105475613369 2.5780610806609663 -0.08372874577822355 1.608630490352862
Ni 5.028159767830856 6.762166705902915 3.025386706357471 0.890230328527854 -0.591418261785104 0.21239780371256323
P 6.128998503588727 4.730682132739684 3.0187024236046742 0.6069564666300191 1.3604501297240508 0.3789623511410957
Ni 7.082075066214749 3.2284746392312527 4.326733749885046 0.5360534118615542 -0.4515345660818675 -1.1898744042535958
P 5.246625494295204 4.1125166558797055 10.211223593013452 0.05467425161442842 0.17843918737893139 0.7208062001633393
P 1.1902039922073135 8.350117159678385 12.092914756071663 -0.7816948081185957 2.716147318144148 -1.2182514127343922
P 3.212802476761053 4.8192312262518255 7.002053499841892 -0.34792245111615566 0.08486234516203449 0.45261468651992376
Ni 8.997912102273423 2.463922544751731 5.684372193124194 -0.9435076997947556 -0.7175380709350287 -0.8422095776742011
Ni 0.5780313521959465 8.913223734565818 2.9593508713967283 1.4334571182093958 0.01797226820770453 -2.027828549085553
Ni 5.7573234041638 8.308410316545285 11.376111861572296 2.2566667577423263 -0.37502007866389603 0.41490097401923387
Ni 6.781837149728884 2.5745905709017434 11.392580929202623 -0.2475535256780898 0.443499611592533 -1.451756687849532
Ni 2.937517137268408 0.36624440626234517 8.310594698698827 1.7245031678534815 -1.2133850857810264 -0.32540267274708473
Ni 1.5657123063265317 6.412234553942497 12.55855588661619 1.0795427111758635 -1.2323053197242972 -2.6601461201881795
Ni 8.78113372390417 9.009833583380068 4.923881655554006 -0.9340997762172946 1.4951275986359993 1.4857268741473897
Ni 6.098195230483167 2.968797269618234 1.8409022739703231 -0.47247620133054113 -0.5064345605538568 0.8266939985371053
Ni 7.464020980131556 1.131000082957688 2.734576847352947 2.1302592421486537 1.2346403956153769 -0.28884210001423155
Ni 2.1241970146926183 0.7803012880584106 4.222339173908154 0.9363566905722713 -0.48599300487005337 0.6999463259951946
Ni 0.35973802868914045 4.062703205594085 9.088721692010786 -0.8705909570303716 0.09153795740999719 -2.3135002217916028
Ni 0.6265187669677047 8.270124021452784 7.5487350248753895 -0.7897048229072657 -1.0304079013224254 -0.20496680135581474
Ni 5.06614344071065 2.972713017643263 13.262179125233654 -0.38851245672337603 -0.8989407118176582 -0.313064462896706
Ni 6.486954729370927 6.764175016950882 7.323451128255048 0.11413101221916475 -1.7433634950930945 1.0633432185978655
Ni 8.253241370131754 6.811384082133204 5.60982717176433 -0.30182077166208665 0.7058588348248875 1.091314506999811
Ni 4.3754036550214375 8.675692808700918 4.378823286025029 -1.582183866125559 0.0942206464484829 1.8629388182562818
Ni 1.8551933787061685 1.5509113290141252 1.863826365101397 0.5892600777915207 0.6925564612890267 1.2589401487030059
Ni 4.908211327157822 6.58919518541555 9.870364605212197 -0.6097306869410467 0.30294408663325245 -0.12531145431601645
Ni 0.31213372055628236 2.685918863697663 0.4002875711178881 -0.545166429906416 -0.1827722675366465 -0.55008135070953
Ni 7.100369954528411 1.7870483586265573 0.023604532591161166 0.9713887424757398 -1.563370590073798 1.3464479019076876
Ni 5.891458407353744 5.679650369568953 11.856397156100826 -0.06732819293301309 -0.705753933815907 0.5814876329349534
Ni 4.528136168737751 2.304807453458321 3.6923541416830203 -0.519675484724163 -1.5380945891158284 -0.45431367148890145
Ni 7.063596770499446 8.504399465938562 0.6789531090227712 0.4717115552503747 0.045640680657250424 -0.7802670745331336
Ni 7.739801519608631 1.2504074717958813 9.498783043562108 0.18997135638824703 -1.5109062016264947 0.8497277404281172
Ni 1.2231347911719057 3.901946618055991 6.785252195547433 -0.014256767029330285 0.29769569375011956 0.3050711602785843
P 4.521221709695895 8.963000503371111 9.785552437508485 -0.0653633558971584 -0.07070148028062016 -0.4092797711777145
Ni 3.0657922739759305 4.573914656187275 9.327790488938444 -0.026016221558103583 -0.12022709781457358 -0.5928562797832112
P 6.446962745443168 7.752190689589462 4.961596636590396 -0.7056171511277267 0.6396963800652015 -0.5583039957296385
Ni 7.994728637519155 6.763138765131612 12.157124770349073 -0.8242892457503546 0.08868403290096985 -0.5725108833576398
P 2.154404213742845 6.161058117395525 1.0883945435565479 0.14400825939457135 -0.685275097136265 2.0297278229907945
P 3.773295496175105 2.940836811238105 1.6779356272424577 -0.6793978124198815 0.28012297497367883 -0.32403407453433225
P 3.8017328137994992 8.71047602242208 1.9045620660428102 -0.6549983005295945 -0.004511514717108359 -0.0799718498389526
Ni 2.6704851308495963 0.605127961714347 10.947232910612636 0.73443201847689 0.2332869884567466 1.2609144988205574
Ni 1.057041048246066 0.06289773431866985 9.578226876619794 -2.973081770816506 -0.8159907531869882 0.20857945840773756
Ni 7.8539542863898175 7.863262212023084 2.7586554880773497 -3.018362497031176 0.7011750561959731 1.075071048557755
Ni 8.077637953430843 0.2913408234322735 11.90498361086947 0.0584026083086091 -1.3833339763007595 0.10517277458461242
Ni 2.197578316089072 2.981342335890459 4.809540896186138 -0.16944366874854044 0.4925776000661065 -0.4675335126132852
Ni 9.191461933224877 7.279045445206805 0.5762853137323267 -0.8339663638288025 1.112423006843652 1.3332707410957814
Ni 6.520949291265035 2.5691342007029325 6.559510697459998 0.21431533245025028 0.8653441068091354 0.48540705045959626
Ni -0.1699783116925901 6.0826056013437055 2.5744686049796526 2.7695707280706103 -0.6594126275472063 1.3705658780018137
Ni 7.493888875488748 0.3445931624986577 7.075322922723346 2.0773546808401386 -0.7110180104283238 -0.6275908550509192
Ni 7.12081070944127 3.2838820152669155 8.954154764389978 -0.9228982510745203 1.2186944138090816 1.1305415708212336
Ni 3.1093607022356844 2.6868634118161125 7.601778279503903 1.6980388030143658 0.045797775060405 -2.0087231957146696
Ni 9.140355460757691 4.974017902866514 4.8826232435179175 0.2341192545500549 -2.0127942804602497 -0.9412633838452693
Ni 2.2844125503958725 5.42144025916906 4.6108052209532895 -0.7554109347214023 0.9742367534474964 1.476754238335134
Ni 5.008168361052016 7.53249613353412 0.4457405104295005 -0.0741614138047626 -2.4348292944211036 0.4447684510026275
Ni 7.106000561758781 5.951450968430424 9.82603320216162 0.16324062526162209 -0.8956227031880187 -1.116055975610549
Ni 3.5149661709641458 5.397092926601253 11.479567391652788 -0.10687767309086109 0.39090923909032677 1.0752456264624062
Ni 5.016320820054947 8.063405539063524 6.685501494980085 -1.0613341585876368 5.750403346477129 0.06844662280817243
Ni 2.916682056442022 1.4597945318790138 13.190063334908523 -0.49291312902865436 -0.31135005130876053 0.8186459314216482
Ni 9.430808592366022 1.9043190512356363 11.138023377206407 0.5875109563108978 1.250872284093207 0.5175514964026248
Ni 2.556882586273332 8.01471087392791 5.961423745894638 -0.3586331526654404 -0.18082002890628213 0.028098558008429024
Ni 1.4721561907495986 6.032021839971194 7.87236105321848 -1.5823162779383653 -0.2861789513597716 0.22305116966135136
Ni 4.890255742537196 1.3099506847385423 11.719199249303482 0.23230431282850314 -1.3686591478974042 -1.259566212322779
Ni 4.658658046115372 3.7701317184968026 5.587829288011541 -0.8661216084051082 -1.2804515404122205 1.8400624278787405
Ni 3.427242410759387 3.0554114150430656 11.679807007579088 -1.3496622950799273 1.1575646363772967 -1.9580562654874212
Ni 2.1812550573430474 4.0872981381541065 0.014226912145270953 2.409126233228044 -0.4089717530189924 -0.34096196063792245
P 8.82662792988115 2.168315665157294 7.976258595136925 1.0899770191353098 0.26431583273809317 -1.5489364169263389
Ni 4.371423714405834 6.221151552543109 5.935560551152272 -0.6624439581743624 -1.9375365482675146 -1.7772768600110875
P 0.4711772829630525 2.763215913119146 3.2455030994365854 -1.19087430627302 -2.375024663558645 2.0465412950037076
Ni 7.40445025607865 4.0350820509069925 13.314442898405195 -1.4588989553212681 0.3582066066509831 -1.0988239280029786
P 4.051845487416954 1.1414818159614555 6.183339365583849 -0.11882533237104051 -0.2682074544830155 -0.27454162423115946
P 0.9592023698408219 7.348345931916751 4.560366351428074 -0.20959838659055519 -0.7520821274584853 0.18928178652039016
P 1.3715572309496615 4.025058836407326 10.902740109048612 1.2860195214183012 -0.040355006778278885 1.5574915055852014
Ni 7.01146321658307 5.977274730581438 1.3624162060518878 -0.7850200158370868 0.4688892553102311 -0.5837265495678012
