# total energy = -340857.0971720793 ev
CRYSTAL
PRIMVEC
9.34008646943060 0.00000000000000 0.00000000000000

0.00000000000000 9.34008646943060 0.00000000000000

0.00000000000000 0.00000000000000 13.67016065842128

PRIMCOORD
 96 1
Ni 2.561443922064876 0.9350640506183624 9.088892996260498 -0.8448932951539514 -1.8201808584634653 0.03593245223055102
Ni 1.793530054238621 7.142971029448243 7.863623127049513 1.1170203964063472 -0.7264736828617617 2.365922701257377
Ni 8.458830394798065 3.3432371579973608 7.865851671618925 -1.2932882871655726 3.8082802072801956 0.33510113098177124
Ni 4.825966503553027 7.710754870079233 0.4884799706582055 -0.9639646820975268 -3.844220115709915 1.5387867300868465
Ni 1.3922145701064983 8.069629002478715 0.760618326488587 -0.1297844024857055 0.9595449557632765 2.39418503853718
Ni 5.550206128267084 0.41733373198015916 7.5952637700992 3.5251881223758645 -0.03548559450111953 -0.4106293432270734
Ni 4.847084438471051 4.7212921574113675 10.076466077535931 0.7006068423973288 -0.8458124645341111 0.7162880005780116
Ni 6.380203549123019 7.903590289945451 9.591585776102585 -0.492398651286081 -0.5045489134953697 1.3308575036685983
Ni 4.29439417715343 1.6438925330879532 11.441458966386977 0.8479320819802751 -0.8937463121009124 -1.235384472870253
Ni 4.881540016495195 6.771123517304782 3.629209115511548 1.6120423442478884 1.121794934976855 2.1494183315756077
Ni 7.641021786444573 5.246335763551036 6.4120569791294 2.806115874184496 0.45812353215329493 2.926640705745147
Ni 2.8049866699584944 0.3268628549361724 4.466136880334388 1.7620348462503526 -3.3192571573345675 -3.256838228777714
Ni 8.785668031501475 0.8462809271523001 6.680087565045166 -0.09943535788020294 -0.7229258176095034 -0.016372527820752446
Ni 8.887045327211439 1.1275165269500214 3.471017943410891 1.1621108609870823 0.23246989187208997 0.5100132790440507
Ni 8.174013805947903 2.759210907449324 5.397034318495019 1.0765998264974554 0.7273249751184636 -0.5724270653945819
Ni 1.0792282812506921 2.9665328010253407 0.15283650067717053 -1.160722208169672 0.8280060324803095 0.5861472431941517
Ni 7.729285601117428 0.6258492885736567 8.9709473216248 -0.7896842540819755 -1.8147172642457328 -2.1809863361898763
Ni 1.8012729857056893 5.6913068106229385 0.41131311240998747 2.4947437113885487 -0.5283997519710384 -4.126519272399306
Ni 8.281947842176422 1.4880812149532903 10.796118785912864 0.031910475555351495 1.461299851453277 2.121660187625733
Ni 2.073433757742972 7.661952919638422 12.518653910870018 0.5448553264239003 -2.019753999607534 0.18815075823974048
Ni 3.2493039109957835 6.636430134088144 6.00515145340133 0.37390396278158183 0.44170498158595545 -0.24406556712948937
Ni 7.450717529940931 7.829654167516845 13.511532161112033 -2.9309305913697523 0.28532431666896024 0.11253744247979973
Ni 6.604113435805807 0.35559482813158366 5.416390713154069 0.8681412099382985 0.3415900811402246 1.8465801743926005
Ni 8.105308131796207 1.301512992933155 13.413215611652682 0.9458672011658678 0.42095515063311373 0.6158668817457716
P 4.345960793112036 5.425413236431739 0.3487307987767603 -0.15230520929604094 0.45283271606800074 -0.10950971139706946
P 6.367398290930798 5.604238526984806 8.369869809694036 1.180137122361174 1.6027434354444654 0.6250364640601815
P 9.391176480329678 0.5136141426459994 1.3851020944585217 0.4687750983298701 0.18550123643203537 -0.032745569862137155
P 0.5572697055857797 5.543369185162266 7.053803094430379 0.6799112617211903 -0.5805892894904001 -1.0182121305871819
P 3.9713672956231987 4.584245072470118 5.67010948497214 1.4465905702675603 0.11729963975513347 -0.9694961534387174
P 6.915829472937221 2.161893714226211 7.311663260473417 -0.7430727248710234 -1.3994789614917382 -0.422821257307575
P 3.2313335851301144 9.267663180304933 0.9563930714847044 0.9889527195014323 -0.333996842173999 0.16022677813596276
P 0.3565521869679823 4.266392598699544 4.918332484088773 0.8800901547700585 1.404987292904477 2.0804436041781074
Ni 6.595557916838576 4.79623700915052 4.699103848613818 -2.403398843825964 0.6199716479427645 -2.3179911676834206
Ni 8.504447375841687 3.986544935712446 12.760438854539148 0.23951420031338105 -0.7120369386111415 0.4239787679507859
Ni 5.714162001575793 0.28640346949703244 0.7196386982476186 1.193415584637635 2.646335696667649 0.5940338450310801
Ni 3.1663265851170914 3.6711115442699422 1.1633180113968489 -0.4798850922001026 0.21340130527641313 -0.4242533617684113
Ni 6.442455223704456 9.33643423506009 11.78162770813616 0.8655922182641995 -0.890862048574582 -1.494684854671626
Ni 0.36246913158123667 1.864449328821794 8.646745457249505 2.141685995928357 -2.068876725276114 2.96016557697547
Ni 8.650376882767473 5.202876342421639 10.701808199428452 -1.7163589414797924 -0.30484516031070724 0.45506520494294533
Ni 3.887708143451266 8.399483487027556 7.944714689522655 -0.6835239187731131 -2.7495060961102515 1.5444621832050691
Ni 1.091986839011869 6.069038577077922 2.332991017450143 -1.5536446210352857 1.3094291585914932 3.4715813927940014
Ni 2.578611000516591 4.2796928814608295 7.208494536228611 0.08378608137872022 0.8070577123634166 0.26828073092311217
Ni 2.457619523768215 4.456407312530715 3.5129577325141206 0.047777010273962875 -0.28274447175692596 1.467310576423731
Ni 9.072259236731304 6.383416538778835 12.866642172793183 1.262131144836478 -0.7584664337182744 0.15357559136803228
Ni 3.498142487769773 2.8396570699654404 9.050712591856296 0.40746560078711114 2.7924597168536422 0.9948343750931901
Ni 4.197696264634057 5.956443837831228 8.27741883437379 0.029398764877091303 1.3322800950477378 -0.6275101224116547
Ni 8.040730775748788 6.263050847806446 3.4864785881122637 0.12018904548778656 -0.44256887224814745 0.29784970282948053
Ni 3.8641711262051714 6.218283814607822 11.868091688196584 1.1545397335080438 -2.9898996137047926 3.204042682243237
Ni 5.428644906259972 3.8628635141359435 7.589672794494631 -0.4517369119006607 0.11088113782329936 -0.862183963913599
Ni 0.09652698894175173 3.769845595582826 3.0056444120245556 -0.5394354409599097 -0.6646247678757651 -2.0387984178334952
Ni 4.3717020707034 8.552623540506511 12.262707528491159 -0.435365926741805 0.820567316814077 -0.6358914044968145
Ni 8.667366499581222 7.7810483588864185 1.7011145712459688 -0.18125223134769428 -0.007605837371715933 1.193279316170087
Ni 7.322954490691197 5.207396944146683 0.8707837093123814 -1.185555722273584 0.9701574411718002 0.5119770876386408
Ni 2.60037340138302 9.067916096644225 11.030588574063284 -0.5414244463654805 2.0744053684038275 -1.6316320934543578
Ni 2.697192735023106 1.457903396412762 13.323648854953703 1.3143155401495172 -0.18077452038032737 -0.10351826970032493
Ni 6.316326699541256 5.79938094814459 11.75620119145003 0.8450617024110156 0.6010686403906744 0.6104927619180519
P 0.7344081765695429 9.02179475094533 8.504247497996818 -0.35409721246829984 -0.3705301612133425 -0.06767606319073506
P 4.799244516909742 0.26706108496729536 9.57231064019355 0.11838001730350581 0.23296637189253425 2.3666315543989436
P 6.231920340472623 1.8356445029539543 12.674070143358051 -0.9878697708498988 1.3186000264574838 0.5394585808883612
P 7.581049092898075 7.61853085885386 5.307494648046046 2.006244909377506 -1.6850807001918011 2.4854440312541777
P 1.0664697234895155 0.9766274342473789 5.182590609184817 -2.3332905170446527 1.0097709417983642 0.8097900236929151
P 6.3493812646340855 7.2801021751653705 1.979794723456971 0.5173051847197736 -1.4341757415429752 -1.542102681833957
P 3.1560711704598643 3.3529695278268967 11.84292482590706 -1.934888054901074 1.005323447549972 -0.3408092371101421
P 6.953404639755094 1.1601134278186207 2.7341551921856833 -1.3528129248937668 1.2579106789972272 -1.4804306587454568
Ni 4.805250192341981 3.5250419360510246 13.161794501041967 0.09587617977403488 0.4545664109296558 -1.9097254395925172
Ni 1.006412969167139 7.342960955350378 10.518627626676237 -1.0207451814216808 -0.38257140864859274 -1.1936081602644155
Ni 6.377887207743244 2.93121793506999 0.9537619691996945 1.225091318474361 -1.1501675725822773 0.6774725703727107
Ni 5.660185643375325 6.375682947397975 6.1550719791641235 -0.722739155519994 0.5418067694055636 0.10594179154015304
Ni -0.06681991074614513 8.876061385829928 12.48762334245863 0.9108415770203023 0.1577528626741735 -1.0210457433812352
Ni 5.971929700765365 2.7196836626138188 5.3620379494793875 -2.8340275129931 -0.6305802766965463 0.22835278437992287
Ni 8.714188351745776 6.149456719335412 8.725882139679152 -0.6414958951677855 0.5213965811803278 -0.9544593137102529
Ni 5.140932890685092 0.708659426909212 3.7033012173798396 -1.8031316162906623 0.8571839395958463 -0.44759332204593244
Ni 1.0222444152910004 1.81422768527725 11.761806177183912 0.08160887122174333 0.6024302966248916 -1.2899486812693783
Ni 1.8838486878774048 1.7737103913036156 2.1696590619001803 -0.06590894398798326 -0.6705755861425613 0.07192378272349548
Ni 0.40144064128732 7.950533563230717 6.412002806629389 -1.9149278097290636 1.1017986943605862 -1.0054910834760877
Ni 5.015598273849637 4.614516291872735 2.6009394106072716 1.183624309578826 -1.1981032199212915 -0.36857072349412656
Ni 1.3376871468197122 4.827694419501649 11.428513606901623 2.2385152836442805 -0.03877609232693322 2.7338845875229114
Ni 7.310392074740404 7.695521189472733 7.514760633057209 0.1361946768874235 0.4380614712960971 -1.4068117477077255
Ni 3.04256110276471 2.4225661802267093 5.143014795901027 0.7800588151770694 1.9008019118506427 0.6426315514341254
Ni 0.9911606083882214 2.835734233757758 6.703846876343029 0.4939914496944977 -0.7170559890922876 -2.5247975933511353
Ni 2.6620366505333046 0.41019603809941885 6.688755165046903 -1.66280466240242 0.321964079379181 0.5823674644367454
Ni 2.323850809086243 5.136907313529113 9.361681422091008 -0.7363266643964416 -0.09421164758741839 0.8531830459665692
Ni 1.300831166639915 6.613248040117981 4.755164914056085 -1.3253928810096012 -1.575205635035513 -0.39899150187782895
Ni 7.069978255726723 3.3598438312765495 3.1329955534724827 0.6150251025707667 -1.2661631488140064 -0.43049497180274887
Ni 5.8923334860942465 2.3641626211632847 9.53567508604828 0.15657118366124648 -1.2016798815289562 -0.8882469795492379
Ni 6.7871230849804025 3.438795579999263 11.349131280204686 -0.41472819588679544 0.4241957690575985 0.0152731241089866
Ni 3.4354705093089417 6.176440228392542 2.165462561166581 -1.1785461237249701 0.14147675122196923 -2.1880491565739284
Ni 6.8599103768053284 8.40271515685579 3.623002628225822 0.28119486788161896 1.0094323275120227 -2.552137675926985
P 2.4698083362706567 7.637640675236999 3.310967160146068 -0.1529461853141495 1.1361905415768947 0.746550913227611
P 4.729511433275083 8.388630306852967 5.842982338584359 -0.5196970819907178 0.8075642196861899 -0.6434208801046403
P 9.376419144119824 4.791127981994323 0.9909224361898977 -0.9439098203291809 -1.1528566893786663 -0.4300226601520207
P 3.361945350673522 7.124216136341038 10.257842145632612 -1.4264122955474723 1.087254220887508 -3.9802857232186417
P 7.922868227880348 7.470172929513794 11.322911790199433 -0.3648133133342233 -0.16734024925229243 -0.8138600799972306
P 3.7641481429954777 2.8148591410811616 2.974476544345898 0.6607004931206943 -1.5038217839758874 1.14309112535147
P 4.114802999531244 1.8513732081295193 7.3233234240964435 -1.3724674658999008 1.630879274448733 -1.4624064542538944
P 0.748702244503441 3.4409718200859056 10.030480163087063 -0.8835860837384589 -0.4258315048888086 -0.719264309597516
