# total energy = -340877.1914272025 ev
CRYSTAL
PRIMVEC
9.21374902315453 0.00000000000000 0.00000000000000

0.00000000000000 9.21374902315453 0.00000000000000

0.00000000000000 0.00000000000000 13.48525303540970

PRIMCOORD
 96 1
Ni 6.9480235149468506 4.047194466838299 9.042617290164456 1.7936712422087109 1.7358237350726233 4.793198094590623
Ni 1.7327928920729863 3.8302014675656455 0.5442377173384192 -0.006346253933001974 -0.6667235593863228 -0.18897428258230034
Ni 0.23229427199534475 7.412497808451744 4.59458789315939 -1.2572820442742927 0.6891708326462453 -0.1200178100172449
Ni 8.029625492978221 4.145634159599925 6.362018952676035 0.5483949641460427 -0.19575968093524998 0.21167223840044835
Ni 3.4412614871700558 5.484751204366101 13.063946921218363 0.42985759532906614 0.6780898922417354 0.6104146003819488
Ni 0.3726178242998185 2.2868432519414625 1.9945905092753693 -0.974065775087271 0.7188045963522782 1.873042739459503
Ni 2.506683299610161 8.090058471714977 0.8199757365576817 0.5834753527889436 -0.5482964908949655 -0.3700822750426465
Ni 7.4780904865470275 8.647563987403895 4.518934722689862 0.6590909825417295 1.4629358443948033 -1.3070999962376841
Ni 5.207555570078054 8.865791629023054 8.850034275732066 1.8946037534597304 0.06288686933220783 -1.921009240036453
Ni 3.857925637868877 0.05978340944251258 5.007761875792121 1.5657984827890001 -0.11690934629525028 -0.02421027869761637
Ni 8.19923218189211 6.033669506122613 8.28357299615656 0.01143626686139966 -1.2529803315751453 0.5625727983083214
Ni 4.991539228183979 4.5234162901326975 3.1253690290679366 -0.35298701012325656 -0.5838209090538203 -0.3344362437042627
Ni 2.181152338831335 5.814971963311874 4.765405268672762 0.6066823870330261 0.809396130688606 -0.22841654773832273
Ni 7.222657727053343 3.5955180704923255 3.8159081789676383 -0.17571098981449096 0.24371949664398027 -0.33082898596897864
Ni 2.341572920137274 0.3400223449772052 10.146884169003044 -0.38712226124406873 0.1545883489032628 -0.18354951202230324
Ni 8.998368261290654 8.203839056319367 6.679043780512374 -0.9272773539788224 1.5858314901804753 1.4723404255381547
Ni 0.06635373375066635 4.537181630921341 2.2716718930776203 -0.2999829471223995 1.2441298231630509 1.1338112427114408
Ni 4.408769613135983 8.709913425902391 10.825893233586207 -0.2647056119773441 -0.1355765836874504 2.2604143977102167
Ni 6.181494892744432 0.016434563831796208 6.2809453337553975 -0.7323969903247323 -0.5776942273307921 1.0632100354541107
Ni 4.7636002952721626 7.251404623479425 6.368666672474566 0.28138538662587026 -1.5579399059765298 -0.43080119018925805
Ni 2.580033954240945 4.144058608545802 3.2469656368256117 -0.6677993089490047 -1.788314605882488 -0.18794301310430858
Ni 9.291236482380228 5.117094983824438 10.36255407394019 -0.9798096195495835 0.6611702336682613 1.0325082354948798
Ni 4.727519254757888 2.6509798204207007 8.445193207563356 0.0951441867040168 -0.9902675816581139 -0.13460342114090368
Ni 7.754420028442749 1.6857843454172567 5.701078970971459 -0.24082829113911428 0.3402448799662398 0.08289905078807659
P 3.496405774064321 6.206141670930256 10.216670024202017 0.5963604362817277 0.29186366044937473 1.20721778062805
P 0.5285365679154423 3.999633095251299 8.186506151974257 -1.1469583216163604 0.27572433168535093 -0.1489676602823757
P 2.904450051408375 5.828829441589063 6.769610324877816 0.05278834744562522 0.2932584839143723 0.9043302582643458
P 3.673162332089313 2.0616408024394373 10.36255407394019 0.6591033238369036 0.48819952560306884 0.7662841299904802
P 3.1568607012777794 5.488123436446853 1.7681865869227154 0.08305485963965051 0.7724730324100115 -0.5967278469234756
P 4.03070185638872 9.168518561386959 7.112634509231822 -0.41694474392214 0.6417203524737658 0.8058274395007412
P 5.9935067748657875 5.304908040474847 4.921834453974927 0.23960933113034866 -0.5999892912835667 0.3627913978081881
P 6.619562582032288 2.5186519593721743 1.8509186806371654 -0.40279082101926117 0.5201123151512657 -0.13051511000414298
Ni 0.5332236019577334 6.018715591731738 6.517125965017576 0.3699570623186919 -1.1700853945521268 0.3470768152864087
Ni 7.507731116611998 8.647066444965752 2.0256463711643935 0.7139428973846028 -0.03182717181292583 0.9161218515826351
Ni 6.95873910486465 8.238989508199337 13.25031249792373 -1.3581466784018545 0.5149279427368486 -0.4747868517415888
Ni 5.31091540472799 7.066963798909768 1.6141981236921121 -0.847606066099424 0.5187917965676291 -0.37544405357519206
Ni 4.008865271603522 2.390654560285269 1.743413580377584 0.14706787215650158 0.6706468057001289 0.05593357794282625
Ni 0.9379964883849196 9.21226544094819 2.504696815357128 -0.684987133582201 0.39774194574144406 0.8689431370143035
Ni 7.790906473906625 0.36796764525294545 8.203497226236866 0.4975316016372722 1.8989676868553813 0.4967728690943767
Ni 8.26471429500114 4.095363945849697 0.21217052312220122 1.0334580010026588 -0.5635053374249198 -0.8851284885249144
Ni 4.432172535226448 6.717071686159608 3.9021332048728343 -0.06691090288993637 1.019233886983477 0.09007088594616745
Ni 6.5469398135610115 5.0337013429422335 1.373554352484807 -0.220341226929356 -1.2426614661476405 -0.584140240066452
Ni 7.088791169946112 3.4026558794696435 11.647037273498643 1.5101225293829348 0.7007978753622124 -0.970682974657967
Ni 0.5329453467423272 1.6019392308411815 6.8801356920119074 1.0422334332024437 -0.054466249368680386 0.8063758558050436
Ni 5.691129964958354 2.2058728270079957 12.977721895313168 -0.6441114784137617 -0.6132636397949697 1.0688780323731655
Ni 5.910251340216401 4.8472427073734385 7.349071282712157 -0.95262586004594 0.630129819422689 -3.110147280344657
Ni 3.452290344548909 3.138728043532096 12.551790556016476 0.8035797811171451 -0.2316715643405107 -0.7869275172724447
Ni 2.6048557936550054 4.249049276742987 10.566531731580957 -1.5716140610295128 -0.15165420597560333 0.7121490387089736
Ni 5.499917034980631 0.4877399307374262 1.2996287599255012 0.08523052713473064 0.15800431656334724 -0.44775838686888697
Ni 8.367161968514479 6.6854869550863345 12.167177352082968 1.3492154373504959 0.09292506756551093 0.5171943701735221
Ni 1.3319763894039283 6.967519807523002 2.6145477360750684 0.9643372349455972 -2.4415095346547564 -0.9451087257332884
Ni 5.476412761652766 2.311314968899051 6.124718850928033 -0.5275235200136722 0.28538319493135367 -0.31002799006322734
Ni 3.6107852523442547 0.11692523708843605 2.689822221466675 -0.451413724233287 -0.42862063759817143 -0.635686230464544
Ni 7.335609074260826 6.219455538025029 3.3415244985697155 0.6063437727466847 0.496947446999028 -0.10320433800433193
Ni 1.8876944378150715 3.8653427056967606 6.525931544797834 -0.3759263925282494 0.11554640450945262 -0.2716223937018354
Ni 7.942445001316813 1.4553116315704495 0.31059639526054456 0.09860052068373341 0.07875340405081921 0.31450916576303256
P 3.838705757758362 2.4538608774272337 4.4340456903685705 0.5585618773767155 0.4874215097864638 -0.582918451844209
P 7.107273950148266 0.8737877153675839 11.873765519810975 -0.3672291218645675 0.10986992294996561 -0.20461173200924118
P 5.626790356707285 8.598537629749028 3.354510356205267 -0.2848743736157352 -1.6383118194673785 -0.5784750713608747
P 7.226573570316511 5.847321435540072 10.660591208137149 -0.4541491208865791 -0.4213670413595518 -0.8247278759496699
P 1.0464515261514011 9.159009972569102 8.500873734640953 -1.1030251105685196 0.916549683148673 -2.493531179137686
P 6.891718295696917 2.6329945826566905 7.773573569561513 0.23813377502608668 -3.8038183148541007 -2.9981410277779785
P 0.5200700540930296 3.7244092032181184 11.95524270093144 0.24360353989140626 0.12908891908057768 1.6903992841912372
P 7.978194346872326 6.740281119524129 1.0688455427422967 0.06122825068286229 -0.8367758082531396 -0.13402492292961435
Ni 0.1760572344869345 7.636004928164539 9.735745503492275 -0.1587514791420169 0.23072874081126712 0.7474299733984547
Ni 7.2640090319123995 6.7721883318073095 5.818360780140565 -0.04387767521955668 -0.9841154460137889 0.8130105875127419
Ni 5.368869885022882 6.575972336201585 11.799083478470715 -0.4637755882327496 -0.3200344664566359 0.3271294256302043
Ni 6.38029073802942 1.5875381413815768 9.83735748998451 0.20360823044539128 0.33511887159358417 0.947375153169962
Ni 2.21280156614659 2.5720732752306454 8.73116217351067 0.041643643682715385 -0.4289733929518999 0.171694155345614
Ni 3.061286484409908 1.8988430739290332 6.641891181006318 0.7350323710650503 -0.9285852741569685 -0.8426800895527164
Ni 5.704711030769908 6.303263797605686 9.206557523532819 -0.03165207968764226 0.9003213942152689 0.05416748718133897
Ni 1.3418811694225306 1.593121673187412 12.047104698385828 -0.15208589419638324 0.33018543884770873 0.5819342335540687
Ni 0.21281824966667356 8.417109701054798 0.362308560706503 -0.14355214569375924 0.3188859546744895 -1.1417176420427113
Ni 4.198005108088981 4.314651168587125 5.583973144405474 -0.8849351415671856 0.6933149367216059 0.12201272896008665
Ni 8.723632697946762 0.6823923531625404 10.465770174107996 0.7281556985498749 -0.4254635800264286 0.28827440043621966
Ni 5.864053603459869 1.43161386951664 3.8179582380877672 -0.5042486086461315 0.9102301686885486 -0.11035509011650026
Ni 3.825548524394116 4.718941254574335 8.540628296823524 -1.0365422963549376 0.9959579471746719 -1.5711533193430103
Ni 2.031659263666849 1.3465709675894781 4.2524933760648045 -1.0843254772764874 0.6264243455466436 0.3674396952134769
Ni 9.406684755527285 2.8555987549817425 10.045245462639134 -0.434258295499923 -0.9939954241316622 -0.630505714704869
Ni 2.044420305830351 8.057644503244797 6.316209114746278 1.4476760900222552 -0.05890474475600822 0.8758198095294787
Ni 1.5339141230483064 5.87189450373506 8.840594790030616 1.1666578569278165 -0.13894164350494137 -1.1095991642416116
Ni 0.3442173648306653 3.3222106382208834 4.426817504392204 0.792402681454403 -1.2677546616708424 0.9085072724601709
Ni 6.944789489098916 8.218415207007208 10.656140967440418 -0.11753309592217823 -0.05506634484652452 -0.4116495569614717
Ni 1.8236404557784918 6.513908523917579 11.715946901181551 -0.6491678098907465 0.39525028966784187 -0.560506402697596
Ni 3.462996720717854 0.8984059309319593 13.141743209671452 -0.2472380513202 -0.16869933438334817 0.46271603661998373
Ni 0.7783738177297813 5.985656660841742 0.5274217043040461 0.19499349219318676 0.3046708395163721 -0.831755986441045
Ni 3.4597258398745017 7.251395409730571 8.353102709137376 -0.5393742487046711 0.9988836054618991 0.4002153469826011
Ni 5.045071109028704 4.078622564181045 10.478162666317317 -0.11583591072541341 0.006248294902556981 1.379300429661334
P 4.403361142558383 8.216692235971413 13.296270677210044 1.6981843274532948 -0.8318326053152514 -0.8140426283216818
P 7.09185013456581 7.679641242739516 7.802876976418409 -2.0260573161177433 0.3923670545827759 -0.04900394070252851
P 1.0361136999366367 8.58398912030775 11.649599617055083 -0.938901568481312 -0.4959220910583072 0.6604737218218689
P 1.5518809333146082 1.192305170518354 0.7967626176936198 1.3430077658778872 -0.8942443347832534 -1.7264032130896716
P 5.407844042677475 4.377396798286364 12.817935219928419 -0.06244104004404085 0.3765221171307193 0.1393789881526761
P 0.08348577837074923 5.3635259106872635 4.362870401842337 -1.2494116403872806 -0.4330030829365833 -0.3393341952265123
P 9.038991679990206 1.2185551410048638 4.070739280661124 -0.23818262598615111 -0.45799986209123705 -0.7772033480061453
P 2.142251891167578 8.17473282368796 4.18156133050833 1.490674190850336 0.8203659994365483 -1.0026500144828667
