# total energy = -340855.5737841149 ev
CRYSTAL
PRIMVEC
9.42078099059969 0.00000000000000 0.00000000000000

0.00000000000000 9.42078099059969 0.00000000000000

0.00000000000000 0.00000000000000 13.78826524687808

PRIMCOORD
 96 1
Ni 1.086216045892511 1.0725747550473042 6.305097894386239 -2.0438233818519125 1.5890188867695212 -0.10980281715745606
Ni 5.560898591235311 9.233882096774062 10.02049752416633 0.41229721784779966 0.04583634160782429 0.13930648304352783
Ni 6.44525556327406 7.279126570092184 13.495637092700923 0.8195455604177821 0.9429865371839632 0.5162165796412851
Ni 4.843788743764904 8.718103759423073 0.5418870897324856 -0.3084069095200366 3.4121606276335235 0.8298708536031901
Ni 2.3708431598036013 0.45710194515465885 0.1972297020848851 -0.25947238860286276 -0.18161501400375174 -0.27092819584828826
Ni 7.760302378938722 7.763552548373527 2.187563750179754 -0.22157638488803774 0.016262998826081666 -1.191661835171322
Ni 0.23655581016791805 4.0927923471438 13.122526120288281 -0.8948698841823943 2.03978829255059 1.5643293544426413
Ni 7.251128009048016 4.341227762115452 4.146186507450001 0.7858625663430401 0.038872508695481436 -0.527709410772233
Ni 4.7672920022848775 1.7573147991032563 2.5702019583878073 -0.5784203068635393 -1.4017705857393923 -0.23371122047835877
Ni 4.659461743297143 7.755648513139322 11.967938756502754 0.1604664049505946 -0.2904097016116676 -0.05141537835749854
Ni 1.8297794463279327 0.15479285212541066 11.103979659421217 2.9840441833652798 2.566218322389768 0.6817246607808453
Ni 9.051109525166424 0.6521356631953328 1.5773364311314533 0.7848760340600547 0.6640071888964242 0.06270740633155009
Ni 1.9129837838589183 7.5135627045417515 2.328411020234612 -0.23835437567732498 1.8293414419168108 -2.184239810130167
Ni 7.5867715934630935 8.09932802372219 11.305895257960803 -0.6377562256196951 -0.3417456328814824 -0.6539822005602544
Ni 5.179149704750867 1.883534422545302 5.027863267302658 2.632263277734983 -1.4471703540304302 1.8476839489797403
Ni 7.224259941720303 0.3746597488041823 5.7679485154037895 -0.8933889287614937 0.5378321010285319 0.7564992826895746
Ni 1.8588990803075836 6.319855547776443 10.1097631921737 2.476804610411625 -3.132073390993787 0.4738429997710807
Ni 3.872553329616696 1.9763291151042024 9.912149122225221 1.9684682048493645 -1.860695016527428 -0.014200716980414254
Ni 4.9888122460239614 4.552733715682952 13.6681005036926 -0.36785904213908255 0.08108925127284745 0.05351854074343042
Ni 6.648782115359591 1.3798335263984252 1.0921916472620654 -0.657860452568738 -0.13168496194252804 0.8528991961775634
Ni 7.226869498049116 6.68988498273365 4.312210814648378 -0.3018197432208221 -0.15496295863386214 -0.020828506709577033
Ni 2.8840778862925704 0.9700201334030207 4.930545657799846 0.5367787200633529 0.005710163010899843 -0.8248422900403473
Ni 9.450833261742481 5.631846492723746 2.905863442286728 -1.096193432358667 1.2713472641181072 -2.95831463980966
Ni 5.762814189774896 2.6571972181813006 11.73221385921643 0.6965730386475875 0.9894052336578186 -0.5874561918135625
P 3.892553647616954 7.483199527474001 5.72811462722645 0.5605357132736347 -1.1277079580271805 0.11696565345448244
P 8.385437141794657 6.9998380974423196 9.455578509117295 -0.3131068860988672 -0.18548015338611282 2.483749931381206
P 2.0781206534898797 4.7697319845562225 8.328815421927981 -0.5909348943907823 1.3922371923276602 1.1142873137459004
P 1.2979763605462133 7.043512838021311 4.168468538601302 -0.8013565482135812 -1.1692574993341927 1.8181689702397592
P 8.060269465818719 1.2997097842447753 11.598206076146116 -3.6613537457975656 2.543674118540664 -0.8151973107514153
P 8.858963276493194 6.172222489188571 0.7469850280838879 -0.7796376684792508 -1.1575605226122387 1.714376620942441
P 4.843364808621234 4.000289698794983 6.091062461128173 -1.9032920252623482 0.08065293506637723 -0.5076077549263516
P 5.591487867046352 1.3819343605548347 7.871885877065082 -0.8951097681073423 -0.5468746708467742 -0.03325387695712338
Ni 8.58957604464327 5.487303450294181 11.296394400352108 -0.32705872029326905 1.2488940773209136 0.3056193194725704
Ni 5.47166495388324 9.112033715702305 4.00425019511496 0.611676497813508 -0.42558159366153153 -0.10657788246225516
Ni 9.26017549646258 8.093072625157813 5.662164450042838 -0.30010661718445736 1.188842620554972 -0.974837620256289
Ni 3.6037219238440272 6.798092072960202 3.4968139593133003 1.342258032196056 2.37169174253067 1.8081190422029247
Ni 0.5935120273724367 2.2081839555678675 11.777494842950881 0.16961001912307563 -0.9570856955895066 -0.26901375243439474
Ni 3.8918376682632 5.507690020314229 7.477059062437464 0.13342508456208635 0.6893194424089676 2.492341529704959
Ni 3.806193348460869 8.403440254229182 8.774755625788856 -1.4941608638473558 0.5087714362171496 -1.138546443403581
Ni 1.2263501628279065 6.571239667191844 6.3605128122106 1.0264910827665226 -1.8544737182080642 0.5473989187813605
Ni 9.00519263871647 0.562603387086498 9.871611501709388 0.4142607693320736 -0.014378637319175238 -1.3324490165254343
Ni 6.891141126605305 3.6608966435536687 1.8421809623974288 -0.6075205666636053 0.9297024184805471 -0.6739373035259426
Ni 0.6166805540130565 6.349983205319932 12.881714001277915 0.8551491685540046 0.5908356498087567 -3.025896600624692
Ni 8.369318185554224 1.3737948057963687 7.559002899474604 -0.6976431317833146 0.724594720671494 -0.9693303172848144
Ni 9.246524784836403 2.8501159708941093 2.4692987996476434 -0.3753476372066439 0.8145882164125068 0.9792753443126683
Ni 1.7939616370782943 5.471919314969441 0.934325736384095 -0.3488063963830057 0.4514510052291257 -0.06388111492467709
Ni 4.6762118918625974 2.2124609901284504 13.806327854559578 -0.4869486839151033 -0.6966154618497487 0.5071578118731267
Ni 8.483394422325363 2.2518021714610357 4.893882804497157 -1.3336476648192257 -0.11222813876949704 0.39211817179676345
Ni 2.3236356263606925 2.5198233900702465 2.295264002390095 -1.6536859879306036 -1.3826387500059478 1.470789536111267
Ni 4.9978467749746205 9.224819305480494 6.39037857204311 -1.1411926227771765 0.17170212576541397 1.048950183100987
Ni 3.1672665622641993 5.942280067261907 12.236961404129122 0.12518187071668765 -0.2676250996169842 0.05178793120556888
Ni 1.8010649059300108 4.133047344230519 11.70611264345971 2.614378941255394 0.47342673816926845 -1.558793769336393
Ni 5.380057279726616 3.6416594088120164 8.348739431602379 -0.7098587000129001 -0.3502667829786161 -1.1315574136802578
Ni 5.019326155587239 0.591113496537361 12.235389075785156 -0.536005075122122 -0.6034494819180253 -0.22302134486468045
Ni 0.3965555279356946 4.2197279499396 9.845221067976876 -0.2459458148713377 1.3038634915782576 -0.2451287182866811
Ni 2.665138936539387 3.4317361464475513 14.002948974193771 -0.8415408337419507 -0.049619719909656475 -2.287689945596718
P 0.6187776198570779 2.37588327762279 0.5012920024527335 1.5882940927883549 -1.1885076058130564 0.8559153572960679
P 3.8085673852654214 8.836607763250324 2.680038843722246 -0.3001909493681475 0.8130810357393609 -1.3748673335906452
P 7.691558940197373 9.278753276536301 13.983920880789663 -1.1919022333169023 -2.4175890192834166 -0.5474038038773669
P 4.060196444986055 3.6449755237136134 1.8248081002098278 0.7533267984988639 1.4585143182883398 0.4646574766170707
P 3.0752914776497278 2.2670732574141303 11.819838427178748 0.054789179925737896 -0.16715641537626053 1.4172378281370561
P 8.70177754600129 2.7045837464626477 9.022833993161727 0.5420191425266858 1.1836037407535356 1.046054606720747
P 6.2817861718748675 4.7672920022848775 11.720631951091363 -1.0564493196915097 -0.7477750154426993 -3.3783981864710975
P 2.295052976896357 7.6683838190100735 13.198127887576119 0.6168644697723505 1.3036799148125418 0.5170105362974902
Ni 0.39681836772477014 8.082370617975386 0.6628320179091781 0.30611399972080183 0.5921934493882317 0.050492609432913046
Ni 0.3785787936878881 4.8983821694886425 4.855799297424127 1.1039316815431892 -1.8255678338069914 1.2033850371455213
Ni 7.229008015329407 5.122257608470339 13.358926487570187 2.750391584038999 -0.1920395517711854 3.4088264210539685
Ni 7.2384759002047065 4.557359319139441 9.646973921547184 -0.17646406593043157 -0.27582511892927336 -0.2944553324359509
Ni 4.139764361062448 6.683507114016659 0.6752815799616234 -1.1858292876499448 -1.223779798751789 0.18077297771843062
Ni 0.623838463394402 7.9285010023850795 10.781830401668207 -2.8444998732793336 -1.6488916518657537 0.31824240755321964
Ni 8.058715036958594 2.61437034788965 13.431052928758024 -1.7623104685092423 -1.0080179636629996 -0.17705053456152087
Ni 3.72861321716924 3.1498569590308136 4.268832828669956 -2.7120482083741098 1.989826615920483 -0.37368387635097583
Ni 2.3178512668448383 3.455900449636747 6.65562348650033 -0.19638368767249406 -1.0128069004112104 -1.0045749994197215
Ni 4.893822511498947 5.081964928259739 3.56138493416284 2.097969528877013 -1.505019918049047 -0.5513378488244505
Ni 8.156333169374363 6.240673883719839 7.551157273082416 -0.18379942324958023 2.336910887406059 -0.7066268233391637
Ni 0.3473696304889921 0.4625528090241594 3.8212524668421284 0.2213447284932059 -0.21347869548156784 0.3504012516739514
Ni -0.23004793467353343 9.35759579247797 12.441495979778493 1.9263838740848047 -1.3520426223866457 1.7819210436513182
Ni 1.9518727677049226 2.8034925258713685 9.006191241499335 -0.7911135303293343 -1.1903449161321114 0.4469706008602689
Ni 5.779017933044066 5.9814799368799365 6.228766016573194 0.6178659144536713 0.30893064323399055 -2.27672110529004
Ni 6.714002182017994 2.084903615788601 9.535564707868778 0.3855682864933876 -0.7139459827083963 1.029231621626137
Ni 6.0074530300154585 6.292554124524088 8.396543300480717 -0.6712286463455278 0.31138450409112184 2.192753504028133
Ni 0.954504107144695 7.456642345918312 8.457707720931342 -0.783329001287909 1.621477778629175 -0.9853385197876127
Ni 3.0324175034532246 5.286518345471049 5.470963105700942 0.3318995933253381 0.9662658194268778 -2.5032676896991597
Ni 2.322297875462889 8.717237047573793 6.685598527392098 1.0563611308530776 -1.2586786675115031 0.397871786451089
Ni 2.3686952217423394 4.958854162537941 3.1543553819442023 -0.4851640812108547 -1.323672555884385 -0.2707443619722563
Ni 3.8112146247181173 4.241329800704834 10.062386084673324 -0.5718737639942731 1.797828201799878 0.24710486817644542
Ni 3.1811245310717267 1.4105735347049928 7.64359397596444 1.1506113449879152 -0.9687088816507317 -0.532691951588489
Ni 6.828568299399597 3.4711338524659596 6.207518387172447 0.8773033360535407 -0.9303107414885075 1.6133782894504924
P 1.7861047057489416 9.570477180067154 8.913672577822869 0.5001309869333322 -0.29724909313100417 -0.43176663942632093
P 6.710525913839899 2.1882590038153724 3.463984421787488 0.7806486262422685 0.5918664050661161 -0.2209292382223421
P 7.806746829123025 8.740845524685733 4.15131612268841 0.5641226592939446 -0.6152004518063663 -2.2845714545723945
P 8.305388765888772 8.737774350089367 7.38131378127862 -0.0734949838653573 -1.2165380295877113 1.4174993093285586
P 8.664019055871739 4.608071383103356 6.56321410388312 -0.32852347776425356 -2.076400287346669 -0.889622776850842
P 1.0278825701235046 2.6872118263531446 4.535359911417253 2.9880756731221765 -0.46086407101290955 -0.6742946868653613
P 4.672839252275177 6.9546748734699975 9.97592027277037 -0.103066526874887 -0.6298580538185411 0.6792841696601527
P 5.9271408722424 6.292205555628182 1.8972105702800994 0.6367694362263936 -0.4864470616883364 0.215442504076158
