# total energy = -340889.3125048078 ev
CRYSTAL
PRIMVEC
9.08623994915527 0.00000000000000 0.00000000000000
0.00000000000000 9.08623994915527 0.00000000000000
0.00000000000000 0.00000000000000 13.29863061680198
PRIMCOORD
 96 1
Ni 6.754592621968991 2.16047160643925 11.211689505281807 -1.136454593871559 0.5262420821980872 1.5264541766634228
Ni 4.885852920060702 0.5996863817828133 5.732055350750551 0.7211443002290484 -0.9415426056485849 0.3425817556295326
Ni 3.0216018206639634 1.8167845821491062 4.868788052900905 -0.7300274616512911 0.20616339276707718 -1.2002472628474876
Ni 3.6730852216316654 4.437864947936413 4.4793381813447395 -0.3273420558616427 -0.07967591586508858 1.1544759701496439
Ni 3.705750254079069 2.8368876496978213 2.5559565585382718 0.054342579306622535 0.6630975325979612 -0.5109293631004168
Ni 5.291162823365672 4.627958172924493 2.5185076207825063 -0.07564339766692779 0.8164445528949552 0.8993688004940124
Ni 5.330578932060202 3.0398469903870198 0.5487389260287547 0.0875540330615847 0.14085891513231225 -1.4855659230894933
Ni 5.766409515195722 8.127596161068396 12.299996615406311 0.1685422399801936 0.222408650981346 0.37007816127758847
Ni 2.1492319276805745 6.570977886030981 0.41554191805852136 -0.3912159716974682 1.4706123871034544 -1.7738040709711387
Ni 0.9323845075355742 8.956288498843254 0.01402642853659471 0.3617662989777834 0.6154231093401337 0.2978296482248226
Ni 7.895215575576779 8.746241891030557 7.328156972657773 0.38805017237497685 1.6021381977602989 0.015537176403650661
Ni 8.846017891393547 2.7451984028475414 1.3201670540697383 0.41034677898964816 -0.45446562368573346 1.1993792584202374
Ni 7.4189603111176154 0.6087907941645376 4.35179099734552 -1.4197721645231356 0.7298490270918979 1.895308492836239
Ni 1.218001372612544 7.684124050175361 2.2810741772814316 -1.091298823270527 -0.7956705535723975 0.8597329312699452
Ni 8.050535760460209 4.264417714448652 3.605538114200788 0.1703039598663067 -1.1550506117061914 -2.1057486586017995
Ni 7.910789390768671 3.9726767236777887 12.851384180366475 -0.9524212002343017 -0.4092162649296307 -2.8142040505092694
Ni 8.361239733906382 7.321455870730106 9.203729526972305 0.08923810563222695 0.6201379983172998 -0.4621678774259976
Ni 7.631151271547165 0.7276642535533834 0.23616136991480646 -1.830225130073345 -0.2599310734068362 0.06748631577743215
Ni 2.045594275359269 6.702964606846279 9.15649289159419 0.29757716589438427 0.6811435914663946 -1.241362544830559
Ni 0.15909460893868718 5.206279170201929 1.0420299816800296 0.779014175962639 -0.040887996463613456 1.8030295434951595
Ni 6.620806825653112 2.2536964278329545 6.874633663185232 0.4048803565584382 -1.227350546822183 -1.4635799057367052
Ni 3.7329271976257137 4.873068580518701 0.5411455553427197 1.4110751509697699 -1.7674519035008658 -2.3809595409858413
Ni 6.566080402723845 5.740032160760447 4.750775969054762 -1.663136334710226 0.7698811033131192 0.053423667036778956
Ni 5.581967931426638 3.248385282375998 9.014250531801595 -0.4428601782363212 0.4631004165425959 0.8930305169808103
P 0.20335186625296164 5.7463652699720855 12.231748050255005 1.1765643174082512 0.3653077364721386 0.4419726334250453
P 4.032800373108796 6.576202473974585 12.5390128818983 0.9160984545438674 0.07498982324332891 -0.8591109814152301
P 2.896229882497264 8.707234663131613 1.4562934657843507 -1.2929866967647539 0.5261770332881067 -1.964640089352526
P 6.664030068866548 8.13527403378552 5.676560231925581 -0.2866201526622483 -0.7425104246096503 -0.7077568231785488
P 5.031605294327409 1.3264365596020635 12.427810026234654 0.5987831867906075 0.15149685446213262 0.1783949644045573
P 4.362349208111552 6.100092589353852 7.673642163824507 0.45168189029300926 0.25381004811076285 1.2168663594614075
P 4.667901283533335 1.3054019142291173 3.616974964365335 1.744664730403021 -0.9267911583710232 -0.4280341689670822
P 0.6832125507052078 5.784300321562604 3.457217968537798 0.6036317731321604 0.1302849962712079 -1.4234015337456067
Ni 0.8466703720447972 0.17099485733823247 4.372576679745154 0.37873789383511547 -0.7964012610908349 1.1123718418907422
Ni 1.9301535974053687 6.8191230977524295 5.033398918084049 -0.14463175191118316 -0.02926069663733025 -0.9027544291367936
Ni 6.208155240507392 5.859189110834233 9.156266644220633 -0.1295702295923704 -0.15682803686705893 -0.4745906765703826
Ni 8.86012882196123 2.656771116122051 10.262752594516906 0.6002091206038567 0.5870232180412019 -0.201510210265782
Ni 2.493146107968266 5.261787009762762 6.956553384892968 -0.538380260222518 0.7600330068744459 -0.060463347492379735
Ni 0.6442552971257236 0.39921576220275057 9.098550848363633 0.00949482686431268 -0.41283869217356645 0.19136643696356076
Ni 1.7214971842976656 1.3919756080146162 11.222501222141105 -0.10082478202856184 -0.5141409280591791 0.9760519522793641
Ni 4.403200942710587 7.088439248445354 1.759621229678144 0.3479630745461039 0.055499575729201195 -1.351283375623118
Ni 5.597332763100785 7.9541852725402435 7.6536142738326935 -0.46759213376536246 0.8635412492724418 1.0920655262332224
Ni 5.554127692367153 2.9567260677642513 4.827376605923913 0.1429664483936183 0.2560847030775525 -0.22178927222979225
Ni 1.0319060931813098 7.949705756268596 7.04167782341411 -0.19813743713880716 -0.7625264627202609 -0.04753969745217619
Ni 5.780992930238305 4.5213038889557495 6.9709559837615025 -1.0985627039217918 0.9481611394063671 -0.17018671756215206
Ni 0.9859297192775919 7.5465129468607755 11.1979792778938 -0.3380514718593468 0.885805717097597 0.5095098570450709
Ni 4.82698317173616 0.5945808235819241 10.270027038182384 -0.6241010967301057 1.196551044942823 0.0279211518903003
Ni 8.443897258294152 7.143192930094328 4.485734894235692 0.6246459134899823 1.7061884287046938 1.4331128474960995
Ni 7.378771872031421 6.5345784089838865 7.024230425554443 1.2319939591314653 -2.157176378254472 -0.44276813274314714
Ni 2.749986851275853 5.390184665816801 2.3657334003195953 -2.26348378066416 0.43890016514730856 3.107618600385532
Ni 2.431505056473637 5.548494223627962 11.304607211766829 0.9242462804619824 -0.388534311100247 0.35172768379485875
Ni 1.4855275340447898 3.3687416161168375 3.5883296844505406 -0.8832631531814014 1.1499194611272132 -0.005186943517578164
Ni 1.7020526309075559 1.3328060137733098 2.3994451676037007 0.7712509870774524 -0.7523464368634655 -1.2106787425934569
Ni 1.1906427042678611 3.407939655053722 8.193339649878743 -0.06298611391423346 0.6870710126944232 -0.02398942093606191
Ni 3.8532108414473374 3.027535135319918 6.896723221010792 0.34755272648156277 -0.07872486480572893 0.6053592973462284
Ni 4.193263369776713 7.087021795020655 5.710963462066223 0.6069888625298515 0.9426607784134282 0.9928330283924449
Ni 8.170873921721244 7.222661184276524 0.1146765251781487 0.4889510590571128 1.237571967439875 0.15226947096209906
P 0.3870420179821575 5.72320444446209 7.878760395114401 0.024408253641035382 0.6351542692204739 -0.7040474926477616
P 8.719955398994301 1.6432192275426205 7.657537712222343 0.15914100127095174 1.2427848790993823 0.06540320799615833
P 2.05643415956226 3.3843972074678463 10.301331860516472 -0.06423155628556033 1.0857210720724335 -0.27721454307763227
P 4.52797318904376 6.275720520418073 3.849169281938963 -0.31595721106346875 -0.40307672769079617 -1.7926867668082545
P 7.253190950346977 4.271023410857349 10.560256078633568 -0.9016480834464924 0.09974209048734436 -0.7955628243499395
P 6.442671092375961 8.262472306172505 10.025385480567115 0.43842142573867715 -1.1028006532625394 -0.3555722543519296
P 2.6510831299434487 8.907604425448763 5.710698143861087 -0.6346017391511135 -1.0870729581146374 0.6099762272929494
P 7.047696548725143 4.216078918170435 1.4663074107802574 0.786974054239664 0.04593918573427572 0.6773668980327819
Ni 3.0097351913520556 1.8780440115678545 0.3013615015790176 -0.9786973603220113 0.14929007661880095 0.3566315488543793
Ni 1.758623560536913 1.4546434046181622 6.857811398630817 -0.970882749373599 -0.05296678200501846 0.0824064274223742
Ni 6.919853153305121 1.3356681793424146 9.001563415026544 1.0757001975013216 -1.782766165260433 0.6885673947342916
Ni 2.8356700935509638 1.803782172849458 9.02941092307795 1.3263223348024062 -0.31641512453649373 0.10809174800362029
Ni 6.369563206125108 2.24941680883915 2.478200151953597 1.486401017396279 -0.17402897412637772 0.8279391837981162
Ni 4.268470177444909 7.398834289734861 10.08880652645853 0.34569587577848204 -1.4531018890235168 0.16483368078035485
Ni 7.3735109391282085 6.4996781615206105 11.242130226201223 -0.30318319922725206 -0.7873126685260055 0.45858787338422313
Ni 7.912370396511606 3.9238654429246713 7.893840827479618 0.8327098657138821 0.7907980559714445 0.8005651626605375
Ni 3.3993077271468977 8.911884044442568 12.498877143003536 -0.2611094099856535 -1.5220611898020495 -0.6337442762468246
Ni 0.34113560812568444 5.387377017687108 10.062435532391186 -0.9118741320498747 -2.2864694429260557 0.23944169520423275
Ni 8.893566184800296 2.459545192810964 5.440775940966704 0.8262183444522674 -0.45921162301115104 0.6278335671893446
Ni 3.8158573092105423 2.947912415059388 11.651116422170508 0.07894829367044467 0.7078666092835357 -1.1449909134773442
Ni 1.3283174112617608 3.6495700327654945 12.448023275520468 -0.2041080528999452 0.04532469207872839 0.30612556968502763
Ni 3.2099595738307762 8.668890730745508 7.89058250185079 0.8318369761906256 -0.06198209812975132 0.13064083694872983
Ni 5.787008021053376 8.048473184002473 3.3910710506758073 0.33511604338010675 1.0895787552556266 1.793431872504395
Ni 3.222335032577192 8.496424811167154 3.568249094267296 1.0030485354728662 0.13370919146140844 0.9124413174072543
Ni 3.6659343508288535 4.722927552379366 9.213849780975062 -0.35310785197183703 -0.18208989675764123 0.08667780110421845
Ni 5.108311331579423 4.961223280047133 11.249458278682122 0.24186701681627376 0.32193322614124553 0.28866443678578674
Ni 8.328411149140742 9.014885659970739 2.419752005160503 0.5995923129554641 -0.7020564303596618 -1.0547783597469897
Ni 4.831898827523099 0.715910293616259 1.311541486530845 0.8561285017481384 -1.5618906630941618 0.37310075015399613
Ni 6.1620698317248515 5.786390156740046 0.22959656158566888 -0.5738108331159859 0.5068521077072496 -0.08325591990686307
Ni 8.065982368293474 0.09611697155448586 11.103997572716267 0.8380153370871954 -0.13295200158040976 0.24319936247445215
Ni 0.3541616416490777 4.929094335753943 5.4258808678954855 -0.18568044232237702 0.880948903225928 1.8994155730260773
Ni 7.538071829991891 6.453529149058756 2.508547284602021 -0.3318633407707639 -0.8534499264747109 -1.2914332362347047
P 8.94553039079938 1.7912885929843174 3.330349526659252 -1.31376146741826 0.9115460592864947 0.23846184778946675
P 1.960428948758568 3.533656870336695 1.3482417181186923 0.11716902771454016 -0.10818919281343302 -0.25348943154655057
P 4.977596684350394 1.2577536721834461 7.95166384096746 -1.2475015678487613 0.3598716530582319 0.3449083468801802
P 9.065005359269733 1.844497613849964 12.545742151169662 0.15648119505060148 -0.14044702440587425 -1.2989156606546792
P 6.637243833635687 8.138808581107366 1.4141360385114101 -0.8825136766098866 -0.2844627399996133 -1.3638455285588447
P 1.9689427555466674 3.552111023577495 5.779465533310792 0.566492959298334 -1.3706936618289296 0.3620792022325119
P 7.430681560591093 3.9910672732392753 5.651399525013173 -1.3807962974805703 -0.014177834162278809 0.6642732980736173
P 2.5617017880282567 8.776162879027583 10.105736008643788 0.06796891184080553 -0.06264235742156954 -0.1344319285600459
