# total energy = -340871.26295470167 ev
CRYSTAL
PRIMVEC
9.21558368163330 0.00000000000000 0.00000000000000
0.00000000000000 9.21558368163330 0.00000000000000
0.00000000000000 0.00000000000000 13.48793824354290
PRIMCOORD
 96 1
Ni 6.944264721635896 6.109194621705519 5.204239987329387 -0.8438638254481725 -1.45968648421957 -0.1512978510774491
Ni 6.246027605690139 3.073185142796252 7.406874112116116 0.5515255393552244 -0.5944210531671699 1.2730475346386656
Ni 3.552533719167477 7.5246160932974915 4.016100608774582 -0.27160799552413223 0.06378032768075467 -1.685413915161504
Ni 8.409818967532578 7.143339756659855 8.25254121152682 -0.7222614445526271 0.8190002294372734 -1.0678033112517482
Ni 2.5360825045559805 5.363018040330882 10.002222955795444 -0.06811315072815367 1.0981122466479347 0.2996415046225807
Ni 4.685746376874685 7.414895356004869 5.904534021515001 3.085624612612944 0.5499368547118658 1.1213339361800365
Ni 0.899734927874994 7.394869893033521 12.825127595342243 -0.8598602008764288 -0.5002443725827449 0.425244522037087
Ni 3.7826837017935464 1.010037168487218 12.062667999460439 0.5066898710977726 -0.2877969465791689 -0.17061712023135134
Ni 9.078907192830213 4.4312949005277495 4.5655862265797875 0.19542492330365055 -0.25562267583946946 -0.2335279008229591
Ni 0.21191879376448683 7.231661909037858 1.6703466289314208 0.7978153678295422 0.7265898967246519 -0.1267348170261043
Ni 9.494815692305552 -0.0225929245377621 9.282318159896517 -0.9232060121229262 1.0607795716357473 -0.20090651524351205
Ni 5.45763443624751 5.879874041595521 12.442933386586823 1.1303417961056015 0.6618970845319568 -0.24235141265186003
Ni 8.740289792269138 2.7855299190559575 7.660380069594732 0.12460645782919184 0.7954694933051848 -0.217511985010677
Ni 4.692160422998965 6.607849845534164 9.992161381717157 0.3094062973188284 0.3168851221943768 0.3438999602203238
Ni 6.26889146838315 5.834431999298366 7.7788040039559885 0.6245006461613696 1.0612937922680044 -1.00286033072146
Ni 2.547758648865551 6.92852450499758 6.274183977994031 -2.7537067644551607 -0.5026596668924569 -1.181700610193552
Ni 0.42698655241498823 0.025194483763170093 4.400560929515579 0.13258510515929423 1.2818574196208117 -0.6227368693927274
Ni 6.825632515087271 3.335985937804965 5.162130300030134 1.807743661141377 2.0188602841486714 1.155091492246456
Ni 4.4574210797839715 1.1814193750579318 0.9907627755720894 -2.076675395384927 1.194139864398169 -0.00829720701178571
Ni 1.5703907239280015 1.5082592598908044 7.603973326035123 0.47129066566287214 0.44262389385579903 0.04720365426899612
Ni 8.10517020779635 5.617764415350199 2.7516064345903204 0.46303588185324773 -1.4434358266886624 -0.876744121115961
Ni 0.0647910814387299 6.452189424434744 5.879095324788766 0.4478614881056545 1.6751577846511343 -0.6169495732869891
Ni 4.025514327331983 2.855706587499039 6.761746403949409 -0.8409749339361516 -0.9171796034231882 1.059460852824324
Ni 7.3854884290184115 7.514193268345538 11.970328774229602 -1.0072785143938137 -0.0881531000981643 -0.15511311105848125
P 1.9964363652664252 9.040782323841503 5.649975644399326 2.3261821881346454 -0.31135905016982507 1.5946406038316732
P -0.3118995808433883 2.256739737143415 4.462322848653949 0.5103133267829727 -1.3911822687005846 0.852142777627513
P 4.287273761403853 7.013879239484752 1.5603927373759465 -0.8489283844552735 0.7404162610847829 0.1111755291352666
P 0.6532945582749481 6.708032453891977 3.7510760934644485 1.2736214048642647 -0.32768272703051304 0.13013715783943391
P 3.910135221763056 6.275959820936773 7.658289053695882 1.5833483187473052 0.6713361184576696 1.2721224517212348
P 4.910892297653795 0.9923248169773556 8.112455126562502 0.025264430993743585 0.7787627220734653 0.06296194554451737
P 3.6259634885902576 3.0605966557190034 13.108185164468454 1.1126353799647741 0.5505549479118389 0.8939180617920863
P 5.941775116044921 8.379011271852313 4.294909793901808 -0.9269297408314165 -0.8700993621059337 0.6686441734478032
Ni 8.242915534548645 0.7062417717841903 2.5644213454134093 1.2861915282197915 -0.6659064628016661 -1.0507851794271967
Ni 5.487953706001645 3.1351046484126757 1.807437649254373 0.48023167690624385 -0.9952501224743698 0.9390926014461956
Ni 2.056945886605529 2.036865130133109 5.286462344980867 -0.26804187543942865 -0.9364145403934001 0.9145066845767154
Ni 7.212327614829902 8.17567863724586 6.338143813799988 -1.1209045619521019 0.40966826486538477 -0.4416355618006007
Ni 6.687472487076939 1.5307452836598285 0.5736599364736088 2.701899292865566 1.869874883254483 2.392292192389841
Ni 2.194184356264671 1.5633500181249134 0.4572938419105577 -0.15782356801110883 -1.0493186221839992 0.3260379923382385
Ni 0.1304493492859291 8.858184752136813 6.837926103492139 2.0079539216488125 -0.8175537267987338 0.04687635283656443
Ni 7.734989433707034 2.9542119596576857 2.854344524255981 -0.5145368779460171 1.4004986610055041 -0.7810823713455773
Ni 8.466504021714245 0.24046959304268914 12.021893650212059 1.1632190064495969 2.134628317750627 -0.2955465086176007
Ni 3.2165519754908045 8.91895230981425 7.5636579128456365 -0.43583258196557845 -0.4633621548444149 -1.5719645023903959
Ni 5.611046254970028 8.18375148840228 8.297280104802018 -0.022235414359432673 -0.6004389772264757 -0.4610551039777931
Ni 3.522684444172449 9.09693287417948 9.76000700967725 1.4714469671896078 -1.1278622242168577 1.0014117712003914
Ni 6.826507995520901 9.355383913770577 9.985403594327883 -0.2333615504484239 -0.4551418238171517 0.8633296474822679
Ni 7.59239671002748 8.524276514750316 0.58788511118257 1.0019720145792357 0.4114780643806139 1.2598210086460626
Ni 2.4386092777506656 1.8902175497083218 9.880211394773006 0.08972532968129064 0.6344549291606041 0.36760913091180564
Ni 4.621615131215407 4.908099975849692 0.9944655970271689 -0.38504095323500787 1.275753620715919 -0.6675918209238889
Ni 5.337195975330553 8.425835651676252 13.664494921864218 -0.36901346745849994 -0.6644807860987331 -1.2282195796906976
Ni 6.318425229759586 7.0005074278089925 2.274579263705742 -0.9377661693252882 0.15954672134980263 -0.12403772980991541
Ni 8.506554947656943 3.092934138262243 12.436417969043912 -0.012827233671655329 -0.990539604372578 -1.7993227840675337
Ni 6.935906187390607 1.1207163264650786 4.619416292989469 0.9757123095517584 -1.204168452278765 0.7912032618296633
Ni 5.956547696414488 0.31435737696601074 2.4311197730305483 -0.22239862367901697 -0.5865444786325704 1.2029060406265735
Ni 1.5341089716416703 1.9125376929741318 3.1280012766417067 -1.2032940200936115 0.30923711873081583 -2.149607050547646
Ni 7.780698727926034 5.2591676297353365 11.454442252350415 -0.9968984567110701 -1.0375568536623807 0.8334863388685904
Ni 1.5725287393027612 4.1818567016112835 6.188455090816276 0.22743618610292446 -0.09298754537233017 0.9516282720193611
P 8.302973492295667 4.801125482443612 6.74440083266332 -0.9785721475980567 -0.4898198348153112 1.0277743203543201
P 6.122400552878065 3.8819355362166568 10.176567972465232 1.7303513991041426 0.25633872806988756 0.0016164525575004419
P 7.7134249682892 6.415529833224426 0.2989424704256637 0.203247761782179 -1.7822295760306723 0.6584556629505757
P 0.531379760879385 1.6715501841380742 10.774866693016243 -1.527476190170034 0.34342841990054396 0.5512383471321087
P 0.5946797609058904 3.948518127090099 2.318252835526964 0.171776173536459 1.1236625843132133 0.5039760717110353
P 2.573811103453679 3.6349763292648913 8.616796365417988 -0.16603001508130116 -0.3748025633364513 -1.425407508432042
P 7.132400859031236 7.131184402007666 9.925166854260732 -1.4676134523761306 -0.49037005089182645 -0.6568659498659527
P 3.6714516088049716 1.433797345114692 3.346222607969979 -1.5296526289960624 -2.0452328606049295 -1.7541790976513594
Ni 6.083612161876498 3.4091853176399485 12.468466082264877 -0.7594676212892791 -0.835429064417258 -0.7220117904356661
Ni 2.4778860946783623 5.903945145728591 1.5190120027324836 -0.23429743199913197 1.6405229681860845 -0.45410798323599855
Ni 7.862938595186186 4.916025377669921 9.126855873842603 -0.8469478636901351 -0.5454955311110605 -0.6293194077062516
Ni 9.370958249905682 6.768873736237508 10.410246602018006 -0.04287365943507455 -0.2319952662285166 1.0914304637523846
Ni 4.847691825929219 5.013452526557677 6.059361353864947 -0.33066032160159825 -0.5831110274709893 -0.7501820822222951
Ni 0.6490756641432026 4.031218773525846 9.616427297003574 0.238146373431577 -2.318850687470239 0.46733322367702096
Ni 4.241343293180567 3.891925228743551 11.1074653959857 -1.9832196521269265 0.6833758232310231 0.2110806275630365
Ni 4.591415664046927 4.528500875411219 8.69405520978996 -0.7322321826120937 -1.278219051537276 0.1847494458676754
Ni 2.2730973978770286 5.1387568155689145 3.697097656160225 -0.5529728133247122 0.4066009387939707 0.9047686313533452
Ni 2.364921471989552 8.97945261556984 2.460969048025577 -0.29851124767287945 0.02111132805731848 0.007075418789542654
Ni 9.363032848085451 2.407884522322007 0.9576871247895465 -1.1529819021026209 -0.6487944857117278 0.32080734006691847
Ni 7.672028567153767 2.2657157154840006 9.809548143520498 0.8724143833923556 0.6930020334668775 0.3964707923385043
Ni 3.208654220421111 5.517102596649768 12.442407176768294 -2.002095920206139 0.9101406942985357 0.5526437121200676
Ni 2.9291179257547957 8.470623387544062 13.71723294162774 -0.2605717923146287 -1.3810230687793956 -0.5599271331553582
Ni 2.7105611471866906 3.5774526569836413 1.7748236992057758 0.4185676242375436 -0.830758398414466 -0.2624733802127157
Ni 0.7357731091480583 4.983382077558363 0.21352599152896132 -0.8149083187560869 -0.15269910230034994 0.6170657871498791
Ni 7.368669989109202 4.154661514667682 0.6723910904282971 0.6735413536391045 1.6826294104378312 0.826101873479061
Ni 1.6734854566755724 8.811166845059123 11.152177564068712 0.4100783558196099 0.390845732842243 0.7810000960444163
Ni 8.03242239155345 7.768386708354142 3.8874261808730437 -1.0568313856212768 0.5829487908615122 -0.21145600862458422
Ni 5.055595389957572 2.657995458834841 4.074895110022122 0.030211490586373776 0.9737546716047552 0.43532376064996
Ni 1.651893344507202 3.1222949873311414 12.183263125297099 0.5196369181767437 0.00808740499382478 -0.7648132018719086
Ni 4.978350368960868 1.947943964826833 10.141040976468526 1.0494106676771733 -1.1460764332320392 -0.9973465999920824
Ni 1.0072448466831139 5.7671766708285555 7.885992298899543 1.104273381153324 -0.25588595680318516 1.4555423801442096
Ni 4.662394088255543 0.6821909419348465 5.632617171296321 -0.547245938143264 -0.24799241298772126 -0.08627439501821271
P 0.48295094796602495 9.292994413395048 0.7885544421540865 0.644326165527729 0.19415942632766564 -0.300575843511392
P 3.811546909352802 7.809856834157671 11.713950319370328 -0.26285004682584406 -0.3158242850300303 0.3716573328392503
P 3.343773105872517 3.765773106049219 4.9592851697914595 0.21285597429590436 0.7194265462069932 -0.42229366693887915
P 6.287036952318071 4.6818021071315945 3.4243449525170164 -0.7969992996861499 -0.3026039296850143 -0.08129879618049225
P 1.6422354129867358 7.550502667382406 9.203171042462957 1.6753732430960502 0.6126463179259449 -1.3014435692828554
P 7.796116399141435 0.9614065342949475 7.057401675736379 -1.32175554136733 0.9752865348682493 -0.029091775159633765
P 6.2971003695130605 0.9643370898517302 12.267184836548171 -0.9435915177578137 -1.212108533061448 -4.017265128656469
P 0.7307349496421053 4.988773193912821 11.568347786115789 0.7939237460846198 0.7758082674308315 -0.009230774569648619
