# total energy = -340890.5616967184 ev
CRYSTAL
PRIMVEC
9.11179785335774 0.00000000000000 0.00000000000000
0.00000000000000 9.11179785335774 0.00000000000000
0.00000000000000 0.00000000000000 13.33603719302930
PRIMCOORD
 96 1
Ni 6.80817113460201 2.202303249932462 11.27972656713861 0.21347072506176784 -0.7452316801955553 0.6085592923407649
Ni 4.592537324819442 0.6022961978701135 6.000616206331754 0.2703381276727731 -1.4543694428820308 0.32558470685090374
Ni 3.0841339073032867 1.8515172669458424 4.717450046575514 -0.9921108055144396 0.32136475523228525 -0.2416194195818419
Ni 3.312019964617832 4.483961144932992 4.693111524076798 -0.22013348179392409 -0.23310006925692114 -0.2814296096002444
Ni 3.861935171776865 2.6811191006250654 2.340727856310355 0.827639136059194 0.9010317900187321 0.13510864291209634
Ni 5.035899171153353 5.067025071664608 2.310948679480471 -1.6021608234681182 -1.5852792172214312 -0.18632116123016942
Ni 5.397282174718013 4.7195922301850555 11.66448497619846 0.514762620803578 -0.3473861189967114 -0.6359256001688596
Ni 5.868781251959055 8.06196359252039 12.04525515146037 1.0189685491372322 0.021200545337015098 1.0582385503814484
Ni 2.156006206461242 6.8252739786475685 -0.032591077561082135 0.0007744162721793114 -0.16674760997361607 0.7210447985367066
Ni 2.8000553943526447 1.493651417244573 0.2806397205463837 0.48635295931263334 0.6957952799412985 -0.44853280314106625
Ni 7.945851956040613 8.794014521377163 6.713080415124418 0.11030418227390681 1.1273924836692906 0.867814679836815
Ni 8.81086223509066 2.4229454281760328 1.2409812705299657 0.0844748799156287 1.123090513859827 1.3213441648615243
Ni 6.9027060344276165 0.8009488750294304 4.8179768644854875 -0.8094688929080704 -0.5928567940038434 -0.853480265492014
Ni 0.833079806813048 7.65592366904775 2.5470900253966544 0.8083370932964723 1.4011476074434126 -1.117735677305817
Ni 7.814150033912487 4.2139603592334876 3.573884826263911 0.14083089010785424 -0.8839246980248002 0.7396253897523714
Ni 7.946353104907158 3.9885709344540956 12.522471881678817 -0.020682982270648253 -0.1290657791521261 -0.04995370621030752
Ni 8.398298264555356 7.306240213567531 9.18567511709898 0.15357250604423872 0.6389278773302932 0.06526822508019083
Ni 7.155913777199063 0.7680197497783694 0.19694694865354778 -1.4520870746057573 -0.39965793181723425 0.34130237469647673
Ni 1.798787294387695 6.7688263926794106 8.84092570000484 0.3143538711320909 0.05251941005495471 0.4042103270746071
Ni -0.31477798133545504 4.8857823061290775 1.2315879184113907 0.8476181502842821 1.0176989383961894 0.6158090319246426
Ni 6.288270188650259 2.133226712527361 6.908373572518366 0.6252899748318844 0.017280127236686368 -0.45102805875909424
Ni 3.6439718620199186 4.633148606604764 0.08000067151603249 0.015952666674514462 -0.34183767837465645 1.1400909050725654
Ni 5.930258550187813 5.848717073702092 4.644194838803182 0.15104254053353341 -0.6893222706224451 0.6081638566745591
Ni 5.757325744039362 2.830479686450736 9.199918679065958 -0.5020963381898191 1.3144875469510071 0.9420426852134549
P 0.2506874195626023 5.786018794598478 12.477529762506784 0.5827873255829834 -0.9979808911419716 0.0690127797242876
P 4.259182210591028 6.509522857331258 12.440534953178403 -0.5225762033107257 -0.33919921231054484 -0.4296807034315697
P 2.5537088351540826 8.697475026085375 1.2262502273928035 -0.6343045196256689 -0.1925064641052749 0.3545615536992281
P 6.434942794191731 7.736544853978541 5.648571884100228 -0.4959272332646298 0.2629616327030439 -0.16979256744752694
P 4.957473929437787 0.9522739644119588 12.752972113717211 0.8770822211816701 1.8080187691796348 -1.1578906522581478
P 3.8614157993151723 6.0114811137584585 8.317672523725777 0.25862418166995454 0.5096826351775093 -0.405567869543766
P 4.879012240531928 1.2011718269311153 3.6576477589980634 0.523882066606343 0.05495810140343438 1.2072748591182305
P 0.33856341772145615 5.792479059078127 3.29705474828303 -1.4279048209325989 -1.6490937405742307 0.5102361936881341
Ni 0.7702238936114117 0.3355574357019412 4.782022622440007 0.5258613018199009 -1.0289511142712406 0.7872864432737603
Ni 1.8067327818718324 6.640468500260779 4.731118654115599 1.933613301953709 0.32943313406271657 -0.8519340040508167
Ni 5.8337372784911725 5.330410692325713 9.308220593845444 -0.11614829975950965 0.46685859803344754 -1.1694063662072312
Ni 8.947284068361887 2.3442468325332606 9.84299563815626 0.16948583484038554 0.5633502999042944 1.0328368224788922
Ni 2.4220160248235305 5.329800201888284 6.749235116716517 -0.3438120284922079 0.020822850282622204 1.299773123558968
Ni 0.7073944046227386 0.1294449298691571 8.956508852225351 -0.266684847190902 -0.8456057478399437 0.7272514415680508
Ni 1.5101073236624085 1.1349928411544044 11.44445328839232 0.0713879648246835 0.5575398638701043 -0.013189502107080508
Ni 4.4106111744658945 7.3300584524247965 1.3946025329010294 -1.4721519636764324 -0.44013609443693874 -0.07129874754498688
Ni 6.046351963072444 7.792837539387947 7.994794154347435 -0.9667468728283544 0.10073916429329101 -0.23735498787853312
Ni 5.403660433019501 3.395784719711499 4.432484955720964 0.35702467052773995 -1.049400126154212 0.2662253910559802
Ni 0.7210074301976259 7.577844675639979 6.624569324674687 1.187813407959509 -0.7499015748673988 1.3017083929084678
Ni 4.948480585232692 4.526267221066996 6.984549111413021 0.6664749337106264 0.2593605456153469 -0.5419350674533118
Ni 0.9022611298902444 7.53862749888341 11.331977259144388 1.1346262824135684 -0.7169063508883008 -0.8843203908013222
Ni 4.927924369906758 0.7023309787111156 10.47764418449103 0.22702609514869931 -0.5011550573224725 -0.4164706324991989
Ni 8.558392547922672 7.385640417623466 4.566485784376899 -1.736434629183745 0.09249003691062135 -0.11424825452331937
Ni 7.1823835491502335 5.939962614603646 6.906186741100713 0.150117971836735 0.2779514212436568 -0.38239683074394143
Ni 2.2696941047864554 5.679930135449609 2.2480153159994596 0.534935239096711 -1.1417898900415433 -0.15762842128116725
Ni 3.024214726459607 5.162097567547053 11.040904530376288 -0.9172878468662783 0.5990246133774523 0.08212900539127146
Ni 1.0608319207032617 3.380722918322417 3.852527240782172 0.24593013114205384 0.12406832593753471 -0.38220374089652887
Ni 1.7258200194186875 1.3465870044074377 2.5908986369505365 -0.5734359662750705 -0.3525550647921606 -0.20489223936413745
Ni 1.0284121449365622 3.5855743513710214 8.090119958202425 0.5637215672007839 0.18143606522372624 -0.09478114693764322
Ni 3.558585206958159 2.571659076373981 7.114135274144568 0.6255280589846195 0.14820352842284154 -1.1778424127897265
Ni 4.19367749783476 6.880828608453517 6.015792816370264 -0.0038741382434255857 0.8069376418457843 0.3536878928450231
Ni 0.41775951751174395 0.3061910233021393 0.5825418207306519 1.9945767290109584 -0.6936823473633538 -0.3771988314827697
P -0.09797733694889398 5.723147391340967 8.038976349601834 1.8729234402728194 -1.0384603393132568 -1.017360581220164
P 8.78385486708265 1.5755938128235294 7.748517755990189 0.025744713064271795 0.829940530498861 -0.7625609155026222
P 1.9284208384666246 3.2511440450289286 10.359193549574123 -0.18574574834267366 0.10014112569797592 0.4114150723531624
P 3.9355858315638885 6.2769624478614805 3.6223340763220038 -0.2936001835245073 1.3725307150376684 0.7917164540206558
P 7.256590028589243 4.149767745327811 10.385371744002937 0.4022994832051395 -0.20858125817995044 0.1973311391874279
P 6.661872112761054 8.088852507159944 10.051664003208426 -1.1543404730130442 -1.0391522231739587 1.3590349945440787
P 2.6465307170358607 8.55774561029495 5.598734907271683 -0.13444761228932972 0.07680707895772577 1.548559493202894
P 6.737135560718596 4.067406207060471 1.559156130000841 1.3344452210198567 -0.06782621561535415 -0.5624280452003411
Ni 5.580064834043474 2.938427152304611 0.039961610618328654 -0.39887066002924854 0.01787868005263372 0.7141349587907507
Ni 1.8732944631466326 0.9277176699512351 7.051295762178564 -0.7488186262158651 0.19441859352632324 -1.315105383040664
Ni 7.251378080377171 0.717314418641065 9.05298183139485 -0.7533275698298123 0.9203322901195569 -0.2544044871616522
Ni 2.8266071724819763 1.5927968866423963 9.174926840681218 -0.29460831307404745 -0.6145661606564771 1.06174502087281
Ni 6.623119637680735 2.106629375410162 2.579403193131743 0.34930004818997257 0.0011603388566883244 -0.14700590857031456
Ni 4.470147659811486 7.1088422309340915 10.123291843934123 -0.29276868876214746 0.7113833641875426 0.4451011517516979
Ni 8.440950588997154 7.43882598006029 13.414719146035726 -1.0798589568647015 -0.14322587270259204 0.6810222353971819
Ni 7.714466968457824 3.887703335314871 8.196368073808832 0.2652905379465367 -0.4036125455896082 -0.432470607471881
Ni 3.561856342287064 8.621509969714669 12.111028662245058 -2.232551866971994 -0.6524364533396892 0.23270180537723795
Ni 0.3548015521772839 5.057576137580835 10.29502007044335 0.10476036963754215 -0.712367839587999 0.17781183820757765
Ni 8.399255003300578 2.4695067137768856 5.661948002938202 1.6784752790601416 0.24590442011044103 0.6625596578166202
Ni 3.978693745884365 2.897187156486713 11.30595852117311 -0.5744235269993204 -1.1260064019550413 0.44892515348347845
Ni 1.4667533908074464 3.5857474755249186 12.854152247513209 -0.8042801496182794 0.24723676576861936 -0.8641562571486214
Ni 3.5656377382800883 8.538911524710416 8.166575229282588 0.07182530947241823 -0.4953741889746372 -0.2757497856066477
Ni 5.4982317800354 8.129199546815634 3.574831542031803 0.7996871309309582 -0.01710529222171893 0.19288621604219686
Ni 3.1164899004869717 8.44953390231144 3.499669235027327 -0.06138560219633299 0.21184167409877708 -0.785884163609595
Ni 3.5212723958944623 3.9054440051905774 8.96692454803168 0.1734648740927916 1.2581438780539558 0.34526290200612153
Ni 7.420684391091348 6.217662869252801 11.325029513494554 0.21180876397831264 0.2434947822276839 -0.26536998503422043
Ni 8.024942358979047 9.00110745662886 2.4453759402628465 -0.4069830047237377 0.3497700458478557 0.5810862837314766
Ni 4.852123325892375 0.600504818467153 1.54076578895814 0.23621084697176092 -0.7786470224312074 -0.14608108276320003
Ni 6.101332549631258 6.020091762465465 0.20841870179865024 0.9361252912877556 -0.5547723284272962 0.18106659769944947
Ni 8.294132194694505 8.960332162487212 11.363757386721424 -1.0519390905259818 1.1749118694064926 -0.24820170078505
Ni 0.2744801453866623 5.1152264808287 5.543256816565353 -1.2034842817275466 -1.0676367037668968 0.681744201164871
Ni 6.989149658007907 6.211776648020287 2.607781886674572 1.8794162470860147 1.2152900161132232 -0.6431308596680473
P 8.726696560903758 1.6037128201355122 3.6669035229732776 -1.0840200302209266 1.5357101480440518 -2.0947638774555215
P 2.029097089856805 3.436286659925939 1.6301707467498363 -0.7557089255777953 -0.02296329366439271 -0.4680173942282391
P 4.987898221535879 1.1506742447784881 8.32771463583159 -0.9644457354990035 -1.4459416238296516 -1.5647921530116728
P 8.774442380189171 1.8023226718462333 12.493866304376406 -0.01918325779667019 0.31841107192060003 -1.121564564133604
P 6.53622953601934 7.874861941145067 1.319260723484354 -0.0004836245046378768 0.9497935328034675 -0.3087840903537972
P 1.7453374898212366 3.3130678213387905 6.035756764853916 0.46383755181893666 -0.05111893016300228 -1.1136779622966755
P 6.960265259699747 4.018366512519612 5.904637086590741 -1.015263075261187 1.1837186690648454 -0.7283729567670036
P 2.447838859146978 8.649765653990254 10.125666378381789 0.5663705747878568 -0.24715731868093566 0.025645468482246154
