# total energy = -340890.5897324712 ev
CRYSTAL
PRIMVEC
9.09383041037223 0.00000000000000 0.00000000000000

0.00000000000000 9.09383041037223 0.00000000000000

0.00000000000000 0.00000000000000 13.30974002404260

PRIMCOORD
 96 1
Ni 6.565627343298083 2.0358812852320862 11.45231261102241 1.1173330425507595 0.6972379259250959 0.40609494569182963
Ni 4.464252291382618 0.19680867794524987 6.076189205657222 0.6823952044853087 0.637052000463819 -0.3655771880834414
Ni 2.6355921199264487 1.4855317620563828 4.804256970033203 0.22143086044910895 0.3153432316285537 0.7545676128845005
Ni 3.0009185693809592 4.205178156553017 4.667925901911772 0.7333701528712789 0.22818874799823283 0.32558856350564574
Ni 4.934057758530178 4.465416301676351 2.7434567706847885 0.2011515413747826 -0.3499860185134037 -0.4985214763543672
Ni 6.999493992626604 6.0000365603388 2.8056403830953616 0.8805305847415866 0.7292311910022409 -1.1111945337531894
Ni 5.290217626921533 4.626377100106761 11.640684942487216 0.36955468467395064 -0.9165730801874408 -0.07812708332072996
Ni 5.528094043042587 8.05185933029679 12.438844072751516 0.5951908414536589 -0.12932983144679017 1.0307727408610117
Ni 2.1278290046066552 6.440450767569575 0.22180670838623023 -1.4582502659936758 -0.9610313105008158 0.4910686196207478
Ni 2.9349701111765905 1.9775716445803468 0.4347478414962002 -0.030718512129779354 -2.283956703806531 -1.1061816539196303
Ni 0.4726909395397618 0.1594821416041505 4.734992901257776 0.4644096222723228 -1.8209732724577739 1.6472160639355435
Ni 8.615740473137151 2.303740060247211 1.5778959788641784 0.09884040460868138 1.9406750938964965 -0.6455548957285075
Ni 6.685356714605131 1.0140166547899006 5.054373681899303 0.16884331616038017 -0.9611899475658673 -1.0557898317306398
Ni 0.7777844032087462 7.48702333526235 2.4149594250474147 0.6663512636485684 -0.6321684471192726 -0.1165913008341992
Ni 7.6234489792201465 3.8020759355346687 3.7114077181001646 0.06499183149035258 -0.4767038662586435 0.3744114985456197
Ni 7.623194351968392 4.101754023188664 12.933393852471346 0.575846375488776 -0.7938039326773038 -1.213032587537614
Ni 7.920235228800646 9.018769943512142 6.986202450085029 -0.45939751376971205 0.11045587736042267 0.009794874603234744
Ni 6.872089428445246 0.9803603884062314 0.6736782325629085 -0.2955377668668523 -1.8122610893957565 -2.7665795066527705
Ni 2.216639352486394 6.343783350207131 9.280283043660333 -0.5923513151223346 0.7154968721352839 0.17597169967504533
Ni 0.12966710918980356 5.14375239418028 1.5701498541125953 -0.36080599194704316 -0.6193869790838881 -0.7025230855834352
Ni 6.384050831305993 2.219112874360579 7.0915490192001265 0.040282501669130624 -1.0549673358293443 0.263947650765397
Ni 3.519858002286684 4.333573948250133 0.5695247739988879 -0.33077165036848194 1.1655450834796122 -0.6730744413050149
Ni 5.9551676010475205 5.506969074977397 4.814319293392709 0.26594308392887106 1.5386594604803632 1.0631622129353109
Ni 5.165795839117868 2.6384657703391046 9.402572328230553 1.0654443241012683 0.8263381578595833 -0.06102256242995942
P 0.17546545794998594 5.693856383934649 12.335479958667936 0.7767240943768816 -0.018898893787031967 1.6634170991754385
P 4.119241459085933 6.148529717263666 12.545973942011937 -0.06585932169697044 0.9292537609789029 1.3463892807556104
P 2.4368009869496827 8.905015218790899 1.5048261420580664 1.2599814454833267 -1.0416937586488897 -0.671035042277483
P 6.356551088116526 7.741041300378543 5.886911128682607 -0.12172733650918391 0.47051264984626706 -0.2508026287430068
P 4.898337192641215 1.1046366749231793 12.51737111719255 -0.22714025212906042 -0.46307341995940243 2.4681983567998524
P 3.992218835782207 6.0693588296289125 8.147278164742595 1.6744666721213808 0.015432018284354067 0.8134782711777796
P 4.766431182402057 1.1672386035330629 4.006377929745831 -0.5234015274254985 -0.413289663668056 -0.17239169563327084
P 0.21650864278365642 5.673795394028577 3.679051869466526 -0.7179605031844281 0.2699915429666318 -2.143171836445264
Ni 1.0072053758054726 0.8724011618115256 2.643101805087117 2.0558291480635367 0.0647923138850368 -1.1986122983472263
Ni 1.8951906348074046 6.48057274738172 4.719087791853551 0.3991259705731643 0.5760662048090659 -0.17646689414390898
Ni 5.869831096388143 5.562541472672778 9.478850468408769 0.36771968834774094 -0.10793079694572381 -0.4557573459139635
Ni 8.803837261540236 2.521400891345056 10.166964247380065 -0.5451461181914418 -0.036868590891575216 0.09101653768888841
Ni 2.404617921094021 5.521901144526705 6.852692288159819 -1.9983580504302616 -1.5654434134424264 0.5524364812052679
Ni 0.5597288998706823 -0.016056976372235823 9.10537958443029 -0.3052696494426355 -0.024402340103764426 0.5214603445387277
Ni 1.1452588154084131 1.1336369001319124 11.299929113443953 1.2751962055505524 -0.3530340613111081 0.8053443292167357
Ni 4.164292294985609 6.914557616505698 1.8843262356048731 -0.318187128835252 0.3841148418763127 -1.5457631614046796
Ni 5.703514031840474 7.809381435983318 8.143883437846885 -0.5438513106394182 0.0686242860366173 -0.7098419878423518
Ni 5.245448699764872 3.1370623045957426 5.0638640033254045 -0.439142877285734 -0.5510717396472574 -0.5817385726034949
Ni 0.6360706968618374 7.598886543256275 6.780008029763507 1.21469583417265 -0.1397875364450044 0.6502813546698994
Ni 5.27735895070794 4.399922534992973 7.399802588939991 -0.3379321726726632 0.5408348924105976 -0.2357629608010649
Ni 8.025978288922047 7.218537085948259 8.982703812067225 0.8189225821218026 -0.010783977989381428 0.08033231850216488
Ni 4.9103228611345076 0.4864544518801248 10.493838344287505 -0.4703223882123319 -1.3265588762932443 -0.4739314457198289
Ni 8.25178719207603 7.328063179524295 4.6227386585558 -0.5902988034686801 0.16532656125637332 -0.49063667428965174
Ni 7.883596186039283 6.2682227132490365 6.662669426473823 -2.08913418997357 -1.5151228108110035 0.633894942892076
Ni 2.416749090874031 5.186911713352638 2.4921424013524005 -0.389867942310006 0.43994686124426813 0.7899822449383685
Ni 2.6464228719564273 4.974870869454227 11.42739642505521 -0.19953868836170796 0.9428034746388796 0.27640824512625295
Ni 1.000275877025587 3.1401178316167946 3.707973887733649 0.042577725461210546 0.14991536890762566 -0.7990204438812367
Ni 3.521958677113657 2.4857257946081917 2.7520013337472298 0.1611343775518967 0.0974016152796258 -0.11867595127736982
Ni 1.2303225051551956 3.4002650384359314 8.44475099851979 -1.5629682124290567 -0.3424411162866102 -2.162330411651586
Ni 3.7922182233596082 2.4798238986657437 7.214557625756555 -0.9052404287834411 0.05100323052074442 -1.1837199546164259
Ni 4.086794672148097 6.888812982587254 6.028500249552764 1.2497759657052347 0.12617920163295043 -1.0051226443930754
Ni 0.7545132911644853 7.369722016677386 11.068073722443849 -0.14255172945370287 0.5433175496231353 0.5368951910365591
P 0.40140076534680413 5.753757444909853 7.990223166477489 0.6681530927439976 -0.7845731581076553 0.6175890066432009
P 8.578246610316327 1.8043887380657302 7.913945026299273 0.37221500511493316 -1.0532637228746764 1.049844155670166
P 1.940186907724561 3.241532228458372 10.543457011207044 -0.802666011053624 -1.7554939598080412 0.1429664483936183
P 4.175714145992874 6.148793438345841 3.8685954862894003 -2.16499330319573 -0.22951106635408214 0.22730403140043434
P 7.208879438042434 3.981415365243488 10.498297049342332 -1.1380561340307238 0.9562917389333014 0.12032891349976049
P 6.376766673139736 7.741359584443236 10.22029683464305 0.16981185072123658 0.3530242911190952 1.0864193836910385
P 2.256761332298539 8.485680510473212 5.770105423855522 1.4838643670173541 -0.006619305088730536 -0.11248961996099982
P 6.866178438672378 4.022692261518947 1.5963173511455613 -0.1836888658136449 -0.22933288890500503 1.361886347949945
Ni 5.2790322155051825 2.968853723320755 0.3784934065193351 1.1080691007503305 -0.5404579686871531 0.027973345284474406
Ni 1.6800397009054238 0.8926631253698756 7.238036077134387 -0.7354419477986431 1.6450619937070186 -1.2596292043502306
Ni 7.024647527567764 0.7923408975617156 9.25446202156636 -0.0399117485932732 -0.19535190397387 -0.8385059035703688
Ni 2.798471716575435 1.432360135591829 9.361099914601068 -0.10548619205997316 -0.18365055637654176 0.3217473353826846
Ni 6.190570495294389 1.9932403143936575 2.516365637441614 0.5030286201961014 1.1654442962356895 2.3192525508943476
Ni 4.266807045307981 7.121142162152231 10.540608823519563 -0.6884648077181562 -0.28370503589798235 -0.5912403414463431
Ni 8.07603982538303 7.2304318161373535 0.40566213428152104 0.6860184030601927 0.27151954957538404 0.0010518383032820594
Ni 7.683586479786265 3.7402106071887884 8.335850560476635 0.26076205394856383 1.592429198002651 -0.2239106894481692
Ni 2.975292155257971 8.35227401821479 12.678591999172964 1.6588577619395302 1.172013464812775 -1.1124975688353294
Ni 0.3502816164079984 5.044502328978614 10.190496352357373 -0.8048221381646785 -0.5880652861524711 0.031219620135913978
Ni 8.87227742927963 2.222386653311706 5.732637933142916 -0.8987131691878845 0.45129468215691954 0.9765438043141182
Ni 3.8940964055525957 2.695456805579973 11.58711318748419 -0.9442643754551221 0.42470870413827505 -0.9309774285382288
Ni 0.9563344884371274 3.5337260936768744 12.835859793069895 0.09651921267467249 -0.21539982376368064 -0.45521844269135797
Ni 3.216442350330152 8.24470309817901 7.881202689872793 -0.31992493746196515 -0.20781121278314535 1.284779221253297
Ni 5.481733695562461 7.9678505248787035 3.7091051602378724 0.8908803034070268 0.5554562418681982 0.7568579515805739
Ni 3.0085846684248487 8.459435715881678 3.666673347499099 0.5145170804516751 -0.09317240768962663 -0.6447357422613219
Ni 3.285391772573054 3.99835717131557 8.986896067890752 1.7458536085047998 1.6324353060819434 0.6126990255407512
Ni 7.26957166226416 6.211959184441752 11.591172673383587 0.16310718500755136 -0.17030164587346155 -0.9683430136708807
Ni 0.8255697539156543 8.93858964070079 0.07334719863391587 -1.3272132220477917 -0.0949708943509461 0.486434463282846
Ni 4.664580281700329 0.4324180021426482 1.4914763990018043 -0.9810509481558524 -0.9805071598372403 -0.008945382118745883
Ni 6.057946072452067 5.741589899808164 0.4945979770210532 -1.245783813826706 0.8177923251721012 -0.312010824821211
Ni 7.928265081061326 8.992115926551715 11.341788924249322 0.2670661417897207 -0.5732032814389741 0.391605493826403
Ni 0.20399644150905755 4.65556829575431 5.445999488927868 -0.06894027461513934 -0.203813661587978 2.206781185765793
Ni 7.874220446876473 8.73912556427296 2.5017782240652178 -0.15564198697875775 0.42014808135078613 0.6736575675019947
P 8.386157630358953 1.505065309798107 3.6764164774108696 -2.50400816740961 1.6568710705268046 -0.5006809458995313
P 1.7902660194237852 3.2223169647813408 1.6062323544522663 -1.3965463612259756 1.1793765900460658 0.4614981050524826
P 4.761966111665936 0.8300539216956563 8.258401134940348 0.5226250542707902 0.16044892144909786 -0.5731508309344838
P 8.546509142151237 1.5416770710682102 12.728836321625387 0.4797328828929545 0.740890372507724 -0.5035706087425005
P 6.241814229709946 7.838727226748005 1.4586276647594127 -0.5004132940604414 -0.23150649951755617 -0.1225994547014921
P 1.752617561485825 3.0738692770085723 6.041171592859709 1.098974851758546 0.2642093890672159 0.7975428308944458
P 6.977596048975733 4.1638285096341985 6.054986940033466 1.4297153917787764 -1.025130969194202 0.44429742490348
P 2.515071585372877 8.519091243435549 10.3404963569828 -0.6000677099299858 0.1694192432685082 -0.24535291848234517
