# total energy = -340862.89467237995 ev
CRYSTAL
PRIMVEC
9.34240912663576 0.00000000000000 0.00000000000000
0.00000000000000 9.34240912663576 0.00000000000000
0.00000000000000 0.00000000000000 13.67356010201815
PRIMCOORD
 96 1
Ni 2.473804584904364 8.719298623849564 2.1617354159616315 -0.33455374311873354 -2.8815111603963603 1.8141475077851916
Ni 1.4783428471117686 7.189609895243064 12.404326020772235 1.5842183800570844 0.9737531289428585 -0.05391757595406198
Ni 3.621145870633612 6.791455095835775 6.182705574543855 -1.1763002651135872 0.46445744479112266 0.2759673009340925
Ni 3.443649436405374 2.7091585599071424 -0.05197836260411873 0.8079725108682021 -1.9653533133694667 0.22968204471430767
Ni 5.254311124610498 3.6250883673568253 12.583887127455048 1.7378345948550653 -0.26141794236500787 -0.5045165175955375
Ni 0.06860131146575907 5.046713447628252 3.684532249229947 -1.6848804112555371 -0.33527288067294514 0.21509206271527473
Ni 5.646645603025935 8.634833901397988 12.15668397482149 -0.07611416665575924 -2.3713382158459932 2.304402373255393
Ni 2.5097915455153004 2.6629042914791192 8.39186025737281 -1.114524883678003 1.3490475443140637 -1.31759215401826
Ni 2.467974921503215 6.098201613973232 1.5483118872985664 -1.8439723044561083 2.089571020400672 -0.6408443776267158
Ni 6.814521504389358 9.26889387795656 7.125155679264115 0.1533861010650455 1.9261969548849793 1.494031537358343
Ni 1.5652739656176773 3.4129969915028604 4.5263038801641855 0.0056350867985902955 -0.370035223854795 0.176119023886187
Ni 4.19276118345296 5.3165409129359 11.474769375122367 -1.1267155122069241 0.8008878361072788 -0.4972225550372856
Ni 3.355774734560497 4.699035685651101 7.240204647030339 -0.7045869100909994 -0.38645120331897315 0.51662204260982
Ni 3.0261465073445937 8.291743262385522 8.45590714430642 1.8954941264844842 0.6763736808815771 0.5489102132195643
Ni 9.195172926196202 0.5435507152920235 4.310877264191294 -0.7837995131664244 0.6972104151212702 1.3889626353414468
Ni 2.151958584632622 5.7130607907162645 4.1979611684675096 1.1465950247396706 1.1783738598131641 0.38085571150906666
Ni 1.5780356967169866 4.0431424985661115 11.212210304247563 -0.195449863004315 -0.19965490222459809 -1.1083249255148784
Ni 8.62584650365455 6.405277265146872 6.354541442979216 0.018679064466742026 -0.7200868054988115 -2.2281910189001373
Ni 2.4924894034977885 0.05935793170759184 6.518856671930723 -1.0898507779700908 -0.15748161129065782 0.9817477171125609
Ni 0.23836409927817925 5.05515898563248 8.684146874629754 -1.0277686639273655 -0.9456877381652099 -0.27182705351347375
Ni 2.0186984584243164 6.38044514123621 9.436151031595603 0.6787241833916247 -1.495019355192909 1.2832373306874738
Ni 5.634939564177156 5.705717657009048 6.801379537231673 0.36044758016635986 1.1429607704211928 0.05162749436830463
Ni 0.4091863163048466 2.8271251620967295 2.4716875949577286 0.059073409123388584 0.1364150204283457 -0.35712725754387525
Ni 2.370982028184747 9.307618164491434 0.11574404301789946 0.236271010785735 -0.14067122460153836 -2.8582719873627616
P 2.944185550584536 2.393431837724747 5.720634681933109 1.701524190459805 -0.8771858366390699 1.6080082833878309
P 3.8181772827012765 5.514721441347059 2.9534345357882814 3.004980676407631 -1.110569498574681 -0.0389342151713523
P 8.810966343868905 4.512486456814348 11.298175417632192 -1.0255917108807047 -0.16018281227190476 -0.24307029309575554
P 0.5290727836049084 4.730930670990077 1.292099115059018 0.43128507180421205 0.16482699591213548 1.6276219438537003
P 7.763962533986348 1.0727234626764066 12.689583409274332 1.305345475440423 0.3229372419257277 0.8993641725083221
P 1.5139000568950558 2.40285832870513 12.921705844901378 -0.2128022382398335 -1.3453883502949215 -1.0156615962511863
P 3.21336838965071 4.389624432153283 9.684135009726605 -0.3811187353624662 0.8549910457095857 -0.9244146877190468
P 5.682763357367026 1.420018185872393 2.504408449278534 0.022920870462231496 -0.9241784033385245 1.8873532425449044
Ni 5.205665199402517 3.567174772126505 1.8550371981235794 -0.37469586255525794 -0.0920748037500737 0.4893675777692411
Ni 8.971721180637436 3.3806722553362354 13.442969308575165 -0.7055240771932881 -0.5773255311374639 -0.3042298953242115
Ni 7.852883585672456 1.303733217356214 2.458848321861257 -0.855459500705572 1.3417062734576441 0.5150402999449968
Ni 4.336531520120067 4.40401174247022 4.911118653336699 -2.717074715054424 -0.1608178747527424 1.2041890211040553
Ni -0.011662129525086076 5.834315920978294 13.195860714195264 -1.6104958256963746 -1.4019940146041083 -0.26725306098954615
Ni 4.706276052856054 2.839494512005577 10.321541437295263 -0.7959870563715516 -0.6792725996959269 -0.13155769233604436
Ni 0.8066432377376709 7.661532358457193 4.093193522132318 0.11121923788900845 0.2728346688423817 0.06230040070111851
Ni 6.12096906542932 3.453515020622702 7.093104675689884 -0.7307782237743866 -0.8517892509428362 -0.4789517817525558
Ni 2.2480919762957927 1.5215421476997668 1.9995390454386186 0.5107869239852816 0.9308252192310807 -0.26444438789615743
Ni 1.1690997569812918 0.32234488492818625 11.427787333010132 0.05790869939132608 0.29870202352744685 0.7770899623567327
Ni 7.102333107593177 3.120392732329828 10.523062811270927 0.9560333430655922 1.1128904333983736 -0.23188290902036837
Ni 3.1470746532812393 8.01468477228222 10.997303126231568 1.177437464041824 -0.1786811281864084 -0.214432831864721
Ni 8.58375894977286 4.089462163859211 6.133412220371611 -0.06345276913800685 -1.4845004579394563 -0.37238366948231355
Ni 5.553847451481691 1.68095167752957 4.983151431737141 1.5757633073111956 -1.1636409244783636 1.6314498022402226
Ni 0.4579826543025051 0.06349661902603543 8.2397144507712 0.5147857607320295 2.7973543259417823 -0.4056707136702175
Ni 8.217181493788459 0.37956433914776067 10.07482989531047 -0.3402276535750592 0.831702250384974 -0.24936332519331889
Ni 8.953709015513374 6.6072694965510905 10.818001738527204 0.269174189271659 0.08639497975647702 -1.3140807984308918
Ni 5.011464537351757 7.845521767146647 1.0183711938699933 -0.051192463713415064 -0.31885407299528956 -0.009551134023544842
Ni 0.2979574597000482 7.769642718838749 0.7829807834709577 1.7833400354860318 1.143500959195379 -0.7403452986375314
Ni 6.208470070902329 3.7541537517909065 4.177846961251689 3.365555011959842 -0.06278916741207895 -0.8834359313138398
Ni 6.538798978815485 5.675485620524886 11.525881696384682 0.7638798914243619 0.08447462280531258 -0.6832899483854361
Ni 3.7794436537571072 0.8101316933690632 11.816321319323666 -1.5282590910826452 1.015305241353032 0.5404116888302499
Ni 5.222715096369018 6.965177196708142 9.626924897916329 -0.21345324156027112 0.4634210331068083 -0.46150710391354716
Ni 8.151261453790857 8.337007235428093 12.189883160498288 1.1532906915922914 0.4773602688957198 0.5120261957090214
P 4.421790347361864 0.5046059478977483 0.44412225586990256 -0.12718476007932936 0.09170636466706142 -0.757419994731631
P 3.344376995218508 1.306890951698503 9.589281528137086 0.6878210034865704 -2.9326725137615233 1.3658443041564283
P 7.264442593709729 5.835306216363746 4.202158712964523 1.1523573811447445 0.3268913414774693 0.6206159663949827
P 1.220286817517979 8.318406498518337 9.746294729982282 -0.1396003601348628 -1.0325573435652604 2.116311007498678
P 6.836569590329599 4.778016413845508 13.61004708795571 -0.7260350526624464 -1.56363078571372 0.8933619321783002
P 6.609492989963708 1.7075775440252003 8.866209878522225 -1.7388864331583471 -0.127579938635219 0.9114247032172819
P 8.94144243210679 8.815123716005942 2.537881367547725 0.30970403106490535 -1.4820067449833252 -0.7636896297904266
P 4.026821309524754 7.140281974156423 12.852900868912952 -0.856769734876563 -0.7143679007371632 -0.29197756031941974
Ni 0.6401157262647021 1.6790925380795243 6.490634187686284 1.3290957837824853 0.7860093763335495 -1.3526164926122446
Ni 4.5577410874476225 8.877269422647673 5.66120948487858 1.0214771744916988 1.6108956322379548 -2.424853157044998
Ni 5.28437499772732 0.07370226694176404 10.11913160019548 -0.2573028917553698 0.254124236917072 -3.72806950195756
Ni 7.891645241844516 2.0117477059075624 7.224754170535436 0.9414492746038302 -0.032615729152492216 3.6128719961470943
Ni 6.01539984037647 5.6526994842502045 2.478087145325977 -0.3244097127061962 1.3106306350987622 -1.1738893416792493
Ni 6.074527948815362 1.9268625750376336 0.5114913035494253 1.1519722298911836 -0.7252655214862735 -1.449565079514852
Ni 2.710401100343605 3.7603384267453306 1.7974711405190966 -0.6676720393425212 0.7171390357243972 2.1323230666562183
Ni 7.210172538105128 6.791389698970698 -0.01805981141147472 -0.9050087723886091 0.580005134852156 0.5174949321330765
Ni 8.458140914369265 7.582093852207248 8.15287395363547 -1.1951958164665093 -0.34396732312314954 2.6501167609766356
Ni 5.969351104952975 1.491160632666858 11.71091184946979 1.131366380715374 1.3024000196588537 1.0732468508648225
Ni 5.19392179091655 6.585174698564365 4.552434598967091 -0.7936324400964462 0.14240131991876767 -1.5040603823492547
Ni 2.130910136487129 0.7404578733160416 4.461887968063354 0.161372975925264 1.8731098452520127 -1.9008888151374939
Ni 6.832001152183507 7.770651699042793 5.577130603930958 0.8784647033514934 -0.9702016641461741 -0.7492091767860646
Ni 0.2587744608687068 0.8777277615944961 0.5407208995160494 -0.4279932884268178 1.5742738672498628 -0.41599189309056744
Ni 4.343622408776271 5.110606184808469 0.4005969051974492 0.7513197953711642 1.9587790025860587 -0.23094445636649905
Ni 4.420491752469621 1.3442605888853523 7.4184400658339475 0.3848074970679631 0.3545782658697765 0.2590044478275088
Ni 8.428011644387368 6.449055795111266 2.0935722634918883 -1.102123938910489 -0.1171749412518111 0.8752004307779251
Ni 1.504679098919201 6.931768741063098 7.204790376109292 -0.7340196135298197 0.32969461525421934 -0.30197555207239607
Ni 7.559999054220523 8.975682362179242 0.7939441007806497 -1.5425852778973304 -0.0019653512564869378 0.086017027591768
Ni 5.30221899948404 4.578275703081797 9.060661851383067 1.0125870710909206 1.321935261478304 -0.4977344616766976
Ni 6.158927274401863 8.471182917747477 3.319379510663295 0.30086200729324314 0.9576829628538731 -0.8016949053896064
Ni 7.675190960848987 3.880080086701293 1.915980536688823 -0.2984490269763763 0.1993034324224503 -0.44991759930373476
Ni 2.179901730839089 4.702632513230336 13.274757360706 -0.6508552248954984 0.34022405403063344 0.06709499387628445
Ni 4.054259965629199 2.324055106287361 3.524360378801531 -2.180488056397219 0.35295615688532117 -0.3262087135881479
P 7.801640470679989 1.9828329491342378 5.285391451858801 -0.6955212003443054 0.9379312341482428 -3.8021892638911092
P 5.147097635521427 8.014040146040745 7.384297296818183 -0.33861480056198456 -2.3032867715937106 2.541440087003823
P 0.3127577045079 2.612249748272345 8.576590519119494 -0.05621974172467737 -0.23689835995708883 -0.19883806275025756
P 1.1973325178759566 5.149218362431782 6.018540758382025 0.04988042977021087 -0.10116313920458705 0.36596799576395683
P 3.1939642055414383 8.342351093545812 4.098403783797095 0.17955556037156173 -2.203224578762786 0.4562008612092853
P 7.43340940825007 5.059774135825056 7.894689933034315 0.275630486419964 0.5838646178075622 0.168615002199658
P 9.204963771139157 8.790132771137236 6.3276315672409655 -0.3043589647029081 -1.3592008306979817 -1.5167953134174201
P 7.0189801318479095 7.974568466762135 10.405647411229843 -0.28172785756695357 -1.6740067017658267 -0.4179549303542093
