# total energy = -340874.5211969613 ev
CRYSTAL
PRIMVEC
9.21445754504962 0.00000000000000 0.00000000000000
0.00000000000000 9.21445754504962 0.00000000000000
0.00000000000000 0.00000000000000 13.48629002882161
PRIMCOORD
 96 1
Ni 0.9375618283120452 2.977808561952635 10.17407036916629 -2.06098189590907 -1.0433521201879195 -0.4287666762577325
Ni 7.62289947890078 6.739942525276223 10.717163118099934 -0.7241005546438948 -0.30876712107293275 -0.8437093021481793
Ni 9.03643410538734 7.666566792627409 9.032915104097574 -0.09028274484665741 0.12878707156944272 -1.2204828731680724
Ni 4.031804274259128 2.3672309697459206 1.098027918547064 0.9621427983974398 -0.10492080647480641 0.7081332326813611
Ni 8.75935537068387 0.5750881094428172 10.980065410058431 -0.3869623386274368 -0.8663792329418691 -1.1775827313704366
Ni 7.369824405783695 7.47178237716693 6.367646194794294 -0.06694612700324598 -1.550808180027755 0.05532628337613052
Ni 9.136539970828592 2.3978506117618705 12.987822888271985 -0.632821250211923 0.5652416033897362 -1.4757299108356778
Ni 5.364712398296224 7.001623901626199 4.945220538340478 0.24641375564669177 -0.27647046582275614 0.3017420959053513
Ni 3.042097831391481 0.455420872338711 9.628873959603023 0.5264973927420029 0.03689815857793 -0.7748055371979301
Ni 1.7705856371624724 9.087823134434272 5.728247622660558 -1.3428930946768938 -0.1390599142503605 1.4666983967610288
Ni 2.4297787067318577 2.533579569599652 5.196294231305333 0.1906159319507814 -0.06116680131730756 1.350281416721165
Ni 7.649473974108123 2.5293132758128976 11.05550785876183 -1.7900040777697688 1.2726991501603113 -0.2619730435375295
Ni 2.099431193667207 8.537323804624185 3.3431839134643018 0.03846344618252086 0.5800547571431688 -0.6800092207516354
Ni 4.164418745488004 2.9963480502873003 3.7075834539348937 -0.4454744759307167 -1.4210158071222494 -0.7627308654215832
Ni 6.465535983225364 6.680407915867539 1.511152588423658 -0.1568933428873556 -0.07944888745594704 0.5543025878797292
Ni 2.1483691770396756 4.479728264038652 13.297225939614622 -0.4915800120395276 -0.28843689415601287 -0.10451637194753613
Ni 0.6252764946875587 3.8036174506410134 1.47684347765562 -0.5926068827765666 0.6388790263702288 1.1370924845658739
Ni 5.5444864626149695 0.6876528427654324 11.187119797023106 1.8539001050927815 -0.5743625918543979 0.02555290876843986
Ni 1.0661311527323143 2.0455542611161204 3.410035723512427 -0.7938574116230586 -0.14267385685386397 -1.4190519985276593
Ni 1.4106873591429159 8.259987065112878 10.77267285250634 -0.9238829835852927 -1.130198585659518 -0.9498755509943126
Ni 3.706653715180934 2.1016426634486782 11.239690119511641 -2.0570763902070768 -0.42900887417552563 0.29314509826495966
Ni 2.5101932766605968 4.926749236990743 4.175962617747283 0.42692036707761316 -0.5058182671260966 -0.7219997062508082
Ni 1.0660482226155092 6.782909540238719 4.511689531055361 -0.5025753347087667 -0.15683343618369763 0.9944116857334745
Ni 7.746474567397893 1.692198247866749 4.084255730246908 0.6431367732053181 1.129229022657397 0.5728096455449811
P 3.1639406018931093 3.746672103768136 6.855054134630499 -0.6861739548014505 0.12359498584554197 1.2982302045518803
P 3.5165133862615434 7.453712826160827 9.871249204760758 -0.6598024067864573 -0.7358132150951328 -0.49478797745386405
P 6.991976364704532 8.703580259903688 9.62753878472246 -0.351270284542466 -0.029372025404213933 0.7655153701452558
P 0.2843176124548166 7.404332548832065 6.732490793558408 0.36612509016711137 -0.49489107869063154 0.06452234805310178
P 3.299199622402328 4.346597783194099 2.116120418951375 -0.12020652898928331 -0.22035099712136888 -0.31609836462702334
P 1.1930879471035942 0.49292371404948976 1.766731229622517 -0.7545467869488941 -0.694616686252165 -0.07200014448738568
P 6.472649544355763 1.388747736019239 6.876821447400368 -0.39672301755862643 -2.529711485712985 0.6611843747356484
P 0.4719645091955985 4.782109898825117 3.4385996200773516 -0.6690465510925445 0.41889595411123987 -0.4971281955512664
Ni 5.991535078939329 2.0716403900800553 2.5458200548400938 0.5661548592326249 1.4969970477445702 -0.01702173136897714
Ni 6.506282313948968 6.9268854374699025 8.549673941907958 -0.7911536395386504 -0.7780029610893053 0.45826185750337206
Ni 4.4472749449955655 3.8568032988853904 12.561750984270622 -0.7357283686908103 0.5420577090741051 -0.22283468277517104
Ni 4.695097777381657 8.171786278661877 7.110390435599137 0.2892593900573083 -0.05766058793626199 -0.3052295402333195
Ni 4.496848725930207 4.773733957027797 5.4378070032482935 0.41370412549765523 -0.5159437855958728 2.5972139994403336
Ni 6.606378964932798 9.030112987595302 5.003655862978622 -1.2346411669463253 1.9048686257208485 -0.3267211344481922
Ni 1.0277529375663699 0.5018350158230755 8.459100432670587 0.2557913402068498 -1.290671418368016 0.7626113091245834
Ni 8.922303835748592 4.605763612667652 11.495929437307714 0.8374895464907124 0.94519228658603 0.8071068204337971
Ni 3.3126988025267243 8.576310173980033 11.785479940132936 0.9587214314207166 1.0145279968673753 1.175956765731239
Ni 5.098460651064541 3.591933720267127 7.939324868245328 0.49899481644636 0.3247802086717374 1.2098554753612132
Ni 1.6531381628515178 7.063314694071816 13.379816042940883 -0.9330103998078577 0.5297251556506813 -0.3421351550104172
Ni 3.7554811250643283 5.660026544239406 8.108470055926878 0.7843067918201461 0.18110182181275908 0.11908887044507233
Ni 8.459599856262903 0.2495956939942377 6.844979968330155 0.6787511799748182 1.0096241318078547 -0.6606159038266881
Ni 1.7972154191143521 5.497326869525101 6.533257638054202 -0.12225595531914428 -0.3562623384404187 0.03473766059150146
Ni 8.8349968516676 6.045218507884536 0.48006309582449364 -0.42972389796467925 -1.032107143401719 -0.3974244145010252
Ni 8.356204429521712 1.483592146272076 1.6269589678676126 -0.19747486385414378 -0.12312164575354927 -0.06334272592270382
Ni 1.8890835596196258 2.1063604656491495 0.6009180764903982 0.4300889946135819 -1.2343184934995837 -0.920578344692092
Ni 0.9714065304259739 2.4817298176815803 7.550151337547807 0.8922388743174505 1.149535595425233 -1.5214837200320248
Ni 7.475099581839135 4.541032049272512 2.503743156464639 0.8344571874222919 -0.7389175650520693 -1.1305888791194012
Ni 6.555340085267932 4.727191732585255 11.695310945576427 -0.004440038049224612 -0.1681329203569169 1.9157083966488297
Ni 3.2584256483064573 6.157551958325839 12.089851897722726 1.1461808200203873 0.09216762057419611 -1.9356742982477952
Ni 2.872210879887396 3.367828901287311 9.115814813193241 1.6264060691687279 -0.0005129350806765359 -1.144638672344248
Ni 0.5560556476360325 0.025870510660241357 12.926716292426974 0.8219336010339844 -0.7770763355099779 2.1668018171593784
Ni 8.72105087117731 8.079853636954644 1.7716397710916403 0.5233030541744212 0.5410896887338811 -0.007263623540948781
P 5.454719218402094 2.9161914851664 10.465226030474565 1.838965852380452 0.7144758870699374 -1.2260153729505274
P 3.212040069640103 7.508299271933469 5.30039548548511 0.3798936047061135 -2.171008141931242 -0.4172255083873524
P 4.26973999383056 0.5738939157608228 2.89295723077482 0.1720299414184779 0.8357820768813026 -1.006539322234944
P 7.5653091200083065 0.712449869135918 12.95328433751412 0.410882339778144 0.6971775050008058 0.01671705564436476
P 6.566885800418695 3.6247464031497025 4.2615999421432615 -0.725344454353325 -0.32528774443577524 0.3462270656916037
P 2.3168739599303416 4.3826539550894985 11.005055018589053 0.5182492938005978 0.7466972089974881 0.8972682092112418
P 7.263729143017624 7.694062733577032 3.361444203739056 -0.23084546889478955 -0.8123099619012915 0.7771472979572294
P 5.4066566084847905 5.942191659440257 13.127770224717924 0.022732665710825366 0.04915537867872825 -0.8614694543450777
Ni 7.537205024868779 7.855960750495553 12.98927969399053 -0.34669757757011904 -0.44905242308996207 0.18350657459950975
Ni 5.047486272601635 8.106593992395597 13.358142717636724 2.0654252763924044 -1.1189204416425376 0.2407735266417789
Ni 4.6597511187078124 2.2851209396513874 5.979712930065881 0.8637374244436479 -0.07262106590083622 0.7228461134115034
Ni 4.257125401618752 7.582936377058115 2.93108296980738 0.2551917589496379 -0.0615205851123005 -0.23160240166547208
Ni 1.3998880150433992 5.421003518692084 9.179929007941054 -0.6519888242793094 -0.03471503488368215 0.05664654484945083
Ni 4.596834803424963 4.947076330065429 10.347962845312066 -0.4851424839443 -0.135505878350515 -1.147147811919347
Ni 5.388107905692703 0.8836074943186069 8.791051261326803 -0.20711932892244325 0.4099672841630424 -0.8367755511428234
Ni 7.082056900469783 3.2877184084535247 6.510142250163377 0.25509174303666393 1.3361866291909954 -0.9830144996401263
Ni 3.9242623416776783 0.3422212628996652 4.964303679663089 1.0508111475691257 -0.28695079652878963 -0.3974344418033542
Ni 6.238141602945611 9.120654246231693 2.027771279735867 0.28596066470137843 -1.046880959276784 -0.5191964882052156
Ni 3.126880054138625 8.604128620939454 0.9082884185255653 -1.3070604012490006 1.6930809447884585 1.508477280470028
Ni 7.843779237782616 1.3264487893837171 8.945752786998122 0.04041465637162072 1.0237405166045788 -1.329045390160524
Ni 7.947773604256289 5.673645512310298 4.454076136019331 -0.6279142998286089 0.8400773618225467 0.23943629588759413
Ni 5.601533168519498 4.25402012946727 1.0332318539499643 -0.21454056108717892 1.498230405931039 1.4551389740582035
Ni 6.3879502517254245 2.470147244701126 13.421905841556729 0.54788177195505 -1.3307482317842436 -0.6770205704369566
Ni 5.067546146411061 5.067371071720029 3.348402982148573 1.1714606776330985 1.596551704811457 -2.419702466081994
Ni 2.3114835023380063 7.490257364299635 7.824813120069276 -0.5729374293720971 1.1264103222616793 0.8209743224445086
Ni 7.07354274181112 4.683975927272343 9.503046857711778 0.36973286212302775 -0.9441774721682706 -1.5667143097350502
Ni 3.633020985915373 6.161274599124649 0.9506592580928069 1.471635171941014 -0.0927574316393951 0.5830812026743184
Ni 8.372725951680785 5.199690680311376 6.7416075777325215 0.21060703036072762 1.7881503123904816 2.145677376475937
Ni 8.96745467712029 8.829560321788152 4.334021891703467 -0.10324161900017058 -0.01576831857785026 -0.19641891178580365
Ni 1.5538063118337795 6.225232148096275 2.109430722862425 -0.03618467745067317 -0.2674014136419524 0.38784011324669976
Ni 0.1869217189416078 3.7278561817107865 5.295823271711918 0.017249788219383194 -0.0191698880602315 -0.1895844053624735
Ni 5.356834037199733 7.22888006504461 11.054455567724146 0.054000365475855384 -0.01612904435137867 -0.1821732005000669
P 3.1744450833550966 0.5109269209621481 7.387843277273972 0.22720427259777645 0.4904402420081295 0.6929123019665486
P 5.998842143675605 5.764527705871332 6.776065041265066 0.09276257384571766 -0.3243778310269962 0.20981050260136125
P 0.05226440250209751 6.9263325700245355 11.857941511860059 1.4116487640850526 0.036820768372775294 1.2280234045194915
P 0.47497395098988354 1.6291805735522487 5.465399696000856 -1.3866414434074377 -0.7914652572417983 -0.04076124107776206
P 7.984345785767366 3.993757779560404 0.3399637208310802 -0.7779921624560279 0.6287270255378914 -0.36306830561865855
P 1.5986438616531038 1.4727467298854453 11.569820171381114 -0.0016856152325390324 -1.1910712527751746 0.5222697278139006
P 8.73865048485485 3.7001943805275537 8.35780405933031 -0.8795383960316465 0.9334166341073407 0.7802717025188239
P 4.4658697200747675 0.8690394371331668 13.055538092980628 -0.8455550971076663 1.293008551141625 0.47637425083336676
