# total energy = -340862.7445220047 ev
CRYSTAL
PRIMVEC
9.36389240429826 0.00000000000000 0.00000000000000
0.00000000000000 9.36389240429826 0.00000000000000
0.00000000000000 0.00000000000000 13.70500305044033
PRIMCOORD
 96 1
Ni 3.995020376402566 5.550334796393464 12.44556798881824 0.1369158713241642 -3.187625160117162 0.010822030316168458
Ni 1.4510662069722489 6.156422089651808 11.851743648921008 1.0786916760294776 0.1041726154548722 -0.0489319498140125
Ni 2.6615833845511543 1.4694007081031675 8.160383999650437 1.4688205853103542 0.7080226752454257 -1.6248927178479953
Ni 4.739927373065335 3.0044329373639487 5.478615808849124 0.7064226777481576 -0.8528475170040215 -0.2580364274872846
Ni 2.061573257398004 3.663519861062025 2.891056802127516 0.38377597047965517 0.521840610696282 -0.259164884664773
Ni 3.785147458196602 0.5537843364060142 5.942845752039674 0.15290273367072377 1.6535476625805265 -0.6621056009983372
Ni 1.3267324449618625 9.024900674656305 12.69085982966348 1.0300944838470645 1.2076988340295267 0.5196441172655955
Ni 1.7677343169035071 6.161665869341958 8.234171471004695 -0.9121428123302292 0.2772723928987612 1.808136011483789
Ni -0.23092388449422654 0.5948852688952587 7.765226808039161 0.7336236636429817 0.13268692084448117 0.6026817505140654
Ni 2.366161946257309 3.8788238368042163 12.388157965103398 -0.8519836263418294 -2.383536557684398 0.24751341646877373
Ni 8.46463090644065 1.1671623562121265 12.384443309026466 0.4290320141039773 -0.7051870055688435 0.47017043601549996
Ni 3.248165690140598 6.540276126863117 1.7721802929693704 0.823568051313614 0.10321127998286742 0.1986136054442773
Ni 6.741590447503372 2.459239035757477 11.204812930211775 -1.8840028380154328 0.29511302062460787 -0.3955331110155833
Ni 9.080363008771949 3.6408030583329096 5.884270860122234 -0.6199996729672226 0.007354640592858301 1.4052356614698571
Ni 0.7756486550962757 1.374610026311396 0.5012210633476392 1.8995927220338897 1.2425691635441505 -0.9210658258514718
Ni 3.0136563712832314 3.857211973366954 8.108743069983989 -0.32490722116790494 0.5045198600296472 -0.7642439596319999
Ni 7.120790630239672 3.9732212351192264 7.069109435836318 -1.9848417611113816 0.7617751863765332 0.3337772699640251
Ni 8.324603260929027 3.5420795417735254 12.456573371442945 0.15037045416717326 -2.001851922516133 0.7100882995252028
Ni 1.914625695473844 8.03658866144752 10.439265105743653 0.6919249983526149 -0.9829805610783974 2.497475251387099
Ni 6.5685831732976245 5.031696893360683 13.598487864836226 -0.34014974914927226 -0.44585294231605793 -0.5566718594428542
Ni 2.3317683698253044 6.08137049283653 3.9438204860636303 0.432882498198319 -2.808576677020163 0.0804647303149711
Ni 2.002430913606951 2.476356230888897 5.712258967668386 -0.6078324414770693 -0.9385254160888159 0.04607725397403677
Ni 8.897289550339574 5.704801563837608 7.607976155413086 -0.32155244576305914 -1.814001983346263 -0.06612491665353129
Ni 6.08500368305042 9.62870317819251 13.085030067025931 1.2043003498709388 0.02642219874727062 -0.09988992891911828
P 5.981504581416077 9.398632344287163 6.52223846111823 1.5955512885714005 1.2139592131169417 -0.7414218195311618
P 4.652852538531928 2.64684461806491 7.7532625628425444 0.6331842899782967 -0.535949025073206 -0.5544545400765613
P 3.5564999359214386 6.4467308427477565 9.856871269181715 -0.8601329949218413 0.26131818356235 1.3047872889441077
P 1.3476232886917292 4.756567009689259 6.700417413043386 -0.5069762919899398 -0.007720508572709283 0.15889854624284247
P 7.829805827701823 7.762189161375796 13.47322426832007 0.10373578502776973 1.101482191561432 -0.9643495762407714
P 3.46003311740728 3.928386918768441 0.6306319277651676 -0.7751654916405102 1.3352481765371262 0.5186002493821132
P 3.5171996799222223 8.452635760399431 3.1154212800629026 0.73722732183384 -0.1271803892039552 0.0996598151861832
P 2.8274366450367667 8.026915760697653 13.660914125658238 1.2741608223075023 -1.5046252537137894 0.5473153579286186
Ni 7.700762027862606 4.475865610097049 9.42123022558402 0.45353385590008344 -0.7862955401154007 0.6226167988750955
Ni 1.6712113150355252 5.149513386327597 0.4163823262963888 -1.0691009470172492 0.49113983917831544 1.2847496535669423
Ni 4.710758848538874 6.712890117592101 4.168102561746743 -0.6600590028819535 -1.938484514003081 -0.35489913954430496
Ni 1.3576145617799265 1.0542525428124248 9.879511287993939 -1.1977175544470986 -1.3312254285309784 1.1601323971044728
Ni 4.2935974464028055 7.521593312520933 11.660340071895137 -1.7089343668809471 2.476521531953567 -1.3795369711521726
Ni 7.866100274271506 8.816113967957586 5.204954183490942 -0.8435262396030957 -1.606057073198731 0.7053376722140949
Ni 3.918245823403382 9.307615311093839 9.995771502059956 -0.9573610607380802 -1.2939002097179588 -1.9968544693015418
Ni 5.697741189040513 7.825592076165095 2.507549228931448 0.7828782869037355 0.13849092912076794 -1.8998503465706504
Ni 6.119781179066881 2.7914418430208063 2.09982569384842 0.20409442605319045 0.7694309031495781 0.9634941702190116
Ni 8.048134340658155 6.859032384778131 10.133959142733874 0.39406372555890845 -1.2087928384246536 -1.8070798023051329
Ni 2.5770836204013023 4.440685466711523 10.276957014884273 -0.30002459899361233 1.3552102214813497 -0.9786701066285016
Ni 5.615900770304952 9.359884557933873 4.2553759107969915 -0.5475575558464119 0.9059701078606138 0.45110107808887473
Ni 7.55938598185923 3.987941273820863 3.659482150700609 0.6111779609105346 -0.23661219617523768 0.2756788231593962
Ni 2.0142668734790043 8.621195185760854 8.37849901586224 2.476037393228297 0.35209560865723877 -4.367457092533091
Ni 6.07225006173259 7.323977729340695 5.810400050126471 0.28575806177226915 -0.8133641141974186 1.6097165243281892
Ni -0.1634130301512319 1.060657445148251 5.507314265981933 2.8147059298463524 1.7477449119902415 -0.42436109099086916
Ni 4.518340225587267 8.357554797946241 7.518263512417687 -0.5471024705868642 -0.155060660553991 1.6966941160610136
Ni 3.996097224017508 6.096230989922724 7.86464325262903 0.7183340844737628 0.6331449520999289 -2.28920072581429
Ni 4.287576463651437 -0.0669930310985923 0.9422341719600485 -0.2801826245670207 -0.4839762315503407 1.0408589214524204
Ni 8.626691790543207 5.657420268780178 12.315781632319329 0.13151758312672834 2.6661267632516474 -0.3147984148686772
Ni 7.8518952496465815 6.659150739660364 1.649973070901186 -0.24218660493922164 -0.15416848775702482 -0.25194239877440483
Ni 3.0847095860847684 4.4635520917175 5.660659239128076 0.799378598551604 2.564306192968719 -1.1855312967935516
Ni 9.102546069639745 8.2779617133636 11.530196951099448 -1.8439329665777406 -0.9065190383855485 0.030746280043921246
Ni 8.498668654965108 2.899997446499222 1.3427297185737426 -0.6357510222642083 -3.5297837121663465 1.9240045752193506
P 1.4872951062958055 1.8559890018671983 11.94692480502185 -0.3326524123309626 -0.2608628411924862 0.11493885283244076
P 6.671202069055407 2.4842406282087297 13.882620194568563 0.5925608600299794 -1.3005925341364697 -3.0759207550616186
P 4.762400714594551 1.8835001174558799 3.4056251575650487 -0.2443033941719083 -0.04715660308114459 2.631696092377603
P 8.038021336970008 2.3899836882782775 8.207145405037352 -0.5466638403875488 -0.25277260798518403 0.42490770752295853
P 5.57668478933647 0.657971684124689 10.94286927968262 0.7208848759200746 -0.16251531705982336 0.8050435101468651
P 8.812424594389872 4.620781207391276 0.6239123986479321 1.3252195886565306 5.4343479192728985 -0.6410919748611476
P 0.2229664488144234 8.180034127650044 9.097572906437176 -2.345158215016516 -0.15714788210032288 1.8104363774821919
P 0.33272531245388304 5.002547096618829 10.260209693498854 0.03541463205386804 -0.10324907519933832 0.1947484660619162
Ni 0.26123761304944754 5.262704116496414 2.826985305427722 -0.3471506059471376 -0.08287359686677985 -0.6105673239097292
Ni 8.085786551611895 7.7591833519462625 7.727305853376301 -2.092487936937151 0.6455914053933979 -1.150833231190734
Ni 0.9645932740031575 7.308817587700778 1.3744199392976282 -0.3035855768719933 1.0778714941210275 -0.20913301691836242
Ni 6.5036913996320145 6.99739325745967 11.821839122459464 0.5602595767941124 -0.5296511078796363 0.9380065674708684
Ni 2.418946207174054 1.3355064120505604 3.3878768360923504 0.24334797223717444 -1.0557440660943689 1.5762885836870466
Ni 4.665418882003681 2.938361313268054 12.927010638841711 0.9549845900861037 -0.4339572193197365 -0.4790795655796717
Ni 6.989340310078368 1.9915594346421928 5.5065876279391555 -0.31027661573892373 -0.380182596701442 0.21359773755793537
Ni 0.6801547449924858 3.238680067236808 8.532502270637343 0.4404055460482415 0.9161624750125835 -0.6853982529776905
Ni 7.5930398107992305 6.518739174564285 4.08272071894187 0.05743150264459142 0.08831250849416403 0.029688013982735965
Ni 8.164555613671796 1.4794294367605798 3.2966285147591217 0.5200714346110011 1.9840724870455246 0.8541914326264256
Ni 5.788205752587911 0.9570834323754779 8.725961222023907 0.06368493975347096 0.7051288986373985 -1.1216743502385909
Ni 8.893806182402546 2.2961013040399783 10.307190213965683 -0.5426634609789042 0.5431756247286322 0.4649184435879412
Ni 5.307323063324211 4.618384050961493 8.973432976997477 0.11786759644346152 -0.980266504581344 0.4305080844288715
Ni 5.602632134910411 7.422523331946306 9.548480840047052 0.3228482817563472 0.07491500414133549 -0.10356814910165389
Ni 1.4878943954032513 8.006689753321359 3.9374202656739556 -1.1006414408276914 3.137975101190202 -0.7411351415286784
Ni 3.296717471736008 2.026290111197135 10.59876402891188 0.5424459456514594 1.988725412436504 0.5711998778557001
Ni 4.986263287902451 7.038603747488869 0.10041088995253619 0.9555584603117027 1.3793027436541794 1.2376244179443654
Ni 3.755379644562695 0.5024992346471134 12.375027915314956 -0.4631940046976668 0.1918893993465663 0.49634015243233226
Ni 3.6892424732206734 2.0813591618360174 1.6636911731263113 -0.24350378108874837 0.5136989554257541 -1.8623253530419992
Ni 7.6061867155938225 0.03972537670981047 9.921914737902648 0.15661849195941413 0.059486328291091094 0.5054755390746972
Ni 3.2079290449109976 7.591457312999882 5.6426103367124245 -0.6061198296613367 0.0856619582451944 0.6489009293826051
Ni 8.264281066707692 0.3376760023149232 1.2368025596650143 -0.8641670557818989 -1.4559365302588343 -1.583383799970931
Ni 0.7826931112764545 7.051778743960372 6.027159174732679 -0.09620142432393755 0.1312059654235805 0.285283950349328
Ni 4.496456809273194 4.416020974383208 3.1212737127528025 -0.05074997685935776 -0.22547674838370846 0.22207260779816596
P 7.580520286788997 8.911045108133914 3.099824781041627 -1.5626576231671732 -3.226224103436283 0.22239553835522347
P 0.8733889629637567 0.33665814722149573 2.357219429107141 -0.83489298940813 -0.9988969751983378 -0.1900469468211888
P 6.069759266379769 4.803395835100762 11.025729426290066 0.31190875202570795 0.0982307960491405 1.3520145973621878
P 6.210498567706483 4.782823363709226 5.177339128697687 -0.20797962004020956 0.7652418047688949 -0.7739164497247574
P 1.7044812243910685 9.329583002438648 6.19271559983226 -0.5910824757122402 0.18031917801046365 0.01804708730969795
P 5.644142269493332 5.730252623119445 1.7360946611980623 -0.09483308322150119 -0.07997853470717194 0.7300089497085299
P 0.2948923783786786 3.064998592785185 4.026886638301764 0.6046442735570747 -0.47547590738881335 -1.54799462183836
P 6.2950451513178525 6.303360287683662 7.7981465078225405 0.7396750120433843 -0.6100500179536783 -0.16028874172214977
