# total energy = -340852.7909315342 ev
CRYSTAL
PRIMVEC
9.47558241020510 0.00000000000000 0.00000000000000

0.00000000000000 9.47558241020510 0.00000000000000

0.00000000000000 0.00000000000000 13.86847266388445

PRIMCOORD
 96 1
Ni 0.4074917427354589 0.49608654457499146 3.0526176710065265 0.0734078234681897 -1.0766175671092684 -0.5138802181986246
Ni 0.6228300418097151 5.99611074299438 7.6445380438837836 -1.5163929357726786 -0.25624642546639737 -1.1921665427218824
Ni 7.796717794948327 0.866271971205034 6.7777449156378315 -0.9835449182222996 0.557311292799066 0.8201356285932973
Ni 0.7234446201293272 5.652715630942286 1.6916065830668379 -1.132683556864901 0.9895404736841021 1.13580436188207
Ni 8.529057144428739 6.402670088405723 5.658295801513132 0.350444446207061 -0.8513308232491791 0.4103676049252546
Ni 1.7077747695926238 2.460505572746769 3.473941869166203 0.19721826775864745 0.49905626581191465 -0.23333661074775944
Ni 0.08272467844228444 4.421117311845077 13.025200223884358 0.48081968819923004 -1.7962562293270679 1.6777018912292267
Ni 8.496413762502153 7.5613822264349215 3.6525262785984154 -0.3105195849876652 0.4022791714901653 -0.5510120900539155
Ni 4.57229075604152 6.456017618230593 6.259521515081159 0.516208095000853 -0.45741570745299287 -1.5909816669228471
Ni 8.085656734015778 7.03129918674347 9.61362569158393 -0.8735405265769989 -1.181522946965107 -0.15883349733286192
Ni 2.5878574023819825 5.235591010974152 6.152359309211106 -0.9010644430288804 1.959535421136109 1.2113780826533267
Ni 7.530501302864894 2.1821034814884204 13.252767709813316 0.4685012758431932 0.32620794225719946 -0.3659047466261892
Ni 0.4997753888664341 1.8915442178028414 7.663010692088683 1.3859788701227742 -1.4417401841537945 -0.5887602553369667
Ni 8.64579632159435 1.7745397243254892 4.566611091853771 -0.5126383753717236 1.3005241427923797 -0.18645640125645307
Ni 4.750526464035446 5.572410068728116 8.464053700494174 -0.5679880557866218 -0.9959576900643556 0.9517856235328319
Ni 0.3635686273268973 6.871474535667789 13.639074892614591 -1.8992384240182643 0.563557530819094 -2.05949759805406
Ni 0.242501951605154 4.027558465708994 5.163662811303174 1.1123564152717746 0.133938276753079 1.0427751646385268
Ni 6.450635487335296 6.29459159370191 4.165368495818046 -0.9619075424581822 2.6087096587847585 -0.4961552901150359
Ni 6.534664953496387 8.06303851843994 6.195906243991951 2.030932641932173 -0.15790275798847642 -1.8092449282772516
Ni 3.2064708099515435 8.300079691814531 2.413141873309893 -0.4832663499675097 -0.1678855802328012 -1.8376705306077965
Ni 5.656373205811273 2.5768752021924577 10.263779523269843 -1.5722334397810667 -0.9594940479206829 0.016940998729712758
Ni 7.7386703761726325 4.32340510446425 3.933903702781277 1.046777086709068 -0.23096065431641513 -2.235276207881692
Ni 3.4325297831366095 4.540414896302468 10.580701752759818 0.7550036719806547 -0.34372126855061447 -0.1214512000296618
Ni 6.673974968325026 8.054396787143267 11.694742204358045 -0.22028414843917546 -0.3224273921688447 -2.162802466191998
P 3.7434425981656734 8.213633952100093 12.407374237225712 0.2873596019314341 1.7453383594312781 1.8201985990752783
P 1.2257045067435555 1.2970461678539364 5.234932457986083 0.09694370180660078 -0.602405356924227 0.588263003985574
P 7.985840947306155 7.389049806377211 7.526087576507448 1.1698372830970627 0.13051562422477522 0.46448135605052265
P 1.4994919892941398 7.505770032377699 6.156728500330511 0.865881210259528 -1.0341928222861545 -1.0286636649378091
P 9.575455202348845 5.709142725099853 3.707348209069955 0.3436451638970404 -0.6659704832703821 0.7118646746993353
P 5.0902450500534275 4.239053468496045 12.192869789416923 -1.0677521462988386 -0.44844821384705996 -0.004295284941244215
P 6.5308178669761565 0.6359992064545826 8.687516364057213 -2.259163556022251 0.06063535429386976 -0.3295655458755227
P 7.366763236191049 8.150346536167534 1.9823316694472544 -0.02659446265907678 -0.25315955901095755 -0.3492794793646823
Ni 3.8707186231403896 2.5785334291408324 13.514646280199798 0.18890949078263597 1.1420410868204007 -0.9063130930223294
Ni 4.80880129679263 0.3663866655808789 2.1263415732267164 -0.15923716052918382 1.1592271116813841 0.19251469163539103
Ni 5.6559468045959775 4.124389443911543 2.621390541511153 0.43939690227806905 0.8502422181706906 -0.7133767404684875
Ni 2.962351376403032 7.849885288704515 8.04071878371481 -0.27904285453562266 -0.6711725962966119 -0.7526436563889102
Ni 6.647926591861692 4.563431086345916 10.651569634742092 0.021825323405207573 1.208277589351132 -0.27864433354562335
Ni 4.6408371202960685 9.638752093863966 10.256554391566208 1.7177005431093517 -0.04144206919487056 -0.10770325431595
Ni 4.583424565552039 2.7582757547621393 5.098480278858186 0.3036552537676641 1.5543287915865036 -0.2166298395160398
Ni 7.84544124048287 2.1633134012676893 9.316146409953216 1.0157901514092504 1.211256726584114 0.24060589071566305
Ni 2.5537547807408267 2.972054372946667 6.003939469307222 -1.465339311629973 -1.8262507188066293 -0.2703098455379989
Ni 1.7391768502035685 3.7864143650849953 1.3219840060409866 1.5689156882617434 -0.8094974321531607 -0.8229399308113117
Ni 5.168210143374747 1.2511369703403494 6.719732556517618 1.9097472939693887 2.6051435387000557 1.987245485456868
Ni 7.180511185349549 3.3528401337889795 5.929757028544711 -0.1381281464647105 -1.0581999838340292 1.728320998937675
Ni 1.2772042979688072 6.983835993689691 9.822706315934145 -0.009071366173648893 0.0645719703441146 -1.164535154157859
Ni 0.7880150299408003 8.52213049357581 7.824384600913273 -1.3153642931290057 0.7483090335692983 0.08490631102609249
Ni 8.408347698169587 5.801340143429512 11.842552764303182 -1.0778681516869177 1.9740189594642648 -1.0900780634895484
Ni -0.385653367604486 8.918626770306158 5.431753573617398 1.159624861340435 0.14868201072115683 0.19770009249107243
Ni 5.333388498598039 0.8565102260495132 13.124582028912634 1.0995716048022803 -1.1356513812439732 -1.1592134848346294
Ni 8.571261389160526 9.356104941617778 9.146271956012127 -4.214108786684517 -1.362058868972067 -0.8916045831675612
Ni 3.300534918045946 7.780429268524001 10.483802550362823 1.6588809018679818 -3.4129795239903933 -2.020922565994339
Ni 2.1701168695473085 0.013915840550764457 10.945206567643856 -1.2307672858132157 2.4257718122045255 1.6695036716891505
Ni 2.8953684832712367 4.412049179333105 4.108008056778108 0.4277454340820698 0.11207772923456182 -1.5449110978170297
Ni 3.072448170192581 1.312624025586101 8.824786285960222 -0.9007078310204102 -0.13039041150082062 -0.3269913573904433
Ni 3.0164474772503107 3.6769240085794235 8.073697601264097 -1.3023290572116024 -0.36044140951877285 0.8685132485657364
Ni 3.16066584384614 0.29469819814872344 13.86042923905755 -0.9714959574775657 -0.7949107925882375 0.36728542902379974
P 5.859614976186697 6.933511174702146 10.081034385534592 0.15517301776213918 -0.7991621116654236 -2.7210766371249653
P 4.24252153171379 7.789980655746642 4.127770331769716 0.1646519037868519 -0.39856495586337165 1.1561649278162927
P 5.591683403659517 2.3228064069536947 0.9361818717902749 1.6665985822272136 0.3456791636079337 -0.22694047741342852
P 2.1227200055714652 0.9725074651005097 1.7972574335182292 0.29845365496206666 0.18396783050664445 -0.19398330576111755
P 3.4555649243451807 1.9208616702501147 10.808574352447279 0.3785442897670706 1.4836478801311739 1.5248444089741415
P 7.649723082661789 0.5950220496645916 11.631169573390366 0.44007824461580985 0.7124889385468954 -0.521604583426076
P 5.7641484818730975 4.545162163166102 4.841664512234658 -1.5063633194508186 -0.7986113813682764 0.5683690932751243
P 6.888284219133033 0.46437650753077714 4.718179667843056 -0.1541854570378893 -0.5071313295105653 1.1949183944354067
Ni 4.53675732143348 8.87682050004198 6.176435816943258 -1.5240499380973043 -3.189366825398617 -2.7979446512276134
Ni 3.9874672758885636 5.6829806416457735 2.3055646369236173 -1.0225601231432326 0.9048100261142418 0.8016427119954322
Ni 9.44177368356212 8.263409187299034 10.993191865296808 -0.647589152549717 1.0982587995281279 3.073670011354229
Ni 3.593292516885942 0.8239388585504 4.195296175782321 -0.653521715984068 -0.7683222434664316 0.01605293969780461
Ni 0.29716563984790567 1.9277409431902313 11.422254771734986 -0.053232119851263165 -1.2141990970418897 0.07445991888178789
Ni 0.31955075609271427 3.796638518669549 9.285830231103894 0.47305675642435946 0.21388775799452842 0.25630170418436504
Ni 2.2147658145801303 3.478950662108552 12.343121259430069 -0.6662108814159624 -0.2881129351576909 -0.780148032456766
Ni 9.538595186182105 8.01719565000429 1.5166285803577768 -0.5539117801992137 1.3075064876474838 2.35432291223492
Ni 4.887126462251311 6.4927165494937755 11.849195147679247 -0.28013197383474336 -1.8285868231389735 0.6883658202464467
Ni 4.799903724766777 5.627889604629469 0.19708358926828615 0.51792173525785 -0.3361141456273179 -0.2638221809311263
Ni 7.1093211335601625 5.9028994373305705 1.6257181197209705 -0.7575994577322889 2.05978916115255 0.2150969478112812
Ni 1.470373524080672 5.951480749126682 11.930908781462149 1.49609253365243 -0.2686075181349116 -2.136667459667843
Ni 8.007909579093388 3.9379005035059893 1.2175621386479052 0.6386856794125 0.18017828155722518 -1.3251134020959696
Ni 7.437223668123151 8.991531902539293 13.43552706092241 3.2551726681498323 -2.0154993380962383 -0.020794568147848056
Ni 5.178150029482436 7.832251229556365 8.112765428167815 1.9629333910740645 0.8318827418268964 2.1435076225181278
Ni 1.6235557917802892 7.693964577644438 3.9019643566390587 -1.16620071478574 -0.7545904957026359 1.1821582665562609
Ni 0.6418712249683433 2.2315660224628115 0.0019728162894383492 -0.219293502391132 -0.5369183309650107 0.729847484430001
Ni 5.505891479141868 8.176631802194922 0.730621426361895 -0.4056452597489208 -1.6744165356097358 -0.7212923957711384
Ni 2.782836464763216 0.4785851435827118 6.708831846338128 -2.582519373542636 0.8559482674165324 -0.8173660362679602
Ni 3.8801942057025336 2.6972340518968085 1.9915267747655585 -2.396102824385183 -0.10104204024569051 2.108612096192523
Ni 6.945952614606241 0.6310482145658626 1.1707755021890638 0.49288870354862213 3.0709348718112532 3.866881047642541
Ni 6.91598134696218 5.447739828957991 7.4195640249020824 0.44275553433765685 -0.23923780672354283 -0.15231780770153122
Ni 5.958994886098461 2.0061608644745337 3.41212980143857 1.6270095070806818 -1.1405308208234615 0.15374888372110296
Ni 0.4774584968160729 -0.1123311361577029 13.632140661295614 0.5202480693981815 0.2518130722853921 -1.1527425323983052
P 6.929379820705051 6.556629353875436 13.38148118066271 -0.42553171426020264 -0.008851022632726692 -0.01730763804051213
P 0.8361301430748543 0.6357841107304221 9.469060518666325 3.185777822495778 2.028553857287352 0.38285268733443745
P 8.983629266682465 3.6778431400879517 7.309947643148434 -1.7054821466662886 1.7491047684522458 -1.0672037299945363
P 1.9772982399902435 5.2147542049199975 9.00281637381255 1.2290009379414126 0.3790212294034892 1.570023062393309
P 8.38267834500874 2.2968054084031717 2.2709342253337503 0.4038907389516592 -2.2980993138555004 1.4604035648912528
P 4.938484119738131 3.333633127935514 7.593155749882302 2.125877311030874 0.006597964932491863 -0.3124414846007264
P 2.147204910912045 5.86718596665385 0.05297608698843383 1.9855986938820644 -1.5595414461356947 0.9235744512059385
P 8.573990356938424 3.606094028927398 11.086179547212149 -1.0810848588520028 1.4269892510968651 0.6767056102996991
