# total energy = -340879.2018849242 ev
CRYSTAL
PRIMVEC
9.14939569587867 0.00000000000000 0.00000000000000
0.00000000000000 9.14939569587867 0.00000000000000
0.00000000000000 0.00000000000000 13.39106543600717
PRIMCOORD
 96 1
Ni 6.179849474868 7.952773610010747 4.807473070561327 1.0558330262637492 -1.478283787605783 1.2942809900961452
Ni 7.435466781983546 6.884856153920635 10.532983687898215 0.32214071416636136 -0.7782425879039371 -0.5354679716717294
Ni 2.8918311729908286 1.3973231463883666 1.0185354231415584 -0.6023755321275562 0.2946538216000022 0.19480091656640644
Ni 4.822856864347053 4.106971553909127 3.449283719094042 -0.6509135889372596 3.0859223463590206 -1.6037302248377672
Ni 1.8127880518338422 8.41929214298349 5.306209370310374 -0.783801055828321 -0.7237675967845084 -1.3803201291751004
Ni 6.374365625626018 9.038861765790672 9.49023438926366 -0.5658296146827223 -0.3197722139341847 -0.3644201916608627
Ni 5.270033574991366 3.905291426385187 9.910580497269313 -1.3267157135860828 0.14767413828193277 -0.42365455184214773
Ni 7.294630135294074 0.10106696877320256 6.959510647434748 -1.263013033220799 -0.7569134874088578 -0.9417914884345974
Ni 3.655110352710341 1.9531672287426032 9.409834990243388 0.41962049098209026 -0.4762546945363668 1.2978242273627132
Ni 2.878399860229174 4.179809892393821 11.247249555312425 -0.17969362861132276 -0.009921629989086139 0.2798676644297632
Ni 7.755796271832509 4.443925495589101 13.376616759732968 -0.3732341904080669 0.35805182624067367 -0.31788708109632996
Ni 1.0469744895291946 7.584144460714391 7.438616003953956 0.7149546264785687 0.18979163627727313 0.7377585117469617
Ni 5.722690773608589 1.7831531594394292 11.180562355499163 -0.19438336941301362 -0.31828303098316796 -1.6766749926266091
Ni 1.9038794345688759 5.182656846875699 7.416307032627837 0.9172680493719364 -0.31834062369398075 -0.11482109630765386
Ni 2.353334344721126 4.633025204143509 2.9207917549284743 0.25433223916282005 -0.1793593852003556 -0.19072623227640054
Ni 7.554857245353318 7.727762523670582 2.788916941243117 -0.5549507629866893 -0.5409855590558489 0.08048401358868075
Ni 0.04736825097386675 5.899722429347858 1.1010135648453787 0.720285808883495 0.637069998185948 0.23194538682718763
Ni 9.044845470522363 5.443231633968284 8.255725652769648 -1.3984281516297206 2.0648017838757924 -0.24212309869113785
Ni 5.247654153319018 7.67265571388622 11.091337449469428 -0.25018324999145297 0.685175081223291 -0.4314257111471344
Ni 1.8266036392112928 4.479269610846779 0.20835186680581944 0.9955841087750209 -0.6697523189103176 0.5947990053318788
Ni 3.3580111783258473 8.151928504345166 12.644955146437468 -0.3633107606467678 -0.4112170974097434 0.7483157184375178
Ni 7.175001787638333 1.9778614475053449 13.258212601210406 -0.41035886317450615 0.46260779317689366 0.6470710752627179
Ni 7.544298842814525 4.313500861108596 9.753770835716562 0.2438043430483027 0.3832134131079658 1.6478634677115558
Ni 5.707164249251281 7.2550772980538625 7.165479096683067 1.191311908031071 0.3142062898106331 -0.34392927079636254
P 1.5249206176240822 8.831490714194695 0.5013987738727814 0.34226756682322346 -0.6525182144202182 -0.40634871357384855
P 4.060730508474931 0.2908071350206044 10.983767090293647 -0.1700630475000942 -0.0684255397622499 -0.4027975058874805
P 1.0953656429327294 6.608699946097059 3.012347012021148 -1.3000235490068774 0.04777238228827256 0.3494777114184175
P 4.626190605619697 0.5271122353069457 7.877990110018474 0.8748615593812675 -0.2820613296469723 -0.2122638492378602
P 7.711504047664138 3.393373592374753 1.8393835150052156 1.0241300387335135 -1.5076205888966874 0.6159098191685651
P 3.210605265585376 0.13601034050297772 3.5308487511155646 0.1889701688172423 1.8606091416818409 0.46040872864304583
P 2.9802234840196715 4.026694756790085 9.102202116688257 1.1314311725150383 0.9261576385520823 -0.6829639325045851
P 7.774470188281103 6.560775411869849 12.611236878780433 0.5659687113637479 0.02183843603133013 0.9649949231342543
Ni 4.717986491817025 6.0779801040994315 5.110900881892167 0.07903468273666389 -0.453173130126555 0.480407797472792
Ni 3.663820577335065 6.261361440394961 10.410174095387413 -1.5382488553055056 -0.4981352966595421 -0.42896182298767416
Ni 6.429417539036694 1.974091896512292 8.63695626464545 -0.1555111178278483 0.5806761927772516 0.2474936189744318
Ni 6.959204142681672 2.323919037821454 6.368361792223976 0.06712713266580052 1.477683435017623 -0.2317445836702912
Ni 2.647405069157318 1.6293152215821711 5.702263832960313 -0.5915648146652973 0.46789089595270383 0.21308480247725883
Ni 0.1982454444103676 1.2573373934910164 13.256190584779667 1.031582638356817 0.6386579114983582 -0.40956747762146234
Ni 7.00279186338775 5.327775410712619 2.2297196053962747 -1.0801386928886496 0.7359088601327326 -0.4020104912098108
Ni 8.87441967841655 1.034906436714057 8.296421249522075 0.5792476878608411 0.7692812649455912 0.2951207339340917
Ni 4.765151626208256 2.326618109527645 4.626934451483133 -0.6665644081006391 -1.687649746470558 1.8444374170179847
Ni 2.486595291842035 6.876548502702936 1.329856418068774 -0.5972585226159649 -0.5094923735435741 -1.103671485903267
Ni 9.07126892505619 4.798812252672921 3.372459903879801 0.5395030609730516 -1.0226963916107807 0.3667372698298136
Ni 1.7734090531103 2.774856150063206 7.869754739026128 -0.4112988584902723 -0.8414300191956993 -0.958846387034355
Ni 2.4063184947229925 0.4111710940837286 8.11520008553106 -0.35079334490604747 -0.12476123823950128 -0.265181266062182
Ni 2.0252644661825454 8.423015946998474 10.378517186562261 0.6007315687662299 -0.059455732163471796 -0.9405959254645995
Ni 5.857379026445313 7.458047490359406 0.11653493699857904 0.1850114412798104 -0.534281407562796 0.2473486087561353
Ni 0.6852723476523543 2.715705307417365 1.8551314547363869 -1.3389024854602618 0.4557018100856797 -1.1768908475097344
Ni 3.775305962894164 7.578490134224812 8.296300477499967 -1.170769822213661 0.1194503675495491 0.06505353796622344
Ni 4.405525482196279 5.078198197148311 7.557742964730039 -0.07264009206422974 0.7695257768562296 0.7900431800832911
Ni 3.089348325510305 7.1507375904694594 3.717051761018515 0.21172237491209342 -0.9926437951997744 -0.24532103680314524
Ni 0.9466696654106554 7.440700236274871 12.263215828165515 -0.836377030152824 0.7925140102212868 0.76156487013794
Ni 8.136283037844874 1.9251151817894478 10.673670284499613 -1.1582462358253538 0.08960011695733601 0.6782037921117804
Ni 1.1470505787573788 1.611254314639729 10.141348383329937 2.122881975847976 -0.5341024587827705 0.39393876994526994
Ni 8.102375377698628 7.755229009304427 8.457864165013861 -0.01265008466384273 -1.1074762043613378 0.03373055948322578
Ni 1.1028498485451501 9.064004304938509 2.6342098108025103 -0.07371121364122143 -0.6372214361621477 0.2621861879896001
P 1.382592619449495 3.4212609502068525 4.979909899823143 0.25557125377624373 1.2440272361469156 -0.62073038048566
P 0.8732457656066531 0.6274673811013629 6.499634575677917 -1.28612519375823 0.4129168537096695 0.5302319200837707
P 2.906031034984076 6.64107050778012 6.249275088788595 0.22132338833696721 0.7045192900778575 -0.21195454552755752
P 8.683975008706854 3.212105766466106 7.8707328094172855 -0.8425880440595425 0.06438273715144396 0.660185758267805
P 8.751259664053725 8.980351380837824 10.224118390753851 -0.030312020719980057 -0.4039249346237044 0.5191921173298413
P 3.52152002734732 5.781805018671973 12.824957610932668 -0.18908484001823564 0.7554633852258924 -1.1854891307017068
P 5.586401376539378 4.108773984845126 5.686301797371769 0.47587828503355456 0.14092524959387343 0.6243736336652022
P 7.71827460041865 7.046663215357867 6.286462807262535 0.7961991723823578 -0.21740245601600625 -0.09557896024859022
Ni 5.461612769757224 0.46551667415298875 3.597081225966801 -0.7253133440050735 0.3648770766926232 -3.135480874013439
Ni 4.237313843829105 8.482322329369756 1.7035982496343476 0.5310521019922209 -0.14009272639024903 0.4328542160635448
Ni 6.69243521475827 4.233077673659727 7.6971303471542205 -0.5580114041898842 1.0745282886804075 -1.3283398794530672
Ni 4.71038334406162 3.3336463378052166 12.767175517870713 0.6307931640383007 1.157099009594788 1.1895882404717448
Ni 4.741070416951667 5.380549124615359 1.1093550688268503 0.21170643407249345 0.3794112657530563 0.8691565385766902
Ni 7.9663421637066145 1.064001514767232 2.6979646293214197 -1.0982654843963473 0.036406820763808266 -1.1416996443205822
Ni 8.375603778925658 8.184994420094908 0.6829749344136273 0.1333520652323058 0.8881973572582251 -0.7232613465720512
Ni 0.5133661833361628 6.307703129180914 5.491381243327604 0.13785252420582067 0.19278362902606153 -1.0593302407837302
Ni 6.965700213567759 8.867630826870808 11.894372583011787 2.06777192224771 1.3203056962946809 0.48543790369753176
Ni 3.1012791373912294 1.9108238258400583 11.98524438025208 -1.3975562905477286 -0.6567258247436626 -0.19131784311381245
Ni 4.36341081418409 2.6187400126980105 7.197483682541559 0.7733423223888424 -0.6256386164205547 0.38277504001896656
Ni 8.68505463738933 8.605784273787851 4.779432002882909 -0.18591801225447982 -0.17488823680287946 0.21342701630802596
Ni 7.184599503637635 5.663420988819763 4.529153030674991 -0.5518189022259271 0.9356599216155629 1.3432124256895255
Ni 5.733816438675463 2.4482227266360557 2.0349866139622006 -0.08696190800354056 -0.8148993198950223 -0.6352689404214672
Ni 4.982202738364063 0.9283342765997867 13.189917852587728 -0.3751987703336055 -1.0627189547503053 0.6774887683226268
Ni 8.754233217628341 4.207889387533818 5.952194213195329 -0.19853287280501292 -0.6184922351837606 -0.09566920596955136
Ni 0.4438563949759177 5.2500238467830975 11.77248707945802 -1.544376051249166 -1.3671339695021294 0.030420264163070188
Ni 3.3077626976126284 4.0463385091737845 5.679566012320591 -0.8421980077099753 0.6493714412611202 -1.1236103909190391
Ni 9.052622456794438 1.9627374965550624 4.5436557376630695 0.2572946642252536 -0.43452928977312255 0.8096609543142185
Ni 2.1613068295701727 2.153557291484941 3.357073365275391 1.6925816365545365 -0.5490678218433511 0.5518464130297528
Ni 3.9463813620885855 8.75125051465811 5.620578028916682 2.68322382794325 -0.40527810621748905 1.227518439858615
Ni 6.972306077201216 3.3026298866730586 4.139071293482007 1.027841683257146 -0.5924101933847281 -1.0585650804829319
Ni 5.585093012966547 5.501083262436907 11.759430891916548 0.7616715709191334 -0.5894374839096493 1.2347630372361702
Ni 0.6825787655835321 3.90640765265012 9.702281696958057 1.332628479526092 -0.4308117317122193 1.1859681272206544
P 5.629870155102469 6.335068971463003 9.144209736771762 0.27910944610749994 -0.5943562613675054 0.8903951362404923
P 7.00329508014653 0.8673407456772446 4.903727457241458 0.6435108687152853 0.586975395522402 -0.6340330111318371
P 1.371924424163331 6.295735719717532 10.188846555721526 0.16742483854629875 0.3526828486192765 -0.9555276070737674
P 1.0954754356801 3.0000502243156557 11.97679491340236 -0.7552936924172475 -0.4196310325050515 0.033866056619825544
P 6.8309753631485775 3.5890974633538453 11.706348843381612 -0.7369169896822729 -0.4153956542674652 -0.8429217732498773
P 6.409508454180183 0.15729274964118206 1.2187983092848584 0.40882905679354103 0.14826394934713175 0.60567065793906
P 5.297957530405922 6.737038518377525 3.016873218031496 0.6516566377508712 -0.26263690237377346 -0.19512667533694136
P 3.775946420587158 3.447995484191562 1.5224164280444739 -0.6737982068449171 -0.5155246957805831 0.34485666770663836
