# total energy = -340871.5791828195 ev
CRYSTAL
PRIMVEC
9.18799564715926 0.00000000000000 0.00000000000000

0.00000000000000 9.18799564715926 0.00000000000000

0.00000000000000 0.00000000000000 13.44756036644659

PRIMCOORD
 96 1
Ni 3.3723710149554207 1.3417137784141964 12.585759265122167 0.9542898780119242 0.11998438567614819 -0.6138393097927816
Ni 0.12140557705028443 2.643717040764418 9.431553525440382 -0.9691269430247568 1.2928727968947091 -0.8206156535535093
Ni 5.458918827437681 7.760897567766312 3.1118463245476473 0.012766555637048978 1.743974646314532 -1.574907901289436
Ni 6.422068819903732 4.732497536125797 6.6396920034495155 -0.6205645443317571 -0.6802149090045382 -0.59322163354243
Ni 5.827688210302948 7.002897136308226 7.057306607392827 -0.2030587856998245 0.6646281103098747 -1.0568838361257669
Ni 4.035220566182474 8.445191900227359 8.69274497874732 -0.18160370114984206 -1.3302759201335155 -1.2884026769384973
Ni 8.552314738448061 4.6017615497596935 12.754809192253372 -1.2141425327723412 0.014791813597193879 -0.5712883238044484
Ni 7.046494174421035 2.471625887160012 8.288860915110812 -0.07667980935124213 -0.3975120891188251 1.1952282123663416
Ni 6.0911539780342006 1.8159337843396766 3.2961988579964254 -1.6404939147203617 0.07791188198613035 0.06586189280013173
Ni 5.58624606751509 2.275370305686967 10.60666873389271 -1.2553629728747089 -2.364269224814354 0.1268209489820074
Ni 1.3060459803206403 2.997151659328258 5.286665965114457 -0.3954210109177512 0.43766860673305263 0.11796041326758393
Ni 6.841372177399231 6.795965104195122 4.579364892203575 0.9988900332198023 -0.9889118389611679 3.1219321887947267
Ni 3.2586511960466247 2.381629472341263 4.097618999256345 -1.2405804152488957 -3.5087541451895565 -0.30602349688952457
Ni 8.787959256146525 0.9419532871075158 6.4323979643181515 0.04824803637311045 0.44404777078651914 -0.7650371449572567
Ni 4.679638998662574 5.7853591155535895 1.2157923016310468 -0.12594651679685406 0.799192707793043 -0.3340323233976247
Ni 4.569318738047085 1.4028323237306148 1.3606245105203678 0.43109352461869627 1.8132612485254966 -0.689550070362535
Ni 4.990937470380187 3.4360897629664486 4.842802177149127 1.88758464182942 1.035417695832191 1.0830404399164766
Ni 1.7605944881218796 0.4505094650289754 2.8816236429272384 0.1960561291297462 0.32230552187899975 -1.439409993358721
Ni 8.514864469249366 0.04191012215969784 8.54814338854222 2.145906461767608 0.5297212989959393 1.3823641561883224
Ni 3.9196723361916024 6.204837044961447 9.682081676866757 -1.0995574637348935 -0.7201690807999725 -1.2516814102580638
Ni 3.0073503342081773 4.724843935968162 4.6546173308242995 -0.09387020508759962 0.32292207241707616 0.8640732105165119
Ni 8.722733676891977 4.87359758128879 1.8626749544740244 2.5577578503272402 0.40433296869540036 -1.1235186025361814
Ni 9.191486825562004 7.779879966236504 4.542343702389467 0.5435209238831931 0.044719711504877815 0.44849809324838885
Ni 1.322492492063934 3.4942222097819897 2.6719361309974783 -0.49483528575203173 0.4486320477230919 1.3649595875586298
P 7.831406244368566 3.078465418505994 1.9482694007027106 1.1335263644811704 -3.210597966863251 0.6415360043771016
P 8.223154803697508 8.529160990072027 10.592602831754268 0.4337214491598466 0.6452275942960759 0.19068483751550383
P 5.243423583623599 5.593173816037124 3.32568956679109 -0.24701179424200684 -1.6713342971399863 0.7254791801589764
P 1.5994186730376028 0.5552057536678892 8.623691680614415 0.14329143583320483 0.28352454445606007 0.6403764368513617
P 3.6552877689216183 7.646047625424876 11.875540084876274 -1.4905955150936006 -0.1585424484550044 -0.37603772129513297
P 3.847978408184385 8.317019364574316 6.508377173374012 -0.9850225312090907 0.0408424879376587 0.7323725648447
P 0.8466783689387547 0.9114518988202468 4.74832018298229 0.840789557398223 -0.7234233260712122 -0.5254116158769919
P 8.68192978937691 3.216744749085082 6.406215852662458 -1.8383302756789823 0.9163666206035895 0.6242638475602151
Ni 6.738889276849122 2.1297589547888016 6.111176457582237 0.35439340355248 1.1121738669473231 -3.176358586064407
Ni 5.698569311125013 8.724506960001728 11.27720404326125 0.12781982256016697 2.724284088318669 0.24013692149904453
Ni 5.221344830707881 4.312762342847093 11.164271635557148 -0.729947243232659 0.8262327426299706 -0.34562748443439184
Ni 3.3686315008327834 5.3460167401183565 12.055966587896052 -0.37594001937500415 0.7265431026471164 0.5475524136400892
Ni 4.8501498170603625 0.26022240535953045 4.999076196694271 0.09251651927318259 1.1308449609942652 0.4680045387124327
Ni 1.1302796285613077 4.4193522773353315 7.418601556010513 1.6303542551831989 -1.188950606887746 -0.06251997291109232
Ni 3.4593353912963556 0.8232159039177075 10.28109027974413 -0.4447262849107824 -0.5793744432466926 -0.21080731929699179
Ni 4.80187608929541 1.6568160802221585 7.272037409990684 -0.17382791385916513 -1.480414975016173 -0.07955353135461138
Ni 5.937108047370481 3.7182347253201122 1.60605516210586 0.8039330506915058 0.7346053108299606 0.9099260071845683
Ni 1.9944657227105909 4.523213377193539 10.189713828018206 0.14406533788475187 -0.37252225194270683 -0.94661153553106
Ni 2.4260534300389303 6.654561855184346 0.4824092662141937 0.1810293167036108 1.8143693939880108 -1.2318363505076786
Ni 0.8027312682016892 7.12993036053324 2.0514386445082526 -1.2341500862425197 0.258688973469619 0.9725354544856736
Ni 2.5238596409368967 8.092869029105383 4.635387775278188 -0.8736891363397211 1.3548224991246278 0.16996868801407503
Ni 1.9758232800697293 6.299317201529205 6.210916741509234 0.09154027140284235 0.24762114569123161 -0.5412282711942743
Ni 7.067286607982528 0.6581260027984348 1.3337505428120107 -1.04520562845689 0.42448604660450767 1.602183192065621
Ni 0.7968197119694908 8.444953012347288 12.392491619749077 1.7206817372248624 -1.379735974536856 1.2024506982567098
Ni 6.44811678682677 7.6525527261590955 0.44545055476871986 0.0438787036608212 -0.9552524990355096 -0.062419442777486046
Ni 3.7510909968251505 3.810812966842697 2.5483529990404006 0.5133760248686965 1.2397250092271357 -1.316254666153759
Ni 4.465549518142751 6.8870273264787985 5.029697028921575 -0.1124921910641611 -1.5525999818208551 0.5725579345454913
Ni 1.5415802420744558 3.841638691367138 12.577717931559189 0.5328786136779984 -1.5312027470920015 -1.57747514779598
Ni 0.05288702024892286 1.2271578519251554 1.0219522441453273 0.9530552342738747 -0.07876034602935468 0.6354190928460862
Ni 3.0957756018156948 6.577300001972415 2.9096350844645453 -0.04664032556635839 -0.5548957413790379 0.011043659408671302
Ni 2.672107946511221 1.1420678266432327 6.232621543012687 -0.48357333968496713 -0.5213891249811602 0.11217954491974874
Ni 8.709741851414313 5.664334840311878 5.964477248030214 -0.022266524707684233 0.3216735447219557 -0.8231062811858469
P 2.3397873413474315 0.07381543614214857 0.49169649195169157 -2.175846700970465 0.14301967022905693 0.6946138580386876
P 3.394210879991068 2.8617941112823355 10.870241082370455 -0.09052879941919248 1.7321244318441653 0.44527367277382024
P 2.6028028973047057 4.603075433100079 0.7431765197001919 0.5315277560770588 -0.10253559407208147 1.7534831000255997
P 0.04081123791137499 2.2221534364036395 12.587050178474085 -0.6983823239421842 0.11568678674205883 -0.8803596063813612
P 3.998294012720856 0.2814145167203721 3.0541833842963984 -0.586279912117274 0.05179384474283983 0.7731291779367717
P 3.433269048382543 3.1883905953198286 6.536644041183087 -0.44355411897955227 1.210536817698954 -0.6058071835169244
P 6.009987226782663 5.085059295127841 13.108950367662496 0.7647733497729087 0.15715251008601322 -1.1078513283125693
P 7.928523355612483 7.743403624548864 6.644950293209677 0.5906158204884667 -0.19666522346865487 -0.6710345280568507
Ni 6.661774431563389 0.1712633152200096 7.436944470001749 -2.0085733004003665 -0.25614820932563626 -1.1850661842316752
Ni 7.272335101041233 3.885676753258538 10.215950148846686 0.5491405840628155 0.7207504072247394 0.23992531970887065
Ni 1.0652194332237315 6.0351531461485175 11.721687102115686 0.2893624912940758 2.3637745445661222 1.0151977692408902
Ni 8.199936739353763 4.745186157755677 8.105449232389695 -0.44333866053463644 0.02634660831432882 1.9380723661663268
Ni 3.9634255702259957 5.48427769470667 7.201921060791468 -0.3335499844445675 -0.5558732748009587 -0.09229103352593783
Ni 4.513418974110661 3.520527440575872 8.48745392261039 0.9107482459755476 1.4257402091811122 1.4932702337122863
Ni 7.260188571139203 6.260856252837907 2.4813164658950124 -1.332944210994298 0.8614871949568905 -1.6675118380701024
Ni 9.16813094128745 7.070134886552595 9.189766832825498 -0.027059318110637266 -1.53139943648384 -0.1679701695268075
Ni 0.909753957272671 0.9261774990274962 10.77115957771273 -0.20030487710377118 0.14617415669763859 0.4986199496054445
Ni 1.3496705824196111 8.444438484605598 6.926945491238527 -0.6029825695839358 -0.36318940457755516 0.4954040137713081
Ni 7.575796212693468 6.776716253858697 11.565237591858644 1.649321797424637 -0.633069361666987 0.6442276922766518
Ni 4.172553533236669 8.34916816043453 1.173085580271269 -0.40163511014826314 -1.4884720409926946 -0.6143949251859354
Ni 2.177545718798226 2.4420956699851817 0.9078088586491765 0.6254514401104132 -1.5107498785542885 0.15966422076427342
Ni 7.276919910739503 4.429725524127611 3.9771028201595526 -0.6764718970223381 -0.6852241892936716 0.593137815579372
Ni 1.9626660706750942 7.91183795598912 10.256305662186849 1.3066055730997692 -0.0570419805156566 -0.31683370013115114
Ni 7.0964493053418645 9.120959772968975 4.6566883049846 1.016638872562791 0.45666186000610387 -0.0608029902199856
Ni 2.3022176282087012 2.610254361563818 8.849476560462753 1.3797107777258755 -0.8562845677100285 -0.915795835701784
Ni 8.202481814076048 2.164030177583486 3.8864926472489314 2.251675218065006 -0.24953610332575732 1.0335832137266134
Ni 7.910661892579543 9.151381225696374 12.733426889388014 -0.8505422659096126 0.22436603181803294 -0.617235479958524
Ni 6.547236881065122 7.578084023544908 9.150795950390203 0.5894624236103139 0.6314382538214675 1.6795937089353008
Ni 4.42309179145797 3.5052202402606056 0.0027913129986662437 -1.2375290300170816 -0.5967535579550884 -1.3300504343862707
Ni 6.945582421082156 2.952222361884288 12.69005863236035 -0.6104454536198842 -0.32856950051084055 0.33913004963550625
Ni 5.358071390066513 6.567101327092496 11.349122158355918 0.8648540545465945 -1.268253712794448 1.203243112251018
Ni 7.657992019428386 1.4602940468828816 10.869501448741774 1.0774097239932605 -0.007460055822471023 -0.4022876561305975
P 8.060398653406613 8.214371080107234 2.610427095877099 -0.5531677029443377 1.1941887153582338 0.1824958739468083
P 9.061605322766923 5.070670894351306 10.393309699006178 -1.370232405921795 -1.0397790581246802 -1.4361953430761651
P 5.9950291702921135 5.554134023636424 8.817927740701329 -0.6951352777597963 -1.7547370270373583 -0.21309611533116846
P 1.978506174722825 6.128365359352825 8.427303792007795 0.7029066941750991 0.7570844657690833 0.809519800750664
P 5.4993551951372535 0.678478331380876 9.255619033365463 0.7841743800073397 0.019273503517631324 -0.8007487394262532
P 5.881410419332578 1.0232211063083154 12.927570150721515 -0.5768933286960516 0.024545807660164176 0.15542884252668715
P 8.981366559049501 6.519691270893952 0.07345802312158202 0.4712708681685303 1.3418695385083856 0.8328811011844237
P 1.187171695999561 5.820549137887005 4.1633508370567345 -0.2425568437944468 0.5084145670983631 -0.9603111445053396
