# total energy = -381171.05374324165 ev
CRYSTAL
PRIMVEC
9.21518556649558 0.00000000000000 0.00000000000000

0.00000000000000 9.21518556649558 0.00000000000000

0.00000000000000 0.00000000000000 13.48735556179835

PRIMCOORD
 96 1
Ni 0.8620557291318117 4.460039233960224 7.443941202732699 -0.25211106314178516 0.36695735626041964 -0.0729393684722034
Ni 2.3918014148581705 0.8004605072591341 1.6816303743015557 -1.3041748521710894 0.8285117684721345 0.6589367163520523
Ni 8.09856310466953 0.9703866861445191 2.295534057275981 0.3134269884424473 -0.33668184520532984 0.20346527710962378
Ni 0.8957363108739236 8.26779077248866 11.379039233698846 0.7052469122725016 -1.0515531679414727 0.5582500025632515
Ni 4.382686966280319 4.468793660252327 12.730014005429124 -0.1430356110686569 -2.072231757791276 -0.3865519905628956
Ni 1.1053338636408898 0.9595404127278824 12.687285954493765 -0.2762058993074598 1.0118476218217347 0.16098499645822598
Ni 8.85618037117367 5.348843882247917 11.379848326991947 -0.6876235427637835 0.9142248916702385 0.09538329929801638
Ni 5.514044513972681 6.265220365762948 11.706835364187555 -0.5593236952434045 -0.24947645373241548 0.20884813868809193
Ni 6.206132595884039 7.989289434172946 1.2809577917645982 -0.7244443111365588 -3.1528414767790736 -1.0693976523220614
Ni 2.546008330197167 2.5872647159968976 11.559055119265517 2.5223802421588943 0.5379915094245316 -0.4233069386947419
Ni 3.087160887647104 5.271224374186463 8.425766698726047 0.01620283501210758 -0.6739786982868393 -0.6511737845771818
Ni 5.306988509386095 2.3786421298633047 12.330558748906048 0.02597225569404559 0.10173906631271512 0.23933190909924593
Ni 6.712027853340729 1.6643546659122872 5.758844997138028 0.5405394726573659 0.869454015212451 -0.9506319695443627
Ni 0.9153904586589728 2.034869632150787 7.597683672718936 -1.1496505237365426 -1.293772940111475 -0.23086346661691853
Ni 0.6143174448065465 8.670134989688131 7.592208009452865 2.0634164734924916 0.012875313300771374 -0.4489277245866397
Ni 3.7308876756837734 6.228977040913642 0.2246966343244509 -0.2755091303507513 1.526134845650791 2.540566683259934
Ni 6.9023582961166134 4.844146598915409 2.6307493336676075 -1.3457117950726114 1.942915296080925 -0.477034767235501
Ni 1.0806832422394428 4.764066636306596 4.912175863353505 0.49259894022234524 0.9708382692889086 0.09621119451595044
Ni 3.199143822701455 0.3828393554206657 11.400294980736073 -0.35704215402923667 -0.7722873987617667 0.6917704750526216
Ni 5.885232188757836 -0.058458372704433735 8.554408846254988 1.031482879554159 -0.36142485647796463 0.18764039426222523
Ni 8.941678862898016 3.3824522940725146 9.721806984714101 -2.0808891763559583 0.6875757202449835 -0.37916726806305023
Ni 3.0762685383026147 6.630067992875507 11.50061425541367 -0.701294869603289 0.058368412636564 -0.622798061647966
Ni 0.7992302799854544 1.7864190139809113 3.6216112406315193 1.0697550356614802 -0.6124321450326097 -0.3331517205648843
Ni 8.019496812473486 2.3006540143790253 12.953391025179862 -0.8291334612165333 1.3887304647259826 -0.12329673787883283
P 4.1965862936813565 9.246240746007485 4.4148433563290475 -0.17852866176894414 -0.5607218611425118 0.13544597164685707
Ni 3.2100361720459443 2.7994259333896148 7.266676971577417 -1.3933059999118067 0.8352691418006262 0.06163088543791966
P 7.970711620062547 1.1783089181747441 9.291398841377822 -0.07409019424719498 0.9461788188690157 -0.3422701379263847
Ni 0.24934449117022683 9.39681687823165 5.127582669104198 -0.5050096551818721 -0.32537978992894934 1.0624469320358414
P 6.7153268897750165 4.025957917655489 11.704623719650602 0.17934781523612983 0.4870607840129354 1.5873582112376468
P 1.728142180432219 4.773364758547366 1.2796354126352123 0.846568111753213 -0.434262152154665 -0.9621569394648269
P 1.7315333687222125 4.993211440705993 10.601749389038515 0.18690994385410392 0.6871715428280294 -0.16939893155353405
Ni 5.149325899458111 1.8298317532041701 7.512767580722653 1.2106268063095988 -0.21839747293942385 0.6017101306294154
Ni 5.54526556268599 4.13273427286243 8.114640838934616 -1.2049315556970344 -1.2947000799114348 0.6567911307639592
Ni 1.872562568695202 3.1620895615219333 9.291937929733704 2.7068545799883124 1.8461831960644979 0.06018258302716732
Ni 3.9459056006033877 4.384253547827327 10.45475059185287 -0.10870624165916762 -0.11246648003254824 -0.02274989210200598
Ni 1.1861971170232073 5.863622578594698 13.080994621294993 0.8277432657372261 1.114196553804307 -0.6105824934183807
Ni 0.3690092049162575 5.571003575984772 2.7038644590221357 -1.016434984082101 -1.035929602471603 1.9774601239353298
Ni 4.3787705124128 4.209312464954403 4.072048589805574 1.9277018215652797 -0.6373078252283669 -0.4294117660408992
Ni 8.457006177810497 6.667905544828532 1.054571092406493 -0.42727543642418675 1.298195494659203 0.2358776320020583
Ni 3.784022435684052 7.980700881221114 2.232292081741831 2.1147292648338545 -0.06818077074129548 -0.24694880221455537
Ni 7.014774344892783 0.3500775276799461 13.520669555241104 -0.4169100340294626 0.37721142988826 0.8436411679144052
Ni 4.307481836838371 8.115334742408084 9.853889161016562 -2.0375473190352134 0.3785023807855417 0.968875746245899
Ni 8.492613654855429 3.41360883648683 2.8793612175849694 0.7385519541825345 -1.1566698924771692 1.1383885776694782
Ni 2.2093315253740378 3.531166958811413 2.9325420535131004 0.5487091529523517 -0.6900699474217471 -1.253091146121397
Ni 2.2652492714166477 8.69860069791582 3.7666407526607215 -1.2880995438757816 1.0042628674959413 1.0781612574473045
Ni 6.650912742636281 6.848053207548864 4.6326507179208924 -0.9810818013937878 0.5064931817059342 -0.7045714834720317
Ni 7.5694455795748405 7.377161517457982 12.608330244524568 0.23670372744777943 -0.32482648852864054 -0.3188561298778186
Ni 4.119492051197429 7.054805111011619 4.944977316392177 -0.510276045787134 -0.20428725879028686 -0.5054413434026521
Ni 6.401614327393908 2.4754752998395313 10.19685901606588 1.756225438657427 1.5128396712037815 -1.4783267250285768
Ni 3.8422624084904617 7.497613208051745 7.712056105391751 -2.009074151296185 -0.5063998506611794 0.566942645241243
Ni 2.2656731699528967 0.5617918085724872 6.226370064915709 1.6374561563353025 0.33636302841333043 -0.2026597504891929
Ni 8.690942878706624 6.910476874604342 5.944457264901747 0.09386043489558674 0.2763169709640273 -0.05350542811730786
Ni 7.601993615010321 5.09064359774431 7.3201278124427684 0.4985186481408898 1.8038479256313966 -0.2571439975800023
Ni 7.790849628094904 4.817920180781384 4.900198886667351 -0.3523141524259481 -1.0040250404535225 0.09080416456776619
Ni 4.966616415149141 8.702314417700785 6.379330165647 1.8402773721030241 2.0127680552080047 -1.041537692687
Ni 4.20186659501333 2.0846039886755006 9.761055381577991 -1.6297353906522771 -0.23329701575907563 -1.0799096075969787
P 1.1844185862080747 6.969951682277217 4.3739896741387545 -0.33510113098177124 -0.539896182646412 0.756246286138504
Ni 6.392657167019252 5.3857046245304545 0.17334777728776163 0.8291622575719396 -0.14165749977420763 0.6779793348058001
P 4.998943286130927 5.990524899087904 2.4918156668933804 0.6268511486714172 0.2620208660563294 -0.4012227052011929
Ni 8.752362090534902 4.389579925087153 0.660687337079422 -0.9562413453113402 0.8192077174623892 -0.7607521444286576
P 7.166124552704883 7.233376976999373 8.168980945207533 -0.4623162300784038 -0.14360048243319143 -0.019053931307657507
P 4.640426491505393 8.112118642643933 12.605147319428472 -0.36666913559603953 0.6972572091988056 0.2873608874830148
P 2.4319151176471423 0.10598845684065208 9.280082593497083 -0.33400686947632796 -0.5738064622406118 -0.17944757403878772
Ni 4.430099096041233 2.0113064026466745 5.252920251087512 -0.43423129891672957 0.5698168814652445 1.167554657710473
Ni 0.8477463889777306 1.4218570576210419 10.271807963348962 -0.2518981758000307 -2.077749859396028 0.01926501887719908
Ni 3.298511168709606 4.910744745034384 5.957149339988181 -0.45353385590008344 0.11307480304050849 0.9278998180541697
Ni 6.220434563889664 2.4920073427532494 3.5767655400520266 0.969933240976136 0.4424297755671219 -0.8789413858775961
Ni 1.7380853656629336 7.045295039502723 9.206981290920911 1.7465804593684953 1.0890416518052342 0.7087384703655277
Ni 4.666680555196131 0.9401240167305556 0.6254143712707045 -0.09235556821528611 -0.8700975623337208 0.43608763539917805
Ni 2.9393032351662747 2.7440610984812426 0.3153952552663063 0.060240689958612384 0.4585138256131781 0.8304303256510859
Ni 8.931514513213607 6.250641942190203 9.067198905555628 -0.8572412751963429 -2.2020477848458655 -0.6941083791571787
Ni 6.651834261193344 7.723228596377588 10.501417213101119 1.1333265897655387 0.1608988645023229 -1.523677899469866
Ni 4.098702592550077 1.7346020255172339 3.018672706967592 -0.6142424587684712 -0.25884401099024457 -1.394343697147702
Ni 0.6023782503812325 3.354235395855232 11.977756290852865 -0.5908719023633308 0.26934336785967167 0.9352529159851313
Ni 7.733319224577433 0.16488455085969098 7.054278002396979 0.21912046714837746 -0.7837635177221663 0.9103160435341354
Ni 5.54512733490243 0.5439032903427716 10.846571988649233 0.3185357704239224 -1.3170563361194478 2.0561237964858203
Ni 8.78718627680633 8.416035462763457 9.547942235515828 -1.0942730754075025 1.016136736115392 0.21588550515084756
Ni 8.700287076875247 7.979889944890899 3.3201281510212 -0.6086402820903454 -0.5500193871233431 -0.3812876568401627
Ni 7.731964592298549 2.941395082290809 7.667426961673168 -0.0851258832360663 -2.2527519960689526 0.33158643296029344
Ni 1.7694815029020852 6.736190069906932 6.643857596563404 0.3464898324346871 -0.0819909371515104 -0.3538606709774615
Ni 4.9959391356349006 3.621577144444908 1.5866798667374096 -0.0429343374696809 -0.00745157118203878 -0.26681494501086306
Ni 7.93066242357257 0.2985287011163741 11.562642591008167 1.1400690506956948 0.4848712325607843 -1.8990620463414003
Ni 2.979048330532421 5.812911412399497 3.2039209749012714 -1.4996409131253203 0.4260325651560211 -0.5258787853213976
Ni 5.203677063953712 6.17258932040693 9.32457811702489 -0.7873008414514634 0.38735597452142967 -1.713309098909875
Ni 1.4961130229492143 7.39586834416637 1.9724312207983956 -0.9252389833925551 0.37358206066578886 -0.8681471234755693
Ni 2.479023146284226 8.357592755874492 13.698972337810195 0.9359334869919236 -0.3387402703962553 -2.9742433952247747
Ni 5.970509516028487 -0.17715917803977604 3.1606676583883844 0.12061610572287614 1.2176608303382448 1.4631029661002866
Ni 0.5903118863950437 2.5171647993610815 1.1832132399354356 1.3428301026494422 -1.4959431525587592 -0.12207160722248009
P 0.3020535095971418 9.201630032660043 0.8567892505781941 -0.17946788575376188 -0.8486846438755836 1.1677474904475695
Ni 5.357543017426595 6.044553532088535 6.759228955352076 0.6464190435010158 0.2673044830527719 -0.5694124469379742
P 5.944356819379027 3.894908763655496 5.9438776297293545 0.19591240446303032 0.011177099662742041 -0.24840044705941736
Ni 9.196008769461956 2.878750250781636 5.550815868955183 -0.4236720353436445 -0.8347919450538914 0.5568019572628152
P 2.4263860063047615 2.9014011769142556 4.946514409345359 -0.5160898242554337 -0.1529119896421044 1.477223721772385
P 7.359698740801631 8.929625400171625 4.858887209754196 0.11097626864026695 -0.3621565924376666 0.0973386232521743
P 6.652000134533616 2.180792095661783 1.2851700530889354 -0.9424581754843189 0.5132325573122968 -0.2331710317041726
Ni 6.992436735069565 5.090459294032898 9.885840052427065 0.7982198023568123 -1.002420414970564 0.12496358405829446
