# total energy = -340886.16382115794 ev
CRYSTAL
PRIMVEC
9.17126652961112 0.00000000000000 0.00000000000000

0.00000000000000 9.17126652961112 0.00000000000000

0.00000000000000 0.00000000000000 13.42307561191654

PRIMCOORD
 96 1
Ni 6.793872461431487 2.3666269799149977 11.592275430029325 -0.5614134878928977 0.5484312167006167 0.5340363814315255
Ni 4.483621256742561 0.6121939620706225 6.11004999080496 1.1617874162093929 1.0999546991733122 -0.3645052951755013
Ni 3.077390963036093 2.1236159312465035 4.678800482064048 0.38701221802876573 0.3498101550571717 0.926138869499005
Ni 3.556250301230157 4.9650668920919445 4.78606486376432 0.20180948667375564 -1.024774614296048 0.8075462219640609
Ni 4.1707159860148675 3.26348513175453 2.694548365296612 -0.7933038531124338 0.10254767825693953 -0.10641410319088125
Ni 5.459939261609374 5.417457955143265 2.8158255250948043 0.5250534612066248 -1.0783101243203428 -0.3629713750294781
Ni 5.556531040474022 3.20420206504535 0.31761288182636666 0.032130819096273695 1.2012672194715697 0.13146718950476713
Ni 5.900581932263655 8.526150450771938 12.396048895316955 -0.7137904309671385 0.023259998969205102 0.5257273473451978
Ni 2.4511860571208524 5.590694008217168 11.602087768066477 -0.519483423318015 -0.07359988487433776 0.26964392981922597
Ni 0.47818708435901075 0.14145486324294299 0.9176145622009519 1.70395722538133 1.5721156832562797 -0.7787938324217167
Ni 8.33664457091244 0.050087954908031716 7.046053859481558 -0.49468230511393513 0.05682446518821181 -0.6302578603601211
Ni 8.74636173090098 2.7659806087492407 1.1596552908728763 0.3722309459545331 -0.20811640272838994 1.3732845624845575
Ni 0.8151366644913235 0.5273148076636311 4.726909277659604 0.1075682713999825 -1.3258947603466844 0.6570443844253459
Ni 1.919775361834647 6.855008123975328 0.6564489914794217 0.8356131554036059 0.8196617742806722 -0.9197764176160869
Ni 7.717538225274567 4.1851332169658 3.747562003465124 1.6578426904114543 -0.9279209011000922 -0.7994909557597522
Ni 7.928624095227923 4.366439984566943 12.831614352832283 -0.6773740971216334 -0.09296697654703989 -0.6487993708077343
Ni 8.553526681298996 7.568055752456973 9.37648827037514 -0.0959671968259444 -0.1833137418624133 -0.9550532385405099
Ni 7.042615551667623 1.1308905305964725 0.4128014569152562 0.08128954020911162 -0.6127756444149576 -0.6029573727729551
Ni 1.9620273866380493 6.706488634141098 9.350675740787732 0.5779035151281209 0.33799413625885016 0.279487398272209
Ni 0.4016849647806341 5.180885135563546 1.397154408369926 -0.7486296501335108 -0.9971193144726247 0.6032432794444901
Ni 6.407487003439877 1.999693778187338 6.865661467151285 0.6857715771567092 0.10741169121746016 0.9781265754202056
Ni 3.813632724517044 4.837861425622835 0.8540925361116691 -0.30026036915350224 0.3144685423330842 -0.6753812350613208
Ni 6.6893291945042055 5.830421743475718 4.88548964685336 -0.8308782118217819 1.7291373241913834 0.8777249969719916
Ni 5.609788585087297 3.4243124612428013 9.315265480799468 0.821026772948999 -0.11901379423276277 0.7112131571582654
P 0.0719183205775648 6.070470473062054 12.831158540886822 0.9391802760639955 0.9554617868328384 -0.7983205896007348
P 3.8643498283075397 6.675416383211225 12.954811975837297 0.8388810275216004 -0.04575997984393409 -0.8387771549538844
P 2.632144316594682 8.845493950588407 1.8503708854069871 0.09658220470212399 0.7496532063020186 -0.4999615512350034
P 6.651094184431407 8.06774303689122 6.004074172049092 -0.2057684713215037 -0.3876066570796551 0.9178750868283161
P 4.899712446954318 1.4811778836117002 12.744404779605551 0.04990922612561727 -1.248436678068521 -0.03760084107190943
P 4.130949374435195 6.380055745313769 8.43279246047809 -0.39471601443092663 0.5499203996516335 -0.5525439533174097
P 5.144732002988114 1.5270800724853768 3.781132507391839 -1.0427790212932686 -0.9437370421967425 1.4986137574123868
P 0.020335449228692046 6.033932147293277 3.489247779501002 1.2850800403231672 -1.224879202463555 1.461309878755606
Ni 0.8407886969148349 7.8642693181396925 2.697206198330696 0.8882858032069734 0.10261889781450714 0.7675938499408392
Ni 1.7561141109953335 6.776694679261578 4.921557486650265 0.31636241692168743 0.8681838902507758 0.08133479162475026
Ni 6.201775495660343 6.000869731531118 9.328540889070128 -1.6741540259769683 0.5749061230626937 -0.6139053871440266
Ni 8.940939321139528 2.491823939018807 10.420749768914849 0.6866691492703142 0.746288917815476 -0.21344578536110337
Ni 2.424736124511125 5.310823639452108 7.156619897124791 1.4853910880745256 1.1372773468831705 0.5032525632814494
Ni 0.7502141860062345 0.20305917750535551 8.800638203223318 0.7363438907876222 0.0029876218734142096 0.4818697267302992
Ni 1.7191355644341615 1.4215279662421907 11.576489846115365 -1.2559684676691918 -0.6029787129291937 -0.24051718765659863
Ni 4.247846337349058 7.141555174758378 1.781402961265119 0.0176994741622921 1.7226195776775237 -0.19658063417464855
Ni 5.697144898578161 8.68009015911253 8.078664181049216 1.3247182235400798 -0.30901214720420334 0.3363308896238143
Ni 7.0906087893051755 0.5579229925081883 4.652210229076744 -0.01470439608971016 2.610937262563697 2.046534095914856
Ni 0.9648906067975612 7.425268304190384 7.192956455030387 -0.42443411032064965 0.4199652759160186 -0.15240856764312463
Ni 5.313281538876312 4.647365048980449 7.1755062862451835 0.4943195224578777 0.9598835700496177 0.10281533009602938
Ni 1.0913532006795055 7.869955503374794 11.795648264849262 -0.9136718473802458 -0.7518728396611568 0.19965978732060452
Ni 4.87611477822865 0.8784523370841713 10.567060817773898 -0.3229115308941148 -0.3584102380213569 -0.24484409716672675
Ni 8.418415583099794 7.64075638206769 4.763339382483584 0.6251002274185815 -0.024536808799099676 0.2355557298862653
Ni 7.392572739088555 6.202536710780525 7.245803126904094 0.6332673366104062 0.7070471987060339 -0.6058447216230791
Ni 2.480203944352883 5.782199224175458 2.870202881348734 -0.3588930911950465 -0.293993562308184 -0.9271179455828227
Ni 3.703219847024497 4.498882244212251 9.383938090159772 -2.1504161767125027 0.5028722971238951 0.008675673397126995
Ni 1.316122600263136 3.673981849396269 3.717977331962885 -1.1050002320170196 1.618562918975225 0.13614068372103652
Ni 1.6798091736468834 1.604082026088452 2.8443499981886924 -0.08298672540587644 -1.0369143349823755 -2.1027687500378685
Ni 0.914644906105588 3.6184039743564127 7.995871489772848 0.47134517304989143 0.045595943462244055 1.2678706184234165
Ni 5.510995702260674 3.3251985840883904 5.034552992791528 -1.833288599490017 -0.2715380615181453 -1.488088946621663
Ni 4.160966929716622 7.3749455648597415 6.342779132591081 0.24792042209920528 -1.2964846826156833 0.2960512161681611
Ni 8.245968258945599 8.067559611561055 -0.22671829371662908 -1.1253829094384296 -1.4045126672609036 -0.03297542648475611
P 0.08202964190288521 5.649463484001887 8.434912857294792 0.5616633991201746 1.465814708604495 -1.6869324086885595
P 8.709630808535529 1.9141717179981201 8.215539830924602 -0.10690004168836428 -0.1007327365353878 -0.8264803398644025
P 1.8872999071290144 3.5840484100165937 10.418024985635254 -0.0146786850580973 0.2782931208537917 0.7360885802437065
P 4.679299398962096 6.7175033252174785 4.34758661200598 -1.1188409945548539 -0.333497019719445 -0.6824111453249087
P 6.9129430145078 4.511859586321393 10.727225064693625 0.5196446314862276 -0.6844178913422923 1.016653270740494
P 6.3942803796680305 8.20793501673598 10.241833950492401 -0.23373513173775873 1.1401215012001849 -0.9593582936737671
P 2.496290345808313 8.788146021112462 6.02588711231226 -1.5494398389253186 0.4107095616457056 -0.11376180180520407
P 7.142857494602546 4.435756416836123 1.5918695676060965 -0.47015243829337094 0.3945985150164559 -1.1224392534290732
Ni 2.798740372716628 1.6924013225626795 0.4967332194919477 -0.455208415389029 0.22602027959200427 0.437737255187459
Ni 1.6058795943240647 1.5994321939687808 6.918078923752407 0.2523895136141524 -1.0758837742670375 -0.3442928247833683
Ni 6.989101211592118 1.4087799057957548 9.39893127664742 -0.38957792187341295 -0.8382297670908466 -1.2743747380905213
Ni 2.6091886365245895 1.8342533016454288 9.337936851607806 0.32301180391740497 0.20222600538588398 -0.44258764130122485
Ni 6.555868924276484 2.4165553547857863 2.415120051577249 1.3812225863847116 0.11549215423274949 0.8242169977515224
Ni 4.178584932678926 7.475820325183733 10.736688894603466 -0.046447492829261944 -0.7500396431071599 -0.9121924346212419
Ni 7.4549740364105315 6.669464231247385 11.178280791341349 0.7635240507468399 -1.3233051452426372 3.0510569019404037
Ni 7.748445393407292 4.030964226962502 8.418134025217991 -0.38583722388405806 -0.5173568638933155 -0.08790961662879054
Ni 3.2207103447601586 9.019537075115034 12.369726443311691 0.9826424610126884 -0.9568964623968359 0.8325620272821082
Ni 0.2324686778172875 5.055247955667342 10.452535544379064 -0.5459287619937372 -0.12623756567471164 1.4035826992474667
Ni 8.824500921551074 2.4348336889366835 5.675021052380364 -0.5954263545032326 1.2742351271888634 1.0841874090367263
Ni 3.4560725571607915 2.888866408692976 11.863515637010142 0.35659195386569553 0.2856675589409919 0.0016686459516745457
Ni 1.1473712965117566 3.575399905699335 12.757787491694355 0.3391251645394998 0.49807590417651637 0.1514318055521521
Ni 3.374219003574865 8.984291897923915 8.08058372712939 -1.5974631608821328 -0.3596327975745484 1.4687264829346511
Ni 5.955664558912067 8.223095120274081 3.553061451865246 -0.6790939080262176 -1.116661984625664 -1.3205368384688805
Ni 3.583571504158166 8.76452083858727 4.077218592470095 -0.7597941513907625 -0.28834510577315503 -1.0682846217635409
Ni 3.6054174609807625 3.0768773721116323 7.165076721972028 -0.2791467271033386 -0.21571118435651235 -0.515090693566958
Ni 4.723440704666192 4.691442155818988 11.584127676863416 2.0220068001974534 1.329564752999104 0.3300977642299089
Ni 8.00701091007374 0.024914662596249856 2.5949759248167896 0.3219530236355875 1.7097362939569523 -0.07465429428078112
Ni 4.746185445606596 0.910181250696034 1.7209322155431233 -0.24698762587229076 -1.4602770666157172 -0.4721291024037676
Ni 6.0874556586352915 5.996100672946841 0.20482556343484007 -0.485844395107331 0.5932326892860235 0.2633519261629271
Ni 8.14777150844201 0.2112463671172499 11.158589165021535 0.5201863629223106 -0.21776421023079917 0.26410834471297745
Ni 0.37569542974961995 5.192569329095027 6.049471024138167 -2.6885614381060794 0.4037189892604854 -0.667076057629735
Ni 7.731331810102941 6.944574712694676 2.1392621119095385 0.3973709355552705 -2.5987078103770407 0.059750380585755165
P 8.59116555904876 1.9835615203993666 3.639761102674121 0.5810474600737412 -0.31297653116859003 -1.81609948930524
P 2.1192962647211284 3.6421942396787537 1.5566876721538867 -0.059583258880271585 -0.49904341029610827 0.265289252394956
P 4.7057034752392815 1.7475573193431575 8.468067902848684 0.21308557380820722 -1.9572890483040934 -1.023042976316922
P 9.089513838572806 1.6771770201590224 12.722002126905904 -1.2851913690900512 -0.4200190119720895 0.031007761235424015
P 6.442952291027192 8.256322618833387 1.2369819073103425 -1.2774528627952129 0.945307986228288 -0.8917578209159738
P 1.7579391930304704 3.6490176619608743 5.861494911532242 1.7404342372614412 -1.5940479645529968 0.10899214833070262
P 7.183788857028764 4.0194267736951526 5.9728661863748975 0.9597650421938825 0.5586449240088249 1.9503018183529832
P 2.2179424072836196 8.82473020321378 10.292532711749883 1.388433502310854 0.22242587737252661 -0.605464455465525
