# total energy = -340866.5126832846 ev
CRYSTAL
PRIMVEC
9.29830653018241 0.00000000000000 0.00000000000000

0.00000000000000 9.29830653018241 0.00000000000000

0.00000000000000 0.00000000000000 13.60901149414783

PRIMCOORD
 96 1
Ni 2.2776945905267656 8.496290471490909 0.3990451966361075 0.003574861835451908 0.22632058444124248 0.8446693520686033
Ni 5.304126022502176 6.093542955368758 1.6306998200027027 -2.544003991076257 2.700158913135692 2.1614248691181808
Ni 8.895522564089873 2.148066898079352 10.877438021358461 1.1629230724757327 0.9153312373605398 -0.41756772221811955
Ni 0.4698471523165346 6.336219459578287 1.0790787102061608 1.6477513676137234 2.871831471214751 1.1136170271517531
Ni 4.87453495882217 7.860388580752354 8.132105556165655 0.6489351250546502 0.1477597560172036 -1.2766445079613045
Ni 4.711489152419086 3.206632614073602 7.902793508046409 -1.1627212408775716 -0.4988518631105925 0.21826917489167572
Ni 3.715008229658561 7.944222113146435 2.2742700242023712 -0.9498310709096223 -1.2365586956840122 0.7203176905626949
Ni 8.062812715648 2.4061785912611726 8.508966852892067 -1.2876714551994275 -1.6462920094593774 -0.334606707843856
Ni 1.5637985039450926 4.222295943370172 1.488771397741166 1.766099246127713 -0.28303552063478354 -0.9778884912674707
Ni 7.843130923684539 0.9280621230641922 0.9850505144450799 2.2122005570091514 -2.819361940561125 -0.3963617775644658
Ni 3.70656536725685 0.9862248905698994 8.188052537206243 -0.37831828979919363 -0.9933120249113925 0.35424556512070604
Ni 5.891992861294433 8.611840527731065 1.8580387674593448 -1.1960093135067402 1.6333573036755806 -1.928975288961065
Ni 7.5418099996869135 9.233199866931871 3.1938855655422085 1.092044957407932 0.588273031287903 0.7755652981820901
Ni 0.5029593519847425 7.540694202893736 6.802777800846931 -0.18773398241729602 -0.020845218880125388 -0.16147864826519287
Ni 4.462675765847078 3.0783903693110504 10.350020403667266 1.0024942056312929 -1.175310647506808 0.09213805288784133
Ni 1.7777804339567373 5.58504646179787 7.146200527343133 -0.0460415156400949 -0.38407524688762884 -0.13819988024291036
Ni 0.4410540160685852 0.770228017515908 8.994114368735051 1.2327277519736963 -0.33335432349399363 1.802886590159392
Ni 6.494281373638512 8.353338305671631 6.051478346096621 -0.711631989863239 -1.0877751263879847 -0.8372321790642677
Ni 6.087545547605427 0.8851634556891552 7.244784893343023 -0.9202890955864473 0.6645288657278491 -0.256641604022287
Ni 8.397235611176562 5.639664714823917 7.835388223770548 2.6127293214671132 2.291195130536499 0.1439810057010617
Ni 0.8100061731926914 8.507485632649125 11.27645439324408 1.3177834440934595 0.8657788803537089 -2.4218927888650934
Ni 1.3904129805918948 0.47024697950075656 6.987030255135019 1.074315658448969 -0.07524616222850912 -1.466377008865868
Ni 8.462993235521166 6.594814664703819 11.148161937625835 0.2994265603982972 -1.708157893726239 -1.2808426052030522
Ni 2.794513068513435 7.879003790585201 9.16305623135942 -0.5475177037474118 1.25973950467585 0.7761232275680892
P 0.6886595526119775 2.786395646843068 2.8603832023680176 0.4105041305031188 -0.33012990301942496 0.9404429448265029
P 3.063977994065839 5.675193544380015 2.1952148915750738 -0.986668551452946 0.07984432312215281 -0.3926601603431625
P 0.11662122116160648 8.588315812008236 1.463009509448016 0.12794632083570223 -0.4812374924629389 0.004669380451211313
P 0.1292241459405481 2.2015042661659514 6.826212322995644 -0.10107083660109692 0.8084545927109431 -0.4412897484254077
P 9.141695231584693 5.558908921917684 4.51566030640178 -0.022657589498515818 0.05523732320675003 0.8176609418005597
P 2.7856889755407224 8.129221221455289 6.93545161853972 0.7689637337051723 -0.8168708417990965 0.039098765773674604
P 5.376941061563628 3.618296542609888 12.350722159610324 -0.06867545098952689 -2.7548298223160104 -0.5446614652455395
P 8.243004599439582 4.229855466643951 9.715582066389095 0.24413215870136665 0.6087456973199581 0.9291524595143482
Ni 0.9321924308602714 0.9273582412538293 13.424813258150978 -1.4627023882277583 1.38359494327163 -0.8383698922131368
Ni 7.673129983937314 3.2533287098680868 12.636171804055657 -0.6230032356802367 0.2754075717758805 -1.1960162554852758
Ni 7.616428910230669 7.130564494948069 1.8681227809776881 1.037403101693336 -0.5108224052089073 -0.358252372287254
Ni 3.511598474262275 5.252287963152464 10.987466743133712 0.294205421208674 2.1981085976924595 -0.3569603929487078
Ni 6.360106809258899 8.259146459714218 11.78601647275245 2.0475807920118156 -1.0361882554496282 0.8105263876383072
Ni 6.713191406153357 7.107653467461489 9.656818628276394 0.3216293217475816 -1.3262685987463352 -1.4263395333280082
Ni 1.347306031148798 6.109638324110345 9.720821662163726 -1.0937531983482907 -0.6680723601047334 0.0008692899788307611
Ni 4.84152597035733 7.687914291446917 13.530895778601023 0.2612078832367308 2.5206244358100522 0.47273254031572126
Ni 5.0534250796883775 4.635010580553367 6.074014651826826 2.549015585358236 -1.223369450687248 0.2961157508575094
Ni 2.2954357595382904 8.476940695435886 4.719891102271713 -1.3653650505271646 -0.6758759153095522 1.04625695253954
Ni 8.887786372990508 4.766711795374769 2.5073516058212344 -1.4201539733425863 1.0625122380561378 2.120583923842419
Ni 4.637697791163603 5.422391184272398 8.664613066895063 0.35605870707004483 1.420155258894167 -0.8977973422418345
Ni 8.149538021397733 9.28318756326623 7.365537352131369 1.3054848292317645 0.22661806107700327 0.02112212669059588
Ni 5.986705412421997 4.8992870510174935 10.493568590940232 1.7001797606167688 0.0926820983167694 0.852904338383886
Ni 2.134733126400879 5.660111691058897 4.507563341005954 -0.12390788910027047 -0.8025441407637791 0.9068828494828703
Ni 2.3280449208189076 1.6918175893490088 4.864690841614361 -0.23251282929488343 -0.5854826130269594 -1.9883379471900984
Ni 3.0346139417920472 6.286994224385933 0.12375023283935072 -1.214601474686631 -0.3095137694309702 0.2731881955270586
Ni 9.158646044534384 5.0969876461553545 13.14165099713166 0.017838570843317664 -1.2256479623087797 -2.2378028309582882
Ni 3.7236277598858587 6.263980915526644 6.016393975596471 -0.722055499189408 3.313775565394706 1.1536177359144069
Ni 7.870319172211635 2.30843479217881 3.485839375461108 0.6475225609778397 -0.2663737437083864 0.591168350557827
Ni 4.301405936006468 5.477716108600791 3.8489958980753167 2.10968887419647 0.6134544156495371 -0.31716845776275054
Ni 8.77383562548724 7.926620418734058 12.895722875100677 -1.1862997995284603 1.2633135951803534 3.4292993441963393
Ni 2.2321607830585077 3.4281833656656353 10.51766980167287 -1.8971337189704363 -1.4830426424470071 1.06667151164015
Ni 5.247155297903848 5.519967613835784 12.9054665705971 -0.5544877073073419 1.3266234109825927 -0.8146540366534356
P 2.5122722696791477 0.6320319355275505 10.613722238782907 -0.10106749416698724 -0.2546135178486647 -0.6089945801059706
P 8.139003040008815 0.7043113921282771 12.204683885827247 0.31855376814605135 -1.177199379889089 0.6201642235695449
P 5.718486459955308 1.7359101592927457 9.076802349754804 0.2735880020686385 -0.379680717364359 2.2806564357887047
P 4.725352927574317 7.030226468321569 10.303573502489925 -0.6596059745049351 0.540959333803604 0.3622157278103762
P 1.031433257306814 3.3404538428020425 12.630645820437445 -0.8310581890430719 -1.8345240145590147 0.05811258787201604
P 6.559267238534501 1.6939933930957054 5.278378081668941 -0.044561331550142615 -0.6556955837069353 -0.8817420885511846
P 1.5168141606457035 6.3449226745650735 11.976257036497257 -0.37146218610930865 0.13928874243171493 -0.06699343530141365
P 7.314698860742212 6.271772896465668 13.107519703059015 -0.467815305519762 1.776707874881495 -0.8269809336499049
Ni 6.7940122872058595 4.84702126956373 0.9793348453720273 3.2793436089690813 -2.093869904886342 -1.2213894441427418
Ni 2.9595394142244107 4.134417647600822 12.978329031022263 0.669957235832272 -1.519892464285505 -0.02442496581158374
Ni 6.303749772896818 2.322633306371996 0.745610750766426 -2.451029815440366 1.1291135801254555 -0.0852176716189242
Ni 2.9301846602572286 1.7814625633742236 0.9788448246136902 0.3781419121223294 -0.39451006906770764 1.3252805238014531
Ni 7.995483677486338 7.404278746621158 4.561155060982276 0.33984610186592434 -1.4326014550773196 -0.2769108957942844
Ni 1.090709961944377 7.0905352849928205 3.275838980339785 -1.6275622942603583 1.3881789630978867 -1.534650082210654
Ni 5.160020866663283 1.997053100429366 3.215142424282904 -0.5337383905751324 -0.4638480933418979 0.42712348422735474
Ni 2.2992201703284847 2.7420613209274762 6.829301220451424 0.8764512724658906 1.128862640456914 2.149086402157486
Ni 7.442931807198153 3.631602419368532 5.879188163262059 0.9600645757121723 -0.42815912458072064 0.18881770239977802
Ni 7.457418568896244 9.208085140778763 9.673204104184208 -0.48540422224611884 2.037379168888465 0.9838423948580605
Ni 8.68846787250254 3.1363653110232397 1.0476309074211096 0.8062794394364954 -1.5845191991269552 -0.6035253294612832
Ni 1.0310148335093723 3.699554444073051 5.143281125273634 -1.7670556965037114 -0.08526600835835638 -0.6346973841887134
Ni 6.179180359245142 1.4609406362273325 11.851053478334794 -0.398741590650552 1.0169636028920614 0.3606782081199272
Ni 6.762937346515862 5.185907352265005 4.072143168912255 0.5851434845199858 0.6465396282392801 -0.3510419705817438
Ni 4.5383174901179135 3.8467280410931837 1.3259013293330069 -1.0143765588911755 -0.017252873543176738 0.06625450025286009
Ni 6.7943098330173735 4.295743267281091 8.117911691125773 -2.9011669869540744 -0.6545990082086468 0.14217454861994225
Ni 3.1225759223208858 7.87954309236857 11.830912416387276 0.24501713240948128 -0.25447570671921976 -0.8249492479318568
Ni 4.407174173693099 2.0935602247326233 5.837653557466682 1.4524521712546599 -1.0599069392228069 0.49286762050269955
Ni 4.785373496740666 0.03098102779323856 10.697336331140997 -1.8979634139605828 0.6507256412961697 -2.450072593733419
Ni 4.415338086896516 9.187182547519901 4.755669126444954 1.828478836806199 0.09124099499486867 0.03756973072365788
Ni 0.8454373705293868 3.587435462971916 8.577882182161364 -1.3522657941410452 0.530362532124364 0.013674155052982903
Ni 0.9102047252200447 0.5891509349350724 3.138333762532537 -0.5505333506452841 0.2561011581377848 -0.9511148227180523
Ni 8.993331451318504 0.0667469641678873 5.143852971130139 0.43298251411129296 0.991745194644905 0.36343417359850955
Ni 3.492211504980813 1.7712158294902085 12.298164411329012 -0.08474947373325403 -0.4851766796163451 -0.6899779019285731
P 3.7617787119059245 3.6131824739744904 4.654894079407793 -1.4291654328125774 -0.03579746931458351 -0.5408544327946234
P 2.809167199730502 4.436556822580111 8.649778548529767 -0.05202421558609105 -0.8740766015861269 0.21653033782369807
P 5.7905111429549265 7.72773893865675 3.7639666034512134 0.5756915950784666 -1.3396043966232931 0.8485794857562869
P 3.098046989484197 0.5270865979758873 3.0636200092613612 0.5587629376439279 1.161448287702419 -0.5952710598722909
P 6.483197792159614 3.613080192601782 2.6082763555948145 -1.0055741301081973 0.1698409041869591 0.6276556468505835
P 9.057536258459269 7.888804205751945 8.939678362518558 0.1846255186953014 -0.919408492753707 0.17712046856750788
P 4.9186647219923465 0.6960014955110865 0.07708017230337336 -0.4389338465987215 -0.7025048307509902 0.05319046798005033
P 6.443029107605218 6.273576767947972 6.937057436091235 -0.5650739674636205 0.33674432301214907 0.30259904458900794
