# total energy = -340859.8885974704 ev
CRYSTAL
PRIMVEC
9.34746467263085 0.00000000000000 0.00000000000000

0.00000000000000 9.34746467263085 0.00000000000000

0.00000000000000 0.00000000000000 13.68095940460817

PRIMCOORD
 96 1
Ni 3.9998174607833104 8.545433375273847 2.355888221957546 -3.5322010633585874 0.9551005468386777 -0.5605657951806217
Ni 1.7468167808698722 1.1804258628105808 11.996573363275743 -0.44260641035430226 1.1378576448666726 -2.6999421691391956
Ni 6.886024735192061 4.895126960604032 3.8933956424017016 0.9831358557093389 1.153576084043194 0.1109659842276218
Ni 7.46128639708708 9.063946580027977 8.813985096376149 1.1115907407503436 -0.6981139007721461 0.006579967210362861
Ni 5.013877149949753 5.771769573765167 1.0628889743604109 0.5679564312177381 -0.02407632422291337 -0.9047339214606677
Ni 6.129964414423857 4.70852352625984 6.296743746000071 -0.33118636930839734 0.47006296390335817 1.289577671083205
Ni 6.656161235018838 8.952702404697103 6.291394192051507 -0.4532867728862839 -1.3203571183579066 0.003198452332639653
Ni 7.723632336490181 6.595374673202464 7.908456013588511 -2.526137909429114 -0.49090535457000617 0.12884157895646198
Ni 3.6505681436765602 1.3151228266386534 3.7928954427976826 3.4490222765465632 0.43197309901017217 -2.454310028853534
Ni 2.7526693961819744 0.9996365514019236 7.772398993671821 -0.08660581021570245 -0.4127415044740698 -3.0147958627258404
Ni 0.09742862276058285 0.8111140825904238 0.03133830957182481 1.20080364957159 1.6466558205566995 -0.7359798225799841
Ni 5.271128721185866 0.342425668002344 8.00858698834373 -0.8448657843501257 0.5786285662196035 0.550241273326162
Ni 2.7051094966707163 3.841499454096561 11.68200687854843 -0.12950132402764794 1.3644206843360245 0.540153807183173
Ni 0.5788165026544795 1.6527532453388598 8.907685950283529 -0.36657091945527837 0.9147244570144762 1.953398969221068
Ni 5.1674933819796305 6.06113903311462 12.078057081046879 -0.322935699263831 -0.08088896233658327 0.9951737607104796
Ni 2.9256629221754604 8.973967886495082 9.49677438170627 0.35574143293994215 -1.1141980964662035 -0.29786230123497087
Ni 7.059177168082499 2.1794080916956435 12.396809360389197 0.3338011812234251 -0.3881432463094154 -0.46592143093115884
Ni 9.217459989948063 4.506842631634268 8.180912170623566 -0.1448361546125054 -1.1102154576693717 0.3381219200859661
Ni 1.9864109916152681 5.885051496362836 4.667792884331703 0.3026226987380917 -0.02783913369945528 1.2770420005100394
Ni 0.9387097776176505 8.411100962562312 10.512763387551 -0.4278667901512825 -0.2048467308381827 0.6265091919509661
Ni 2.453195327679283 6.939323977922641 1.1663439075012823 -0.00836122748050173 1.7029195281454348 -0.7619042557552298
Ni 9.378965482038378 3.314769828023564 13.049733496556884 -1.2178199816239283 0.5065379189009406 1.2056730618487494
Ni 8.601200348639447 8.386012367772961 0.8504257794034247 -1.0907954012715473 -1.865352312793781 -0.37761920684964
Ni 8.794356355616774 0.38225895333592813 2.7619532979497774 0.12164428987707436 0.7583041971087973 -0.2270952578237379
P 5.623518786373547 7.418418924768167 2.3912945480913397 2.2870749377205386 -4.906183166130802 0.8879255916540773
P 4.174512225320635 4.788107839239174 4.584954718950666 -0.03397918515892213 -0.09454152012301137 1.878179032244804
P 5.860598529161292 1.4960803924087889 3.1831350935744007 0.5697844855654123 -0.3770972729078989 -0.0352523954443909
P 2.681105207766449 6.7457286401125645 9.05965422431737 0.7098502153724677 1.051331281738654 -1.7873105900980057
P 2.4447452197472512 1.8393847220766317 2.0575208932548015 -0.1744110400561448 -0.7458772841993541 -0.37213195848282365
P 3.6700763021435403 9.22192807799177 5.80587099385105 1.9449981467518827 -0.8381919718743758 1.7264924303693685
P 8.368813033044047 1.3582146381062044 10.831420322755147 -0.04793127646364003 0.6497954161724163 -0.9344157647958165
P 1.8981989688778969 3.3351099108334106 7.770497719387114 -0.5860305151106294 -1.1361974835554305 0.10616213508107523
Ni 4.552514343311157 2.75317415926641 7.560590121231695 1.8023703126446056 -0.07316845376387399 0.7846919430737067
Ni 4.36485464547546 7.8403167361755255 13.586710747990375 -0.05139120998778245 -0.31626034412618437 0.23740872393460408
Ni 3.326762625011171 2.602923014466102 5.625268631732924 -0.9521381217762442 -0.07184433563581176 -0.11655299139709606
Ni 4.782994776143132 5.489046161694113 8.426376589091655 0.6119804022071719 0.305598493536964 0.21879676526037156
Ni 5.34247791791728 0.7234965585969434 13.29938370963998 0.23010833361844885 -0.16578113229528868 -3.886928196101403
Ni 1.6673165950712774 4.750203870583877 1.3601607802206392 -2.610047660869892 -0.08124685989663427 -0.40541257491282434
Ni 2.14899144212614 2.677254052381496 -0.035199747167756576 0.5974636966482356 -0.08469188102244124 1.5567682542659318
Ni 1.7550799395113725 8.915443411094142 2.4630924231200297 -1.3765658043389906 0.03811634725574726 0.6050181119567258
Ni 6.906112436459689 6.565154320388019 10.799571641620172 1.2952338409277175 0.16234896668528814 -1.263270914867876
Ni 6.141489838185135 1.0464206113574757 10.247640316437053 -0.8344649007317758 0.11058623229069987 1.2096970954064779
Ni 0.3273248390596479 5.096863940016763 3.295141087264191 -0.5095463667099612 0.8543197306741739 -0.045867966176708096
Ni 8.305128757224432 2.6860967538236444 3.7952622208158138 -0.17928867986342026 -0.37588345510545584 -0.28041890894754284
Ni 7.012131379120203 4.606823112210608 12.616074705282179 -1.8126768367769364 0.7199415381701989 4.037774818574046
Ni 8.254484194419401 0.6871106181807632 5.05221390621263 0.3529471580242567 0.4513430188963517 0.13499602859363202
Ni 5.982508161516998 9.209514645100466 1.5981687262358737 2.5883264671427164 0.9354429205087503 0.13321476832349316
Ni 9.033333633703416 8.268720382893388 6.498263864235785 -2.1079202123318215 0.26774902678935825 1.3796572987801208
Ni 2.673318769815805 4.629920697055797 9.484886276321362 0.5921577110542898 -0.3248285454111696 -1.5516592151741404
Ni 3.0949828946099993 6.327364170296254 11.11130584459593 -0.1194205427528782 0.8590752430812881 0.3373801568239351
Ni 8.19349198838344 4.047882123379004 1.9527928354454096 -0.7850884071811769 0.0761373065842108 -1.8740871215636175
Ni 0.5971655755201635 1.5406491032715404 6.598025614142204 -0.24487160797055244 -0.7266608591719034 1.304955953311488
Ni 0.47106454007073745 6.914188645810657 8.335438845698333 1.2221525475610113 0.5192209136852478 0.2745513944231723
Ni 7.368755845738427 3.8619890963388324 10.71951060794998 0.10798916098748498 -1.0831453409254572 -4.240715333528451
Ni 8.194183700758408 8.6387023763201 11.775037519249254 0.07941186357042453 0.7562732827216975 0.24331711899923902
Ni 2.0295214980118725 0.488375109627518 4.786571116071004 -5.003972246656834 -1.3589846009221176 0.9542790793786468
P 0.3398850271440185 8.101363378009431 4.563666803237824 0.9460163251492224 0.9139690669056905 -2.3427971709835074
P 0.216404086001394 2.3759198384380147 1.655313515872691 -0.972714660376015 -0.20975316700086455 -0.43545488691118556
P 6.218793369819983 3.8653261411748225 0.8770137075028396 0.6043473111419463 0.10184525287327621 0.5620508643665805
P 6.29656427468116 8.218328201630575 12.691128302205477 0.03359789056010343 -0.8245954641368638 0.028011397611261434
P 6.782174404301714 4.653083714152672 8.503099643179402 0.37883842396872175 -0.9626786162962517 0.9638746934868822
P 3.267256665834939 5.7242470641120144 13.203876925586064 -0.06253205709595037 -0.9883626513259173 0.5835218897561627
P 6.685428146451573 1.7885251675874894 6.791925679295847 -0.49602133564033285 -0.37421352360220067 -0.034400074746424626
P 0.6974769563407447 8.98434357211959 8.401860059131332 0.33664456420949124 0.9984290344229837 -0.9211455300494718
Ni 4.147376535799962 7.583214724371839 7.507016063044033 -0.006569682797717718 0.3775467017404917 -0.13102933063640013
Ni 5.4453280701032805 6.735857717572492 5.0832147723150465 -1.3930396336242976 -2.2291199584723094 0.5640961769313834
Ni 8.968826781005461 4.352656204268269 5.434063440602295 -1.3054143810051453 0.5145571896609913 0.2641433117159709
Ni 5.326344194144395 8.613482917027378 4.2068946466800785 0.26819074231246715 3.6554697762129624 0.014777158309174553
Ni 7.357034125222092 6.23948865628184 0.9505735795947907 0.2176783353852122 0.08422856823277752 0.03539072079446808
Ni 4.624788939030703 3.220538038131073 13.149617698248601 0.9452989873672235 0.531684079149265 -1.2555614620387603
Ni 5.999997267646236 2.9271304741061344 4.896798287261386 0.40767308881222686 -2.125100066545218 1.4266830327103557
Ni 1.892646574949106 7.668211219312066 6.569158774191208 1.4652629498660827 0.6357425376237761 -0.8125177070367231
Ni 0.9501604216627157 5.845651933383285 10.14031366348927 -2.1089602235605613 -0.7015252404465402 3.2287388994383357
Ni 7.526821470882959 2.4203389898683407 8.762134710647187 -0.14722265256681097 0.08775843576290693 -0.7310744148585667
Ni 0.9220983984074584 6.068102894186926 13.149891578959231 -0.600765764438275 0.25958885957606903 -1.1171803190229792
Ni 2.2279681699112466 3.484473046503693 3.450420233233348 0.332315340706518 0.7214883138320284 0.7277792890470627
Ni 3.3247903099960614 4.579360261431505 6.783183930470585 -0.06701940344334263 2.1128649579316066 -0.6201701371068159
Ni 7.283030248565127 1.5677567503986334 0.8972836843287365 0.5498314394822531 1.4448980130564857 1.1681542389676849
Ni 3.6337800973868157 3.9520986543750998 1.4217661799295425 -0.44900511479179445 -0.7608387906051929 -1.5677795177747709
Ni 2.996694305112971 2.4108232709802784 9.501289207072611 0.6035620962364895 -0.8917773612999996 1.8172456870945413
Ni 4.5085064803199995 1.7224198984554888 1.3015643293428434 -0.11931358486136871 0.8943721186103694 2.902452281424401
Ni 3.5264151198344744 5.862150208272705 2.8255833584751384 0.2669530132506241 0.24849043567006238 1.6265446516291213
Ni 5.026056896227891 3.610196444386245 2.982982509398925 0.9071003648103152 -0.20735895573707513 -0.11136681921046628
Ni 4.203928696185794 8.847552776237563 11.31988516804212 0.6085850033723776 0.49953860476497197 1.1185098364676802
Ni 8.068553777521123 7.4021262940983314 3.0350385393474704 -0.6166788361241057 -0.4265131043368655 1.0679956297682123
Ni 0.5116652522419541 3.40696387064926 10.836783897900503 -0.37395975572018175 -0.17002525228362333 -1.5249583088441867
Ni 4.904044441762393 4.192263060456617 10.358716237406446 0.5461627323814143 -0.7025259137969126 0.8152973266643894
Ni 2.8184661989845976 0.2854865225851115 0.3979215648966719 -0.2529474430001515 -0.407245514356505 -0.2855976249350049
P 0.7370915110044068 5.723919902853583 6.586985323789855 1.27294829005664 0.03653820413534998 -0.6837943988256805
P 0.8209868746234017 2.62648797253762 4.945365843448609 0.24524570348051955 0.6204586148815121 -1.7927135062811321
P 0.3772365606457947 6.73227763865881 1.745170692366741 -0.3182966578299228 -0.4576545629366763 -0.3283805244284861
P 7.360885280607044 6.473969803931194 5.763309183622156 1.0967906996230337 0.2177423558539282 -0.5228641668647898
P 5.522706381454341 7.996288529266104 9.768683712066519 0.21388261578820583 1.085296325830189 -1.284367844747491
P 1.63844227714866 8.582206300721428 12.623270383474743 -0.8252415823612949 -2.0322878704084872 0.5569323121930925
P 3.7327603992588116 1.968716241266445 11.625135034875788 1.2904168791550488 -1.099694246423074 -0.47340822622650724
P 8.660612833170413 5.317828653960678 11.63798125537467 2.5155156538285772 0.6489852615662953 -0.23762803903426175
