# total energy = -340859.7740757763 ev
CRYSTAL
PRIMVEC
9.47286926637132 0.00000000000000 0.00000000000000

0.00000000000000 9.47286926637132 0.00000000000000

0.00000000000000 0.00000000000000 13.86450170363412

PRIMCOORD
 96 1
Ni 2.865306193118713 2.3547943116093197 1.9738201309625474 1.3424855748258298 -0.06422924229271519 -0.5149253716336875
Ni 8.814590298215391 8.192128045302487 0.05205152316703431 0.529874536744352 -0.9003465910262494 0.22171676712064395
Ni 0.8475641555687974 2.2999463973745655 7.593255131945263 -0.6441117355240779 -0.34887144529298625 -0.3397401724156794
Ni 3.453751371762704 0.8623560412471339 7.785126208498302 -0.43475297574815447 -0.5802177650835942 -0.48084977010621704
Ni 7.740044822687734 6.311289811915528 12.545405103541052 0.9892334839666447 2.7399405639090038 -0.5953106548609748
Ni 4.422039670438679 7.978003303789121 7.306814504893362 -0.22996872271679103 0.6308129615326425 0.011216951761741973
Ni 3.3627549876281533 2.896651918196917 4.6395339116227365 -0.5340199263712933 -0.14747796311072664 0.03141091021111365
Ni 3.393797580883298 1.6212626641536703 13.000854036678708 0.618805138438489 0.6719385279283588 -0.44079918194223444
Ni 8.13168166521061 2.2269579381036184 13.111021614047852 1.0385313017605082 -0.6941240628864627 -1.2927326717724186
Ni 1.187130529185698 3.3536799786753217 13.320250776618815 -1.124880001660082 -0.6903784798011013 -2.0359118403143195
Ni 5.263751487248542 5.641235862782347 12.814709309720643 -0.33374487406419295 0.1597197565925572 -0.9663907750405163
Ni 0.9346302461599979 0.6401064195888372 13.403631920985953 -0.1354634551483538 -0.09445718793932119 -0.6148086156845863
Ni -0.010849277404674309 5.261610618748187 6.762008941326515 -1.0440383476216664 -0.5719969198356988 2.438211580629775
Ni 5.873482203592964 4.8900183680250935 1.653868280871464 1.217502964604142 -0.09086227149921125 -1.2839433556155628
Ni 7.587200073779657 6.54297725342738 9.231317930105035 0.8804215699675483 0.409676749505817 1.2212092098111356
Ni 6.733751371695725 0.4154611092414266 10.929415038534716 -0.5427768466283168 -1.195701038237702 -0.3429396531895835
Ni 8.663914836416081 7.108488615083057 2.95361038774972 0.4451890834798139 -0.2208428491561229 -0.5079975341656026
Ni 0.8073158277621263 2.511144022221517 3.025289696459831 -0.24526113009948727 0.24922422851229337 0.043550888007757256
Ni 8.064140105885256 0.33942049142705344 8.695163938225685 0.1326162155075458 0.5120099977591053 -0.37509464065557335
Ni 8.003030624930437 0.7845269456767121 3.675950787212807 0.3500821777716358 0.5177065339232503 -0.8300978820123317
Ni 7.215636241664975 8.946727354460743 1.619304622034098 -1.1862586618778796 0.2026173272870317 0.5590745553470758
Ni 2.342716403034309 9.516444670161365 5.869495072832789 -0.4468240479800756 0.17212121558070356 -1.2486235972683464
Ni 3.705625498116398 7.702143871935876 2.5691198779554623 0.8996143408459152 -0.20373550005187493 -0.5669770980236042
Ni 0.10286873144204989 2.0827619190221967 5.304032022811413 0.5011074919139886 -0.62632895761936 0.005818663564306108
P 8.922268405487664 0.7816642445226978 1.2299516883405828 0.4004035517340072 -0.10347584649816373 0.0736227676924732
P 1.8503734851695204 4.0336899136221 1.2253374536214552 0.10880677179277391 1.5001116821141518 1.550586550935252
P 3.216768596216789 6.279299931713323 12.010928756844944 1.0359123760804223 -0.3700167119120337 -0.7527151330567939
P 2.347301271858078 3.232398830843273 10.711645136849063 -0.3065186913583883 -0.7859219588260659 0.28540402086696004
P 8.168957406577407 0.16504580478620492 12.441379734736643 -0.6892063138698711 -1.2534313030696347 1.9519172424692188
P 6.157990365272863 9.217793514361865 7.802858472860313 0.045868994617972614 -1.3534037644002306 -0.9314499972992732
P 7.373956309127057 3.5426447788747826 2.964341254286012 -0.8633419887774423 -0.48369803818828955 1.460288379469627
P 4.574401303003755 1.036104571215976 11.15626563289488 0.41772995882759667 -0.34548350265735983 2.0879959626040683
Ni 5.970323348190873 2.057384101710468 4.44235234444448 1.1031621503670164 1.6066224587838978 -0.7723074533664247
Ni 1.8128230305880755 7.592050182948603 3.7547707449298526 -1.991508888718912 0.7418414235670836 -0.9987362812507574
Ni 1.6924133867473217 4.42204914330815 8.205331330770605 -1.0687420210159335 1.3774304663321308 1.709077834437347
Ni 7.1173362751685945 5.44520430195782 3.928853667191007 -0.008668217197959264 -0.803489535396184 0.4734231386248427
Ni 9.077585573327564 1.037724431895448 10.847018125305572 1.4315393323613927 1.1825238774257958 -0.373206422493925
Ni 6.934225708301962 4.6309922252210995 8.215022076239025 0.7450856415359942 -2.7196429900022325 -1.6797901412168232
Ni 5.357116088750741 1.1190395434310494 9.12329974681877 -0.054079812563539116 1.8054692632849036 0.34257198543751965
Ni 1.8539068654820527 7.010918059535912 5.8797134571307215 -0.34611033760808135 -1.5399295854420383 1.0001303333848066
Ni 2.2171629910710213 7.015701858618563 10.004125988959672 0.5220915503648234 -0.5888214475922053 0.7137914594084029
Ni 9.643854764540889 4.893324399470331 4.4054735163085 0.049595294429624265 -0.3624610110519629 -1.1477728470978557
Ni 8.829888982410404 8.282177142489978 10.129585619515202 0.4672838584963243 -1.1277166997779289 1.0692798957972747
Ni 6.6663897968903125 4.814112264957203 10.643889490673674 0.3161808970385006 0.6923965386723947 1.018534289813291
Ni 3.195558841472123 9.284814065866337 10.107998844565605 1.1012158252739228 -1.1366461410570747 0.25660586568834515
Ni 5.977210124295997 7.153977334280862 2.8096549795528514 0.6421651533206683 0.12993918289601492 -0.902779111727142
Ni 4.050968427536469 4.575945380727462 10.335001952124248 -1.4792926884862718 2.3585577762518732 1.4392989217021535
Ni 5.88358028244862 0.47946076267172444 13.490811686010801 0.5467247755324712 0.8866089297251828 -0.8210923360796116
Ni 2.2538419416611717 5.135346741574605 3.1399350992277264 -0.27579915078734435 -0.3708721179337936 0.5551109427136376
Ni 4.635482365350162 0.7271744047539319 5.608038191722641 -0.4010103320800707 -0.4329172080909964 1.2558905632434048
Ni 3.220510379657674 0.45927786697767126 3.5258815890596154 0.539286316976555 0.25148114286727014 0.741214331506046
Ni 4.573340341623048 4.764985963882688 3.53924686059568 -0.10223194678873361 0.4601688447180978 1.1030544211445585
Ni 3.4929027412846803 4.192985686639653 13.045317791399794 -0.803291560452765 -0.7229011350191551 -0.12188083136791267
Ni 7.567382830847169 2.1064630384376293 7.372476646915749 -0.7742578922245762 1.5050258315863179 0.41541776575465234
Ni 1.4140910088317222 6.600032346248783 13.063230987568692 -0.6850115590622331 0.15804571132424394 -1.23109972945197
Ni 5.480462322127381 5.665126439587191 5.89712743307852 -0.9912823960758734 -0.5151775968538096 -0.7352951378081336
P 3.275680371454429 6.133853493861783 7.863959428232608 -1.1429165474468188 1.424414034170521 1.2462278433426601
P 2.3586118780059704 7.785069371281479 0.7332910365710961 0.825519775723346 -0.9788611395933852 0.16249757644801047
P 7.406372468455438 8.210022295732443 4.290258794085421 -0.8459572176420915 0.14839867515278313 0.3848720317573114
P 1.490915980238261 4.100454697650865 5.936224807244513 0.4094232387341142 -2.128978061443385 -0.8399953436317017
P 0.6704347584858993 0.07884079802988156 7.265041045101926 -0.8925970289878175 1.9294465721705287 0.8625912266543467
P 1.0247560735902013 0.44501835656358213 3.846525905908999 0.23906091482604638 0.4795523914510322 0.6073675860255088
P 5.462369141438541 3.3757233459333995 9.53269064130344 1.1981806101264463 -1.349262488538347 -1.3893966375550717
P 5.368369857681811 3.1792181416353436 13.911641070381215 -0.6223429763884185 0.5073974386877584 -1.684790422644892
Ni 5.140623129869727 7.542251308141676 13.963910469546072 0.08996392805465797 0.9737713837753035 1.3564906308556703
Ni 3.459188798838827 4.349420653077085 6.779824566939866 2.02665458338211 -0.6774144634412657 -1.52553320751105
Ni 8.56006376840993 6.718878966626889 5.487999884365134 -0.5849647928502765 1.0727483139618492 -1.7644311143966709
Ni 1.6565491029316428 1.1604359830175566 9.4893228975801 -1.1521077270277835 1.6158020684006367 -0.40576584448718506
Ni 7.160977784819633 4.386203805231412 13.242540091916775 -2.054687064039294 -2.3304077961802188 2.8685630848761243
Ni 0.8031146101519168 6.098623892300634 1.3360620357154709 -0.29618362798096737 -0.21591815816099588 0.7830523505877547
Ni 1.6690627635023008 -0.07993301987984135 1.8302947910396437 -1.3638092760042704 1.0146478102746914 -0.2398445870696063
Ni 7.71124729949712 2.763993854130682 9.851573951718237 1.4291430642150742 -0.033349521994723214 -1.8856930812336623
Ni 7.944421981515856 3.58324549742576 5.69050425689892 -1.3973004657831807 1.4895259361785058 -1.0703816135018855
Ni 5.271481348736549 7.990583274446073 5.007774661127133 0.5374770316819583 0.4300702255605045 -0.5342245861829316
Ni 4.0167240044002614 0.1899319801724093 1.0334076452776972 -0.09738850265350324 -0.023809443714771897 0.929689820075057
Ni 7.3034686873963475 0.29007252520692733 6.092922172166281 -1.1283695028705794 -0.45266585147283334 -0.7999735518231255
Ni 5.5119596131171145 2.281663759296314 1.900781465483406 0.3577219537050807 0.11748295941053315 1.0766746455994491
Ni 6.880296662405855 6.9980065384474885 7.099235516184178 -0.6185865946697798 1.3657658855100092 -0.6335786972032379
Ni 6.365086237639046 2.6406949851013963 11.588477617221164 -2.4839185957485865 -0.29965436013838714 1.937505180808947
Ni 5.327911232172893 6.081591672992501 8.560886013479978 -1.8968328999005655 0.01049215778057548 0.6531023690584623
Ni 8.909536868919181 7.776553261627413 7.592617607829892 1.50945738499511 0.20995037061333519 0.5054611408969939
Ni 2.048119635368225 8.117339740832126 7.866537943302504 0.9385123034626933 -0.17403591610491317 1.3975298081851675
Ni 9.287674872446457 8.992339220961666 5.330582581363601 1.3929460454692268 -0.6956970638005373 -0.3128058099186807
Ni 5.080621974642968 8.01085521511315 9.903705046988826 0.002267198767621902 1.3036883994529742 -1.1607661740337298
Ni 3.518242667118526 5.699181405333985 1.1425028938227701 -0.15128473845132653 0.1518904903561255 -0.46493926952354764
Ni 3.339631713250427 2.95433222040338 8.728355925563708 0.7966948810718537 -1.2505048734514592 0.652566036939018
Ni 8.550676154764568 2.8995600891243902 1.3048593509662727 0.44966383142171595 0.7628103125092669 1.0247015949662677
Ni 3.1648193800400364 8.61421069030386 12.764353430188846 -0.20232499285759348 -0.3221363432909871 -1.0069085326489045
P 3.6384439078309265 6.590578422517128 4.668842969764762 0.40675726186617683 -0.7672603778608205 -0.767457324362975
P 8.803857537105205 4.388193107820237 12.082331457766513 1.7324213942592936 -1.041488070395987 -0.8408173253123647
P 6.157507248929862 6.851821216777242 11.13850494992446 0.9156981337816552 -0.33887448198127446 0.6061661095182399
P 9.02559846567293 4.418591545951382 8.913710615207926 -0.25610835722663633 -0.031136830614120568 -0.38742590852741665
P 7.6903122579671015 6.390454582081304 1.0583942330802898 -0.1590011332589778 0.3613271545578358 -0.23307744354910181
P 1.2284890772943227 8.926682762660962 10.965434677409712 0.644861726316225 -0.051192463713415064 0.4794575177443808
P 5.7106246316544675 3.6209759365271466 6.514430761277737 0.5754504256019379 -0.8530575761322986 -0.5590614427209533
P 5.3624398413932175 0.4043892194041932 3.0561939858207054 0.1927437769270616 -0.829890651097532 -0.15780634161992824
