# total energy = -340868.46041631745 ev
CRYSTAL
PRIMVEC
9.22743521530261 0.00000000000000 0.00000000000000

0.00000000000000 9.22743521530261 0.00000000000000

0.00000000000000 0.00000000000000 13.50528416103759

PRIMCOORD
 96 1
Ni 2.223045949379407 6.890771608554232 6.464601601968217 0.7824129172315428 -3.4450902884820085 0.36198792807028624
Ni 3.72322387106283 3.7157865584813194 0.5749485542386038 0.645901737544965 -1.5824006101220554 -1.5105591026997212
Ni 8.545545975635457 3.0261280692231227 7.894580889414542 -2.1492830915493246 0.9591155815353418 -0.34561771424237897
Ni 1.0386954442311764 8.07460537734444 4.814619964607631 1.9517442072264644 -2.4148700776903573 -2.43084742695522
Ni 0.41760417870832667 6.130624743601047 12.904528120097453 0.2562813924693909 -3.2514358268152197 1.402663786977623
Ni 8.862886691504853 -0.031315146039544293 5.762110518904676 -2.614333689839756 3.972952422782022 1.310918084432194
Ni 4.595853168235139 4.203281175098923 4.182546205989851 -0.30223909014642786 -0.2689147649626853 0.13128284140810292
Ni 7.182109412693234 5.314614987371852 9.199934440228258 -0.8323951626869405 0.32039699200237726 -1.1342205623347175
Ni 0.22584331624688528 5.451033385889288 3.877839694074059 0.658134275055415 1.6873016191025199 1.810643351286675
Ni 7.350242505184184 7.498573522240987 4.414445487804039 1.3614474606403133 0.4682169118335549 -1.3944491123773146
Ni 7.365735368489837 4.122873306816934 4.480553600121305 0.4537757967075604 -0.39409714990000516 0.3927918008250203
Ni 1.8057259756679915 1.0615148908987644 4.045088798295395 0.827113345462711 0.14673337163521827 0.7805740642505912
Ni 5.446355076362209 7.661243973232862 2.8484538089787215 0.34603551850608794 0.24232441606866653 -1.7566280734124844
Ni 9.01124539086655 6.036375722872077 10.659571626394477 0.7439445859530155 0.34936689687216604 -0.27628123263008547
Ni 4.481580613632871 7.523432232035763 4.782099715561704 -1.3754172925568442 0.15717153624940675 1.3094859799713576
Ni 1.7775915264607633 3.5427906077639966 6.541838000852855 -0.19605278669563656 2.5102387217003543 -1.5990315338105172
Ni 2.331246851774933 5.672141182512314 11.530514148455246 0.48928350269586707 -0.3981366100767014 -1.0588800406201893
Ni 2.959828949002088 1.3158783631344004 0.6416047761927707 0.5338173234421839 -0.1055350430200376 1.1791387630036465
Ni 5.346431183129977 1.1010913594621627 1.3040570962011828 0.0879191297104873 0.8972227006852871 0.43125704677975407
Ni 6.199083083603811 8.192153671359161 6.1574101418164435 -0.41492282839610484 0.7324851791631642 3.1040097999883507
Ni 4.603816444609635 4.80374727798878 8.943293637043347 -0.826289564009835 -0.2861301003997072 -0.44025950738868047
Ni 7.227203887365494 0.8447338385306651 7.675079589218864 0.990881561093029 0.1941889940140204 0.9377296596603979
Ni 5.623125047980075 3.7915622544110534 10.863717552065475 -1.4839816093215086 0.8762818367675618 -0.9326190779067098
Ni 8.422645769341239 7.1321520797946 6.445882827398921 0.31679153403930604 -1.4477678784051131 0.5383702329201889
P 3.2855574032543537 2.625399023578155 5.205328015880986 -0.3490442234254247 1.0795108294966635 0.11533634538117556
P 5.944590427278669 5.7580209197283425 4.58446282251477 -0.32246981537100594 1.218452730111921 0.8009138042492077
P 7.513217461529892 8.67178651338688 10.949111926202365 -0.6296647068608124 1.096393207074299 -0.9958923840440591
P 1.619156468117664 7.556217308465177 9.868823818868012 -0.7174501392069128 -0.3502639547651387 0.12009494311208349
P 2.780253837154968 6.252417657699508 4.565393405416818 -0.8369683838799199 -1.2540383405260143 -2.3026946465356666
P 6.22162570722246 3.485755832247474 1.191367046695353 -0.7784207653530142 -0.8676627276399831 0.9137677495281619
P 7.185735794634342 5.10033549262267 11.346990617186751 -0.5548052385477605 0.49388834845773005 1.5069675286937207
P 9.050397397421575 2.1070294095688196 3.417984936149577 0.13408508674358843 -1.0374365260344327 -0.09130912922864275
Ni 9.276155821266785 9.185874597572617 9.711689828854931 0.03849147120697887 0.10333597848618978 0.9585931333729685
Ni 5.811355493824039 8.438461592870654 8.968480843522864 -0.43805555775882626 -0.6899807301420503 -0.0015634878323779525
Ni 4.468616067507533 5.319357888943683 6.451015126726261 -1.5622146220924835 0.831670111595458 -0.882248595873958
Ni 9.035624274043165 2.53845813134119 5.645842992863051 -0.47929450980395516 -0.7042328691856904 -0.6261608074726119
Ni 1.9013775665115888 8.32554547120819 0.20429448737393016 -1.1727639698255545 -0.3650087171744811 1.1398445933897143
Ni 5.165896418046533 8.422424310902088 11.785858497027627 1.501923281401594 0.5928375107301338 -0.8423538165615493
Ni 1.2582253494752458 1.5890565752629646 10.757376900558825 0.8606189334193244 2.340803023371614 1.3830673529029343
Ni 0.2922688523269358 8.076921463520568 12.006696852549682 -0.18179756232820304 2.592930284463315 -1.8276190599090654
Ni 8.109171348722032 3.387788155227749 10.418718964434087 1.0293756034031691 -0.5301290759573193 -0.21495373736519757
Ni 6.624209467295324 2.4273413594968334 5.897622783308584 -0.6424420611311388 -1.4142067546202162 0.4059291095379267
Ni 0.6805260968736788 0.22902124484871192 2.109660151277242 -0.6611458081882292 -0.07412490413987234 -0.21339436329787764
Ni 7.20881360948094 7.065243948865898 12.288349540949786 0.13667367340637107 -0.9009921950300482 -0.1391262487119217
Ni 3.439996982257758 7.124373352119397 8.649985775539392 -0.03660093905248535 0.00875512048481073 -0.061471734152236064
Ni 7.3745937060559035 8.986801915645183 2.145570559929184 -0.0918608879670547 0.5649608389245238 0.7464763512359338
Ni 1.6637434338668693 3.0821385994585695 12.903164305209678 -0.552106608669675 1.4300218672756018 -0.7314701076350887
Ni 6.131538259662548 2.1398883054779505 3.5234342174386435 0.966981871657296 1.3019241084636999 -2.0591440713693827
Ni 4.667144330772051 5.3527427486458 1.773418880369747 3.1173635955874377 1.4825906425112532 0.6770002587219824
Ni 6.320359261344251 1.64669113405219 10.448605703541103 0.25937005869704366 -1.7268598410111164 -1.2085452411902218
Ni 6.6173534831165854 4.55601833149273 6.8694765341428035 0.5852316733584179 0.31669846010486746 0.43242355628402945
Ni 3.1087874316364883 0.13230942172767593 12.09102361246116 -0.7562673691844265 0.9669052527830896 -2.21211031128819
Ni 8.657502444061597 3.9908748496475672 2.3617767430989853 -2.4289754067434877 -1.3354919171168163 -0.29395808108455823
Ni 1.3682901937336318 3.5126445777344744 4.225925300502183 1.2106370907222441 0.051364984735537356 -0.07573210072599215
Ni 1.4493901196379706 2.753715734196625 2.0038731458684693 -0.2069342094948307 -1.3322993783214476 -1.3319548504978351
Ni 1.346079757773711 3.2991125052174297 8.765509570322866 0.2368860186619146 -1.4643905745634587 3.010599822366621
P 3.7607795313689696 3.3835158528391145 11.916482066387259 -0.6451455761052309 1.1345257522799623 0.503019878445353
P 0.20154194352397403 1.0248727466541256 7.8838447688331685 -1.3767995176163514 0.2973992455556233 -0.42770892441717956
P 0.8444800840691371 4.676021123208048 1.0827453732654388 1.506108266017219 0.605868375772163 -1.6636374427163607
P 4.395553237457407 0.4544890044925358 9.88176252817545 -0.16593565559528195 0.45734680188827037 1.1694652444696245
P 6.235088534835889 7.409251951783141 0.657423367952676 0.6138089707754784 0.2516233248720892 1.3326140813483887
P 6.1683003605617275 2.950361600728354 8.44833863925682 0.6111643340637798 -0.3688553446140809 0.2746354694965464
P 0.9425271170295585 4.101318018739503 10.84185314491673 -0.06612080288847323 -1.1920490433074116 -0.21622360521655665
P 2.4212881621600206 4.858050732755766 8.058400156059516 2.3770054414341 2.513491681420013 -0.00035352668467681053
Ni 4.904593914717477 1.6583177021076532 12.405130112375446 -0.3582647135824282 -0.32132773134676273 0.507704428405216
Ni 7.223595960294315 5.815452474948345 2.8612965529625263 0.0291604236140401 0.5470042544461031 -0.7078702088279615
Ni 5.005948060369231 0.8921370174310825 7.264194828651798 -1.6760304170640747 -0.6938960060360566 0.7316786241014689
Ni 4.8962707683793605 6.414829740512372 10.492754366129487 0.48817535723335287 0.28210503840071416 0.7469121532217717
Ni 6.7976667897608785 2.9831374497228027 12.634530604801204 1.1660202233438175 0.4165912172374632 1.330788855214192
Ni 8.444081100764128 1.341124625197692 11.798755682877722 -0.22991755776388145 -0.4895259577239763 0.07884287844083197
Ni 2.006902512767365 1.448633469970869 7.0152524744578955 1.6483926007421483 -2.2207826422512076 -1.3315213625048423
Ni 4.925374098257877 5.704492569498388 12.857408223450452 0.5001888367544611 -0.4555637418459186 -0.1436768441970816
Ni 8.655564682719021 7.566182938227002 0.7615503578113074 -0.3834345279798364 0.6418573922722622 1.133787845672673
Ni 7.974902942551362 7.759276242297339 8.640762031548723 -0.6952095826411575 -1.4282184955182757 -0.053698260854404295
Ni 0.25545969150943687 5.750002278744058 8.355287339586262 0.7715782885098841 -0.44544105158962 -1.2729714299850916
Ni 2.7646594720647037 4.543413655331014 2.4314780185914877 -2.1960231759183406 2.4541143679029607 1.9929890728088644
Ni 8.7221129436841 1.8795085456453604 0.6681613340210432 -0.6371630721203865 -0.0744977140982588 0.17980804270200001
Ni 4.708068004840289 1.0158298603887652 4.984975946181566 -2.6071513131587034 -1.2857649822053339 -0.09057687904830852
Ni 4.173596516817634 3.081095899307563 7.543457611396054 -0.8401704357569854 -0.6822995594477088 -1.6327248122979043
Ni 1.0489471244769064 8.170312332797826 7.72332061921407 -0.48146914885777087 1.247862807842922 1.1209400431757275
Ni 2.4134171601351717 7.8227517674191915 2.6486696918155137 0.41199254212318726 -0.5444712036116043 0.7660301049981452
Ni 3.6959752556122085 2.5327371216631045 2.8499929451308255 0.4769571199200302 -2.0171841819978287 0.1523779715155053
Ni 7.16889572582385 5.362090140264994 0.6689142927141589 0.31643569336178407 -0.3844711967744669 -1.6863868205977344
Ni 4.204646835473692 8.085263064728617 0.8647269218685796 -0.1722762531013291 0.17701839577200482 -0.2531323053174479
Ni 3.533784631238495 2.586090150628731 9.929975875865765 0.019635000622108118 -0.2996618163375549 0.013933836472272776
Ni 6.798497258907697 0.28887869272092215 13.17586269072008 0.7825890377980909 -0.5790404569460414 0.27318999529927146
Ni 2.4106027924709523 0.4944927032947978 9.156406784012995 0.7000504556732265 -1.082751190810832 -0.31117033119778664
Ni 2.535394622932925 6.144225982738947 0.5429754920860798 0.47780121308788037 -1.2721836439764735 0.8833135468033626
P 8.676068043210481 5.057280281077597 6.168389866680885 0.6152331048165146 -1.4239910877004895 -0.008582856573004574
P 6.626460961426699 0.35924618901787264 4.566825503323332 2.509731957267265 -0.6223481185947412 -0.21057206335773412
P 3.152774614112991 8.71947389728421 6.350292137626091 0.5294623889075978 1.8663632705567985 0.4211348707440876
P 3.4994954829098432 7.247716475291919 12.368179771802987 -0.5597780091720036 0.1354842810839602 -0.2505246924912718
P 3.917387557589067 0.2848223123104605 2.8078567861082324 -0.5025509092287345 -0.4026388688224291 -0.2718468510078157
P 1.1405755536759148 0.9738819410394508 12.978078158713714 -1.101848316651599 -0.2156638760583447 -0.2297360378806947
P 5.563543500413307 6.449386484454999 7.926939658348589 1.2100166835294257 1.2390241265053694 0.8289830516815981
P 9.10261545188655 7.317531248234487 2.937290939100922 0.004855785430404541 1.889403183095398 -0.5900056977082936
