# total energy = -381164.28683262883 ev
CRYSTAL
PRIMVEC
9.34799736950881 0.00000000000000 0.00000000000000
0.00000000000000 9.34799736950881 0.00000000000000
0.00000000000000 0.00000000000000 13.68173906032999
PRIMCOORD
 96 1
Ni 5.496519647951681 7.915687897176437 7.030307279470483 0.30544371312665464 0.04554760672281188 0.11041653948205499
Ni 3.8106083154130013 2.964577157996419 8.330866114857834 -0.33694101240398744 0.9818685589611412 0.3672718021770449
Ni 4.355942440205399 2.350058504387172 4.247577649852263 -0.29783119088671933 0.12556779330119663 0.6271601952714037
Ni 0.22320119931185362 7.587489056177821 1.1737326849530918 1.0203273771579717 -0.4843382428754497 0.5118009670720927
Ni 7.4425764003585 5.267512407449698 0.30692560329715685 0.15585744542367352 -1.2101989747435609 -0.026639971185031537
Ni 9.065510274359264 8.765074985662503 11.585778985151375 0.5869244876798085 0.5639218561370481 -0.7756136349215224
Ni 6.679574155920063 5.917581495201694 4.730092297262941 0.603795038182902 -0.14102063752115712 -0.004194497697321809
Ni 8.610010404658059 0.20862393215376757 9.125979665192604 -0.2005758713769707 1.101750100510838 0.9062555003115166
Ni 9.268520734069508 4.49031055494846 2.0141849575165605 -0.022558087806174052 0.32909606243827194 1.0903387733501029
Ni 2.488689305948295 4.70868912239751 9.73240949664468 0.8561074187022158 0.14056580937192564 0.4500631237426636
Ni 6.964164589010208 4.677522899039128 11.186409165886701 -1.4897367666377312 -0.3279997440502996 -0.8679221519489567
Ni 3.135234198677462 7.01988800155949 10.641875229672431 -0.5771764071541092 1.2099140965132904 -0.1818019332035772
Ni 2.6141207351692763 8.0429608818868 1.3183714444483579 0.11883381701147275 -0.6811147951109884 -0.030066223257761125
Ni 5.17328459357673 6.861308573529624 9.419165581899435 0.34918434854771474 -0.007499393700838698 -0.07753058738731165
Ni 7.872238405223902 8.33565602872971 4.287487989986118 -1.7106130401349506 -1.3325570028582083 0.7434023402963004
Ni 6.171426364816819 5.590177233982759 7.214353456839051 -1.6086446314202487 -0.26239907533135454 -0.10649252183730046
Ni 2.272900133781271 5.359749097874756 1.4337780812489649 -1.0868554427871928 1.3464407028188359 -0.9496089275964872
Ni 4.389268050965035 6.722518856012565 5.345359725464571 -0.016141642756868975 -0.538470248833163 -0.4034089142192343
Ni 1.8758065518854539 4.263602921808853 3.9395471132614763 1.1233573943679684 -0.7732608184186296 -0.3438606223419562
Ni 1.3346883739240787 1.9823456783448015 9.531821103062859 -0.8295037000717586 -0.05395614250148127 0.21231861373519564
Ni 5.779277873549852 1.8373488905488078 9.70375975418854 -0.9647259857435836 1.8227275361447188 0.22916345320667633
Ni 3.879016960444984 6.625654906870531 3.005029681979939 0.1348466474999613 0.2382427898001252 -0.27896340744793896
Ni 1.9260894299432612 1.5864486401172126 4.482343256757594 0.40392287774117536 -1.7215574549615964 -1.9140330658289362
Ni 5.498146199500678 4.517176699499146 13.167046030305315 -2.4561684222185116 0.20304078797769548 0.26675246720404383
P 7.367670897127935 1.701288788274893 8.107114318498649 -0.07033381252855628 -0.13169833167896672 -0.23414110892692575
Ni 1.8073324708716152 6.1655745184393895 8.117676620769984 -1.082673800605677 0.9244331996618078 -0.38270510601297963
P 1.894754942631536 3.3410210136178913 11.271851731795602 -0.14114867845858917 -1.221620072096309 0.7896765407724916
Ni 9.297424742055144 5.547382101848786 4.529298247738142 -3.6693213373840745 0.05223813136911004 -1.2483783140267597
P 7.552546241866596 7.052568600497971 6.5928331531711875 0.6422487141734101 1.2198753214910603 -0.13738561187173112
P 4.966908854799594 4.622500586295449 9.211436253097617 0.4247159032271266 0.031398311805623344 -1.057740270588791
P 9.309708010649299 0.5745138987015715 4.566512625419519 0.5468078221645808 0.738768955289347 -1.034366114639225
Ni 7.883259694167973 9.067482701812358 2.205086021384439 -0.6653138235229896 0.11145912181395642 0.06684662531090423
Ni 0.3109938517691326 7.937795911046435 5.640283434889555 0.8102142557145273 -0.6664448518036393 0.12720918555936156
Ni 7.869041390110355 6.508309495407498 2.2172767448042543 -0.3007859026396691 -0.2309521696759829 2.024046199224985
Ni 3.5608765646574105 5.142286634171693 7.042442849705591 0.9954100450910018 -0.476858903779269 0.6476783698294135
Ni 3.9701038471888537 8.689272074680769 13.11972085862741 -0.0807408667944932 1.0041507673981094 -1.2406086973836699
Ni 5.661100490317503 9.048113651182915 0.9704913297068694 -1.3604778976381926 -0.0824953875917547 1.299979326032503
Ni 3.4756134802987453 0.777503792817518 2.0298634187693128 -1.2953050604852854 0.1677590819572659 1.3790492328824766
Ni 4.1985595558437625 0.7756641069276171 7.677370986055795 -0.8559590660498098 0.013014924202429199 0.4601840142267494
Ni 2.2418086944021542 8.32245665638957 4.054515328983647 -0.07983609559203671 0.05637709323814807 -0.29111906897386636
Ni 8.194622791834723 0.10062838769824854 6.399907313064729 -1.8010299965666274 -0.18696419413080703 2.3253404089596406
Ni 3.477557863759616 1.9444582448500451 10.531464162686678 -0.6352941372324478 -0.5183804200618233 -0.5245286990514063
Ni 3.1178936634855616 3.6944781436130123 13.31843404392918 0.3709723909570837 -0.05076103260295129 -0.4655864161892433
Ni 8.56938400792275 6.308692358756369 11.941326327366932 -1.3461141727173527 2.4865195237065434 -1.857460311640214
Ni 6.015931775931604 9.241505021560293 8.820507675492397 1.1036951400523507 -2.061153645600244 -0.15965470768257664
Ni 7.544357396137158 6.157544588665891 9.15202972956957 0.638559695357597 0.9944872761664164 0.1447806187842216
Ni 5.67360811084945 2.7860864954874445 6.581928714194717 -0.9178892278957032 -0.4358042998308043 0.488849757592558
Ni 6.398722921793132 0.6695007699640724 12.349096257102463 0.4171031238768752 -0.8131933929475093 0.7418031141299805
Ni 5.058809017317962 2.398434390973741 11.938248031820466 -0.0561112411712711 1.5703117972783212 0.7774535163437384
Ni 4.309249193152276 5.075252144758691 11.188201176989821 0.7683605529035348 -0.6520351041362126 0.5866411521114349
Ni 0.334468542860184 7.9850687339388555 8.023656332439472 0.19551054103892135 -0.8803616632638902 -0.596768470353424
Ni 1.183970611714369 3.8840274870556897 8.134450667318958 -1.039530946669616 -0.25027169594020127 -1.027253929074476
Ni 1.4908560186226711 7.7240632983091775 12.661245521351226 -0.6055822119903118 0.8632807965222036 0.16422972864776875
Ni 7.611737761454258 3.8529080036843486 6.318062791358181 2.0233373460834185 0.9841108180280986 -2.2451824112518106
Ni 1.9474496040206157 6.3813917345986395 5.557098410354696 1.043709246417022 -1.011252411439897 0.07944888745594704
Ni 0.059884206195597645 2.9137520960889454 4.77558339184939 -1.1127040284191803 0.8130195863738062 -0.10362239937835702
P 3.4918322558016817 0.4871821025165087 5.6447433644529275 -1.6515231759513298 -0.2384075975127636 -0.4561191001287564
Ni 2.0904833123609223 9.309876274602644 10.704688163455966 -0.29103345123859553 -0.6196253203469393 0.29868942512195656
P 4.850759987004788 9.093965578469316 10.806247611696055 -0.3917330205432028 -0.009498169298422352 0.2564287166805326
Ni 9.172703760637173 4.590708047110731 10.063603436012832 0.49032505658650394 -0.4439564966242935 0.5928637359823788
P 7.636799742505193 3.793894096047439 3.5966831339291385 -0.17849112366278938 0.1014603587300317 0.19677655223553855
P 2.0186533002776 2.6178599341324897 1.8264715607648208 0.16936293610927605 0.3481026854477618 0.6329040397337165
P 8.677437509962198 4.252703156831087 12.372916824097612 -0.06226491947749277 -1.8769181632545093 -0.39399096333944406
Ni 5.957319832183241 4.8457588083914915 2.440658360466083 2.4395637237822956 -1.1847843913251983 1.623675557611442
Ni 5.7664150291163985 6.968978807675344 12.165186560496052 -0.7274604722550633 -0.9946618540710677 0.0857653165922781
Ni 4.569114173098175 9.10002308078972 3.6723430205505316 0.5301113353455064 -1.5558490848857722 0.7995758021640745
Ni 7.113218407681288 7.521473498482295 13.97808576382415 1.9337084327706762 0.9423931265743383 -1.511102633908017
Ni -0.09891116057439295 2.0477723122036218 6.935397061786728 -0.7029817703874086 0.9933421068183796 1.1125294505145291
Ni 0.3457758805249403 5.657090199429457 -0.02705403929858715 1.5060511875270386 -0.05364786723244309 2.481205824803114
Ni 0.6947842985535783 6.945805122100831 10.142875388832687 0.3478286058507687 0.35608184699849643 0.12688702633325247
Ni 5.368134251549761 6.298867613480527 0.9819510397293765 -2.215509052557094 1.7985452824715606 -0.4741361055314673
Ni 4.689637903679939 1.9775034156874405 0.7040444247859753 1.3650752872008878 1.471393745354169 -1.453768318962922
Ni 6.027953300598335 1.4240832731370945 2.8074924747520984 -0.15674730422779456 0.6701816931382522 -0.16223815213903672
Ni 1.7743620840134842 5.455444547340785 11.997065631511807 -1.0127588207820948 -1.6230178694227853 -2.368307913660102
Ni 7.021112589219943 2.912228372511436 13.163064718209233 1.6159946440274169 -0.8278458527533613 0.22471210230354202
Ni 8.808412301646143 2.178176876045676 2.4231458221218745 -0.6612332256957127 -0.41379694232177766 -0.011191240730129115
Ni 8.662994853966788 -0.0044767559587068125 13.772585932404148 0.3721265591661849 1.8032421737265976 -1.3492432052646377
Ni 2.268712230942472 1.287798818925387 13.813084261574966 -0.4621377955190105 -0.7388036651820243 -1.141177453268525
Ni 7.804325204054545 2.269534854714379 10.710448399458794 -0.34308337785629944 0.5521130364275783 -0.784566730349752
Ni 3.3393944620688942 6.495811222872957 12.96909844599126 2.6433033375992285 -0.543260985353587 2.256366195782772
Ni 2.158639561462888 2.689951690143237 6.407199685842736 1.378200511728936 1.2049870915253182 -0.12791238227397328
Ni 3.8528238717076766 4.234895221768785 2.377995929440818 0.045690560058579376 -2.31070311866244 0.5391652180176586
Ni 0.7639015217890898 3.231770967910215 0.061800545664244325 -0.3636956547900123 -0.0073482128349550875 0.06913850666887447
Ni 1.6055092068321912 0.6939467179858185 7.5118908663393205 0.690465640198269 -1.2987788779664986 0.5020091777926515
Ni 3.0089521016923495 8.002596229078916 7.0975119024363105 -0.0540085930059715 0.17711661191276593 -0.4880162059476692
Ni 7.034050217632659 3.8278086306437813 8.47493464651121 -0.1988699444294575 -0.2393123687152201 2.388640454569867
Ni 0.1566443925664023 1.717825395689703 11.972972102992344 1.5688506393517625 0.0424478847515656 0.307825840205586
Ni 0.8403129874020889 0.2507590956707337 2.1617421618026142 1.4030013728227 0.4650053468747927 0.6082330193495976
P 3.7810405996113943 4.341359564248869 5.072121500426742 0.2801664266171046 0.04728490112889276 -0.4469484893730819
Ni 7.032975197930735 8.333842517232553 10.876038825544684 -0.02608975510851636 -0.6098543570031045 -1.6777988218184072
P 1.2858824794567405 6.294810582605441 3.1805121589230088 1.573748590874012 1.6792396680299917 -1.6887869453987947
Ni 5.563741097312843 0.5509008572488813 5.763965853795494 -0.05097983348197672 -0.9340653234349332 0.4583829564622686
P 6.116404052073139 7.440510492931324 3.1817161809891634 -1.148245930079532 -0.06376412973083857 -0.33902386307494514
P 0.45312828275878664 4.885515841367853 6.3543470432974605 0.9002041519111141 -1.5830313017275188 2.300580171295825
P 7.051942284671634 1.3283691276762488 0.9710952103394282 0.48359596539278654 0.669139367916667 -1.091866522848539
Ni 7.171895787411508 1.5715666282436247 4.8009632048121995 2.035850648059081 1.913587493651085 -0.9476823999977356
