# total energy = -340890.24070211855 ev
CRYSTAL
PRIMVEC
9.05353613162287 0.00000000000000 0.00000000000000

0.00000000000000 9.05353613162287 0.00000000000000

0.00000000000000 0.00000000000000 13.25076527408348

PRIMCOORD
 96 1
Ni 6.616858429139027 1.6110133958209254 11.306268791219512 -0.97697934918964 0.9751952607060237 0.19583501425787564
Ni 4.663639471226649 0.20354612809463682 6.069208212407338 0.7540955583440884 0.46390748582492364 -1.755553609401383
Ni 2.9172485482891166 1.7592469443717311 4.798685638917557 0.10091451352889072 -1.0538314224526881 0.7161280779613797
Ni 3.171671023179164 4.50316554170469 4.85530554909174 -0.6125853827810225 0.013422186943176885 0.3327871381366139
Ni 5.008705950764021 4.596688570870379 2.546890109964012 0.863463344846655 0.4549597897133326 0.18591055605531207
Ni 7.4931501999954655 6.425638690609645 2.3449881040471574 -0.5821805452369199 -2.806752993547863 1.4484304516897764
Ni 5.140588812899219 4.408221107352262 11.560868715419497 0.19907846089583778 0.44938640939061314 0.18415937769216026
Ni 5.718258745033385 7.880034963338872 12.437168634458535 -0.6872548465704551 0.6796659784796036 0.460135163266685
Ni 2.0567642516750095 6.382552911732636 0.37021358174556435 0.30589828416556997 1.0898160680774134 -0.2887217723862834
Ni 2.6927389570741362 1.5238640561550088 0.4555268642658082 0.7003996114825292 -0.6180317506075743 -0.023238915923282557
Ni 0.16150060052945045 -0.08548348900120364 4.85142339276006 0.6497082557752488 0.7027902232018929 -0.06699317819109751
Ni 8.823721257826424 2.514058366211209 1.6419158310049764 0.015636678095992427 -0.48374740336898625 -0.795100025780908
Ni 6.791247643833073 0.9798642252277346 5.119870700610472 -0.9354295507723115 -0.6949774120256934 -2.3444773868994075
Ni 0.7831399366758225 7.083749292069769 2.4416789655366675 -0.27615396302360184 1.6860795737699605 -0.7277942014453982
Ni 7.648952504827251 3.930873410085956 3.9079815437504823 0.06796942606143778 -0.8692673531229417 -0.2516444079180118
Ni 7.732009646121155 3.89589054612698 12.628191005898293 -0.9001285614781724 -0.32005143573750044 -0.2918952850182586
Ni 7.912718229097646 8.92652416161891 7.018188109523464 -0.6513493909230976 -1.6081599784743463 -1.172452866343039
Ni 6.741869657282282 0.837476545015001 0.3609545302520745 0.7434946428997905 -1.3330856216681686 1.086554366607006
Ni 1.8020611171621033 6.461590282944297 9.185708796561345 0.33642473488920127 0.7436422242212483 0.2756495125833575
Ni 0.16216875150257995 4.902290686019248 1.224320567445411 0.8694126204515543 -0.44836773831811166 -0.10777730208699504
Ni 6.4382321594934275 1.9397744566237967 7.202135142406302 -1.1687170534496905 -0.026813777758734468 -0.09958113942944785
Ni 3.6334466381448904 4.356154220543755 0.5395065609006594 0.002610698149969697 0.02263187846690296 -0.7787655502869426
Ni 5.949404578298555 5.538500783360128 4.560330474759392 -0.40772811041987844 0.9668443176381671 1.2244094619159882
Ni 5.103351618421148 2.615285954701196 9.596549216746222 0.8674475263053835 0.8657601113006316 -0.8247533298709666
P 0.28318918087950107 5.652294680125233 12.233769173650682 0.263281735046624 -0.6595483817941222 0.19196884643425002
P 4.123297268932766 6.313927107175431 12.67978982488416 -0.7563864112607941 -0.9962333123232455 -0.3884265818777891
P 2.522858403418281 8.421617500095067 1.3769668095504621 -0.05313827458587623 -0.174183497426371 0.26118859996302113
P 6.179400612463624 7.533574239223424 5.788901677460688 0.46515344241688283 0.3149272271370576 0.6018566835096086
P 4.586249843607257 0.9730378589168992 12.625011403977384 0.9395782828333624 0.43492652521154124 -0.6859024463076188
P 3.7523376758025697 6.568059868906397 8.211551920567496 -0.15930323788042886 -0.7915048522304821 0.335916427794215
P 4.854669085495384 1.345762891610243 3.7305811229092423 0.30017295164601854 -2.029384837829079 1.6109020599958577
P 0.19091916112683563 5.308984586614787 3.7515961911860476 1.150030789894097 0.9975872552479788 -0.1332988433968672
Ni 1.4223014868248347 0.7788105356548125 2.6779400467668526 -0.14866735543313753 0.6439839516969619 0.717750444056151
Ni 1.7269258200618078 6.747021119392183 4.501059689179623 -0.2082812104410284 0.10137602654634154 1.6605181803610887
Ni 6.079512947334384 5.382734692673228 9.26130401330168 -0.7254699241875958 1.5572014851486085 0.8914940257316258
Ni 8.887566795258799 1.8064158680845328 10.254396360302309 -0.3967924373439812 1.3231673341131922 -0.5956865501431549
Ni 2.4266193133862117 5.089200941307308 7.225642649204822 -0.4909025263565288 0.08630396270456749 -0.6415714856007273
Ni 0.42359956878150984 8.863375746475572 8.851564503121308 1.4778886090498933 -0.2997793157520256 0.045666648799179414
Ni 1.6382735933831607 1.1741440589999046 11.546955240954654 -0.7976981255253874 -0.3260081675415676 -0.21081528971679178
Ni 4.388312381201696 6.732082784627092 1.647057334225034 -1.2868857260733386 1.72638341559533 0.8008420704710079
Ni 5.436014753335384 7.931449995539447 8.02527269675406 0.6152642151647661 -0.18919411190259028 0.2867062846181514
Ni 5.0596411455448695 3.252519101635079 4.813566031050831 0.9932423480157218 -1.0045210062533343 0.4089121034256506
Ni 0.5849344895981111 7.210734191109261 6.88544244538638 0.8761833635164846 0.34037446356556866 -0.2812136369346963
Ni 4.950328749209292 5.086086524847191 7.184008152184081 0.9991129478638858 -0.3981165554720434 -1.1287358850710625
Ni 8.183953120750585 6.958457404303655 9.54101482556497 0.4775399890066937 -0.18146666135134554 -0.6218431539338645
Ni 4.682878235696841 0.3267448382863948 10.295368138471652 -0.04871032072150966 -0.5763042889618011 -0.36029485663857946
Ni 8.080317291625741 6.987763701051897 4.646460386246794 -0.2330584173857083 -0.34245628579526183 0.38111025072203397
Ni 7.453568139636086 6.145087710185021 7.044159988881413 -1.3938772990342447 0.026542012154586545 0.20995705548155452
Ni 2.1894890926787847 5.239661659768545 2.590510952831699 0.8797777657359621 -1.116869986871412 -0.08073315348500935
Ni 2.456514089988836 5.133029110154461 11.451576236863605 -0.34944762951143044 0.006409503070769607 0.10301613325292582
Ni 1.1734831508557522 3.174595315378633 3.734171755374597 -0.7427433665560628 0.13068994501911038 -0.25899133520138623
Ni 3.629363493309099 2.770038049331314 2.7498785402274186 -0.8549594211407018 0.28049449938048465 -1.0347942033155793
Ni 0.9388245455367309 3.3996028510857834 8.139534661341806 -0.16750557118556314 -1.2137530106434065 0.2517151132549471
Ni 3.789909851120828 2.986290815512499 7.267104223683737 -0.31472616686984506 -0.12290001666104641 -0.8314302276705101
Ni 3.737797696631215 6.871452921217278 5.8762239396684315 0.5958408163328319 0.7689344231291338 0.46474617967613513
Ni 1.0884251780569478 7.473938596133937 11.287505337400935 -0.6514684329994652 -0.253682264283647 0.5302620019907577
P 0.18015631726699335 5.435444380553444 8.207126552062542 -0.43185148583064337 1.134455304053343 -1.3308521043519597
P 8.3701209860685 1.5950339043903892 8.097277281029042 1.025674243292182 1.3574861619997203 -0.3917070524012738
P 1.575939996499737 3.2239823554656444 10.26077004980208 2.389861471461162 -0.5864616891107771 0.3148873750380577
P 3.8238425048781366 6.238076580713655 3.7895730595733967 0.8398354210150698 0.24469163074926245 -1.1525142184375827
P 6.87833360874544 3.648683739605283 10.377350625016092 0.14204059414523923 0.3416600151462116 0.8665916060629915
P 6.184579235182189 7.548476359843629 10.261101409227777 -0.1888801802065973 0.13233905058675918 -0.48604416982296283
P 2.165705453025516 8.639110600738567 5.71929537493072 0.020026322523255834 -0.2339711590079648 -1.2651802160754468
P 7.224957296512872 4.233877160339322 1.6701266498704446 -1.72710332448049 -0.25235351816989443 -0.48841884070272656
Ni 5.48171700418034 2.7708166534463428 0.2721610684083757 -0.8275746013698456 1.0657883377042483 -0.7480341826413568
Ni 1.3331965833351245 1.2538151777470548 6.87864414503783 -0.3463988153827776 -0.3254507523762008 0.530280513933519
Ni 7.235015775254699 0.22511346208093921 9.372001600679113 -1.82637284620679 0.03711593101569092 -0.24547478877219014
Ni 2.715581028960393 1.636924616486192 9.021730243168133 -1.240323304932767 0.7471846901568681 1.2654908053373304
Ni 6.235695500687462 2.405841447758404 2.4369213322523917 1.0557232401587624 -0.6230883391948753 0.7149569404714139
Ni 3.9869510134404846 6.811663368012031 10.547357928179045 0.9230861987156102 0.12353096537682595 -1.2827503637487263
Ni 8.541703604533954 7.072993691038904 0.34271074941259927 -0.7210160021813002 0.9087242735669834 -0.8609464919620722
Ni 7.425130982365086 3.8352137463720486 8.24017376997741 1.1519691445673903 -0.09820534212784376 -0.5042943742824024
Ni 3.1126872346976087 8.531273930807053 11.953992270572977 0.6664232545370845 -0.7000463419081686 2.2449942065004045
Ni 0.018821396450392103 4.686046973374284 10.211861036427551 -1.111557573519563 -0.1672731434597829 0.9272572993741643
Ni 8.616522027866505 2.3455177359161015 5.692608266211291 -0.020478322459009893 0.3883805591312021 0.27372992696314147
Ni 3.4971456503337146 2.7331267821572083 11.269034312802306 -0.3216547756688783 -0.2954902014583685 1.1466775571511476
Ni 1.0106190877713788 3.3696718603382747 12.387398629789363 -0.07209887484877905 -0.005619660179622579 1.1200159886995615
Ni 3.0689677082851103 8.84685304287176 7.649137196966165 -1.3973580584939935 -2.6848942736671373 1.4016273752933088
Ni 5.654458475282116 8.024828168125596 3.694459324093631 0.26440813534158336 -0.0890244469595241 0.3618976823493251
Ni 3.2748360684205022 8.617010918822453 3.7191854368675337 0.09352593437430344 -0.7254755806145506 0.057102144329630684
Ni 3.6970567836355133 4.548641454144114 9.417425002608454 -0.624625344664692 0.0825583796192062 -0.48279969474373624
Ni 7.111661344239936 6.055847003651992 11.51973850036628 0.792674447058551 -0.623019690740469 0.3115086883738119
Ni 0.5402408026882041 9.236598723661086 0.5846538299752518 -0.36908083036132566 -0.08803560068369354 -1.2627536089118252
Ni 4.760774861344623 0.29343959458921964 1.773800503847418 -1.030060802395652 0.5110144666150555 -0.9506098580571758
Ni 5.971685330939093 5.606022056498337 0.436597730734383 1.228396471588194 -0.3235728186271976 -0.48940948675077
Ni 8.021134325347319 8.641645590880522 11.535679061591065 0.15313567561713629 -0.2740006641260249 0.6210250289079434
Ni 9.188343375601734 4.705077506511389 6.087335202629559 -0.06186896959065474 0.17122544323931155 -0.8960569625119599
Ni 8.0310026798285 8.736970273754242 2.552322231696772 0.7846099248828616 1.019899545591934 0.4064189046901517
P 8.348944764846957 1.5724905991994342 3.5664305523278275 0.3825333563218057 0.4378030754283879 0.5300498859799516
P 1.9864635429168709 3.2870673958554337 1.4059326933367842 -1.7763494631008117 0.4525488662789949 0.393926942870728
P 4.61306641789465 1.1389620172440607 8.127979633062601 1.6022173877376664 -0.05823728637533842 -0.16772025829953052
P 8.433052116342528 1.6037252991628055 12.476801394620754 1.5470204308505486 0.06605678241975721 0.7124534573232698
P 6.399890433596362 7.923012099781227 1.5150794099595133 -1.1316911110446444 0.36785904213908255 -1.838641636271814
P 1.777136731944955 3.141948263764744 5.971325000197487 -0.003547865252258406 1.1518313334379453 0.5094463507969872
P 6.775901899938026 3.8397767286275672 6.001311217515945 0.16909168472576042 0.7372679452637884 0.5726006148579688
P 2.280015401355234 8.717568545632068 9.924531673434066 0.4665467232199836 -0.2396108737922454 0.47922740401144565
