# total energy = -381166.4296183579 ev
CRYSTAL
PRIMVEC
9.24959410492777 0.00000000000000 0.00000000000000
0.00000000000000 9.24959410492777 0.00000000000000
0.00000000000000 0.00000000000000 13.53771593585754
PRIMCOORD
 96 1
Ni 7.644271678820711 9.48601388954529 2.888908201075793 1.692516844754872 -1.954272630075273 -0.028323529535041546
Ni 6.530037805447827 3.3722910721572004 12.14429270733593 0.6223316635345089 0.0581310998147773 -0.40370047731772407
Ni 4.2055222719035905 6.853477617540362 2.2936949605096464 -0.5423747260938917 -1.1661001846521335 0.28394774803640777
Ni 6.513240542271208 2.439025510486171 0.6562309639821851 0.43218572924161053 0.1371269588937058 1.314895066802071
Ni 2.427260026587129 6.351650130544584 0.30292236210444085 -0.16145885077085095 -0.03774173752514791 0.39083801953275915
Ni 5.284311700071184 3.0206399975708935 7.03319538409823 0.3834571536876557 2.024052626982888 -1.8565802230281059
Ni 5.642354244291326 8.34048863878997 1.6640556550662635 1.2050433986845503 1.8126688663571362 0.023309107039585664
Ni 6.493779395947635 4.790161376311415 5.1281813238363885 -0.378872876751083 -0.9036684563106308 0.5532330089646343
Ni 6.36870638236049 1.4096289156683302 10.65500813581715 1.942837648765454 0.000199774715631914 0.4618434042070433
Ni 7.052621381963614 6.502298272261328 1.3791274536357192 -0.8341262864454345 -1.272058431252519 -0.3328046216381107
Ni 3.738334515412461 1.9965341706699173 4.092925111054677 0.10773179356104028 1.1739240515719267 1.902350230174369
Ni 2.3361792719064156 5.106210762590008 11.879832933043899 -0.16143313973923812 1.0157094187699862 0.885690017455339
Ni 7.628297629533254 7.956528731452599 10.16066542049677 1.205214634155092 0.2406647689780565 1.0935734782373168
Ni 5.117782005009585 0.718834992813857 13.548952740967653 -0.26275337334697974 -0.3542388802524867 -0.35679147147101137
Ni 7.671594980265499 0.9343015162281776 12.69281399607632 -0.3032017111700133 0.9979379537191782 -0.5242764738312842
Ni 1.4388853823135113 7.656407146490164 6.998539004323913 -0.2798985176676986 1.4614839424396249 -0.7069970621943888
Ni 2.953395447298852 3.1121462335875787 7.805494881655202 0.46840640213654167 -0.39570511781707335 0.22278043249846793
Ni 4.895246016702153 6.934781551087988 13.150144459964295 -0.4826120042129624 -0.6889234925221297 0.0903501077494831
Ni 2.9462270117471565 3.8805747759466356 5.597006258511583 0.6216554634030906 -0.14400954494615198 -0.43102616171587066
Ni 3.2884897481593063 6.957443057025608 9.772240734009973 1.0850952655629764 -0.7962521371074802 0.6214256067804718
Ni 7.255612977599131 5.651687084899922 9.88591732250906 -1.8070391788751845 0.3975352290472767 1.0130609254035456
Ni 2.5957783844146824 9.038722010307966 5.189033479515167 -0.16605752588512693 -0.036513521545001634 0.626084959929354
Ni 8.770197039338553 3.856350088579032 4.013120536736637 -1.3447764277425356 0.5726576933481493 0.21069624764042424
Ni 8.474376515707135 1.3042297890727448 8.286503381890002 -1.0920069050811452 0.4289800778201192 -1.4287861950962877
P 7.317307771315019 2.0945336218573005 6.384495439762743 1.08137127974417 0.27945397393111227 2.395231477523823
Ni 8.240963004549647 4.654664069992967 0.35587443932553847 -0.9999758100848134 -2.221103773036052 -0.08300292335579253
P 0.4058259481686099 8.19256912738 2.194287721075853 -0.7313232976445793 -0.9587589695268715 0.6576290532842223
Ni 8.853619129971777 1.3808904263017234 10.389425460781926 0.34348344150819554 0.35035625736862885 2.532535842535658
P 3.8511518166047694 0.8090703345791833 8.739028681559779 -0.32996689507899946 0.025917234086394077 -0.2404565096219923
P 1.5396967101560108 1.6715959243072218 5.461696718956616 1.8039520553094286 0.09952277538768667 0.1881479300262631
P 5.414518238472769 6.870163885585859 10.501815430719413 0.40642199001394524 -1.609728351402731 1.8303488001354025
Ni 3.8785121164265988 2.7664333985163543 13.073913928868418 -0.0918248925227967 -0.09930526006024187 0.3015739457586032
Ni 6.6553698076742585 4.007802944996418 2.570446520614127 -0.41499044840924665 -0.1498788592427354 0.4287157684151391
Ni 0.2693555845339819 6.350077699520341 0.8767792144830888 -0.03433014074043765 1.7083635819791418 0.7018738820352106
Ni 4.50649481953797 2.4447695085217886 10.971438605379266 -1.8997377322521865 0.34977030295817185 -1.6494063867186435
Ni 7.231924766698622 6.394901233305528 12.50562810711272 0.7929361853603699 -0.8442957707792685 -0.8851086910305723
Ni 7.020127557327344 6.298381717199785 3.5611095145077316 0.2648927882874857 0.6898938268551991 0.7293641170356794
Ni 4.024849947218065 6.546650076739242 4.755651140126411 0.9169080949293564 0.7103268978985703 -2.500119888098798
Ni 7.608549745787613 6.98820720753521 5.973517467591172 1.1267000855879563 -0.012869142653184288 -0.83333361534081
Ni 1.9757965803384296 0.22860834693928841 9.957314940603956 -0.5762194425574786 -0.15146265879008752 -0.570194062299005
Ni 1.6224620795967568 0.6188182051183128 7.467215020531517 0.9890676478127417 1.5852481068731796 0.5195271320717569
Ni 5.459905997507831 8.768097381441477 9.752516899209411 -0.9447333446717406 0.6239902821838544 -1.9362337702956909
Ni 0.09644829422993839 8.258296744193359 4.51646680710995 -0.27407034102169575 -0.6903427414671595 -0.5829187089545251
Ni 6.059520195023007 1.3827125963709934 8.282157922506535 -0.23906142904667865 -0.6982206015533395 0.1987267339833739
Ni 0.14312267182660215 8.649175348037401 11.744848979206894 -0.16409988793812383 0.00744797163761298 0.3219725640196132
Ni 1.1230672358914253 0.8149632510823906 3.1194552629720302 1.1831106031672012 -0.8772894520964698 0.7430457282878299
Ni 8.723884320877467 4.262601518083613 11.715187380333115 0.6309327749399586 2.1304587597539695 -2.9572964829577906
Ni 5.908104336982661 1.4883522124173454 2.8580959526760377 -1.3329609231648465 0.26651695415447 -2.1284175609542246
Ni 2.592180292247444 5.128539283134259 2.801955540313431 -0.023022171926786156 -0.07691403684923527 0.22685640234005444
Ni 5.033083470368446 4.298184707202808 8.815666194803107 -0.07865107414500003 -0.8172585641558184 1.0415886005295933
Ni 8.824408911297898 1.7833865205366424 4.806011481035786 -1.2245567861271298 -0.8935509082606548 -0.9298322591901922
Ni 5.384928786434219 6.472468330772011 8.338244687222433 2.403179014505674 0.9833415439622419 1.2999461588017225
Ni 0.6299075436769305 0.5174528265796239 0.7623598835649045 -0.4213475009755259 -0.38588350374096125 0.002806359100543554
Ni 8.80661269194117 2.0793920360532656 2.0128957779568792 -1.1129925061938766 2.5199011844907826 -0.2385538932826408
Ni 4.119519544471757 3.057592126640605 1.9822194985927495 -0.12914856867391952 -0.7519044642300405 0.6131014031854924
Ni 2.177659725474196 7.61865955231407 3.458981044442572 -0.30274559746920116 -0.967310201530992 -1.2366846797389153
P 5.919009608615499 8.09356147041825 3.927251003462151 -0.8020558882734509 -0.33000314763357363 -0.44695928800635926
Ni 7.919030876321533 8.36605451732531 0.4586318818003956 0.4606856364535163 0.10725973902062819 0.3136817847657307
P 0.4983820131338338 6.567942642726345 12.130619032140997 0.01437066689937525 -1.0355490792037327 0.6792993391688043
Ni 1.9196237943959118 3.701900363621324 0.5201287341991151 -0.1967097035533451 -0.08537733712524007 0.4235126269476448
P 2.788780418249126 1.2683043649659211 0.9523779982909903 0.8203482588247356 0.554032107827162 1.0111259131643617
P 0.16424597023874243 8.524694308482914 8.798689489497837 0.8178853991065399 1.3561098504774838 0.6405008782443679
P 8.802052641970866 5.179143813332105 6.0639489007548155 1.169073922568477 -0.17015612143453274 -1.1422177216075813
Ni 0.05167563321318268 2.604870735572511 12.94058102760687 0.6641766245947529 -1.5856142319633466 0.6724224095433129
Ni 5.536529636359769 7.67056827530261 6.2271737157872264 -1.0306624405353928 0.7385277858128183 -0.5411207990821325
Ni 4.052330491765278 4.9086856771623015 0.6831981560479533 0.4280231132234887 0.5454286824288671 -0.3407657854667163
Ni 1.7385999851284961 3.0040092270909584 3.6929125328786356 -0.9800363908484089 0.6581144775610731 -0.7886002769891773
Ni 5.93471541966941 2.1390704182204194 4.887074925132645 -0.9139068462091873 2.5705223490817604 0.14411804549955823
Ni 3.8848943364661737 0.13892890578900335 11.355030378865079 1.5207213879447035 0.6665286697666972 0.3144045218643682
Ni 3.6683058372680843 0.2665307584469006 2.870631927776959 0.28709040743044756 -1.5598373801095589 -1.6879140558755383
Ni 8.82078307034788 6.6595043763085915 7.995821932829581 -0.2279144112909236 -0.7127689316811595 -0.29301859998942437
Ni 1.9117431400861762 0.8971153724236816 12.561010977705415 1.0406581182955241 1.2509116219715748 -2.2948574098794348
Ni 7.297291649335832 8.430154205548865 7.995389051818201 -1.8374656136858418 0.2551961298250121 -1.1450765312126152
Ni 8.928947825627281 4.620523817578372 8.908250008551112 2.9289423572951296 -1.8122040109055757 0.7824026328188977
Ni 2.4898797797290433 7.773146275648819 11.903592365820213 -0.8711961947145382 -1.1007681962135432 0.370787014419155
Ni 6.908216716372539 9.431441283409796 5.297077990069186 -0.6551294267908201 -1.6644748510159915 -0.6313426087838675
Ni 0.598186060161392 3.261712172775873 6.728474900869596 -0.4587452248976938 0.6902812921016047 -1.3346023154230113
Ni 0.25058260802337196 5.880457299738764 3.5097474425399713 0.7321275387134295 1.8020139577464511 -0.35512719639471096
Ni 3.8175850390343107 7.918725639710944 7.765518135262388 -1.644435930087245 1.9291586086164645 -0.9262082892843596
Ni 3.281506304492815 8.373130456934405 0.6478175330430588 0.05931123616580754 1.5181574838722693 0.018575963229974457
Ni 5.019995294490188 4.737947416712287 11.07836021519009 -0.9783685162276827 1.745314191061562 0.7899045976228977
Ni 0.8688634117151641 2.6877748489271607 8.837150227391398 1.2934685214971788 -0.5449057200458616 2.0701921016534284
Ni 7.25523374423446 4.776758714228309 7.457453923708672 -2.0009147554138442 -0.17797458903768706 -0.5164891165763815
Ni 1.0484785077767433 6.742695227085308 9.961633576164067 -1.2486917315021204 -0.282782524083713 0.36275745924645914
Ni 4.060701374570806 1.2013835504929893 6.454146734461301 -0.33576010472200885 -0.7871781998306701 0.45631424685869804
Ni 6.263926978580343 8.426657858918489 12.060223145104489 -0.3793151064948242 0.9986244382632414 -0.39287844700155566
Ni 4.407801648781069 5.5826296141528715 6.64654476979055 -0.5903209149558672 -2.1365412185026234 0.28146046283817977
Ni 2.1203307402491465 5.791642695651813 7.800188389428095 0.712405891914786 -2.160034159418241 1.2323996792103162
P 0.3873526585120322 4.293088180765408 1.900817519345965 0.5180009252352176 -0.474411470680041 2.0551586043590735
Ni 2.2774720971365885 4.296233042813895 9.761126421546853 0.653379791089565 0.8971712786220614 -1.4046687332227936
P 2.102386527384255 3.053143071801423 11.39956902514705 -0.32153290537903334 -2.0352731782890565 1.4319388817926566
Ni 8.794227485226692 9.31360145253417 6.44006792703777 1.2540787068456467 -0.6656395822935246 0.3164724601369905
P 6.094409664572682 4.656060758726265 0.48219984797552073 0.017433107874782878 0.2523553179421073 -0.5375158553396936
P 4.698904879339758 4.356373904694061 3.954542856286454 -0.9538687313141057 -0.5941832261247508 -0.3290068451585753
P 7.342068935149718 3.4494419378819723 9.927464650007266 -0.2014428473629563 -0.8843972667858445 0.4428766332965534
Ni 1.9548832477159972 6.059760684473773 5.512585211698251 -1.3307682863889019 -0.431654796438805 -1.2881620216826009
