# total energy = -381167.8547532262 ev
CRYSTAL
PRIMVEC
9.24186603039272 0.00000000000000 0.00000000000000
0.00000000000000 9.24186603039272 0.00000000000000
0.00000000000000 0.00000000000000 13.52640511762241
PRIMCOORD
 96 1
Ni 0.35132214843891163 7.608172233986689 8.17967445010658 0.3018176863382931 0.02298540515157977 0.83704474564381
Ni 4.501112283434751 2.944782022713423 7.450736119827462 -0.34470394417885797 2.1059736301284113 -1.9685237406776483
Ni 7.392725850150967 6.314791549144478 7.243119444999358 -1.7112725280958205 2.8016794356796972 0.5023475349686768
Ni 8.599473281644 1.4986425321736887 7.324116084179809 -1.528750171786451 -2.26890700856226 0.7585039718244292
Ni 8.414303251336325 2.486459396290073 1.203464720634314 0.1618000361603536 1.9949107153116092 -1.183492411986652
Ni 6.3768876478486725 8.609639334415933 4.697463123418322 0.18519244694236492 -1.7637004068782336 0.7841504687479398
Ni 0.5588611915913014 3.990360550306698 10.522542047739568 -0.14648783128331547 0.24858633781797834 -1.075784786795328
Ni 3.9109174688271224 0.9108053176225323 4.731914952075786 -0.7840162571629208 -0.7936424673987752 1.4729623753928696
Ni 4.377086439617173 3.228858504625847 4.2091201431594545 1.4671007744057702 -0.08934120686899452 0.9402845648717677
Ni 8.70357366202859 0.2086979731683901 1.203977644205989 -0.5636652600415517 0.3150316139254058 0.12717113323257453
Ni 0.8590915313583264 2.484925246508127 5.902828895920988 0.5292692990601853 -0.6427423659803769 -2.4107604263973577
Ni 4.957346248106777 1.182829481880522 11.46860600893501 -1.4940767887739816 0.5867185423165896 0.11573898013623293
Ni 8.91785557072862 8.545075657448004 3.739996547759234 -0.17770153788195847 -0.0764178139391071 -0.5010339583635758
Ni 5.630533020798001 6.108115696291086 9.475206641389981 0.37879754342845734 0.6186398165052184 -0.13840633982676165
Ni 6.166552015997386 2.3028604832289696 13.095738206279771 1.0239544323875978 -0.5909096975798016 1.0395882822701128
Ni -0.07105886050257809 5.1464348296647255 7.7463020897454005 2.1022568433984565 -0.5734562779900447 1.3855839486772006
Ni 4.738378713265504 8.066078976433005 10.666246597163761 4.170955391225493 1.429964788785421 1.7173223338343264
Ni 6.869479113979592 0.16142213103244069 10.988567769604197 0.37354555100089865 0.07924551319588932 0.297486663063107
Ni 1.0800044790255015 9.061363268403683 12.972445242448387 1.3641720586603279 1.1949916708755033 -0.562671785780031
Ni 4.963094688855998 5.668526332566562 3.2429283216622022 2.093109115460918 1.9427214349025639 0.4506747891847335
Ni 6.749344095813817 8.892468164397256 13.14997871875111 -1.8885477770736379 0.5793230211834668 2.051419963252248
Ni 8.585647449874171 0.9897206885445831 9.744949913080594 0.3511113903670985 -0.885425708050359 -0.39388040590350876
Ni 2.5839795679713764 4.5479777867133615 9.335086087661201 0.5637801883528613 2.24268201342746 -0.4738931362827259
Ni 3.021452544346108 6.883535992403329 10.261699617344089 -2.4160898090300713 -1.9740323292007032 -0.4899357915678853
P 4.439589180432247 7.492953888616067 4.762823449248923 0.14743553990856545 -0.4000279135621433 0.2485778531775461
Ni 8.91315146085506 6.9004023981385805 5.779630199124398 1.3971503133585614 -0.6878402867602799 -1.4561980114503372
P 0.915912372860505 6.040021626451449 9.816193610906298 -0.7809628150485777 0.7395292304941393 -0.08208658218911025
Ni 0.5691778867815819 2.109123242994402 3.2470270893025224 1.453082091529175 -1.4899553104064405 -0.15479300871490115
P 7.748251199317765 1.3932113230625904 2.7735080623583643 -0.6824815935515279 -0.9880764875440662 0.8665185867332109
P 3.7675021898136216 4.289861706833991 2.3813775297196833 -1.9102185771788525 -1.0082118248413603 -0.9557700621018764
P 8.299426855013484 3.1489256042399876 8.740073488226292 0.7597170182959239 1.2448949834638494 -0.928604300320362
Ni 1.0950409952618054 1.6420300855887207 10.988445776970934 -0.1238155864967803 0.08467825417568642 2.0627382164785444
Ni 1.5348151963094563 3.9042540833284285 1.8068569201131433 -0.00562685926847418 1.0628498239012147 -0.11976481346617437
Ni 7.259929475351058 5.290802020892325 4.827114491165242 -0.4212623974608874 1.3123198498757271 0.7583167955142874
Ni 4.019259865777456 8.678001418374102 8.717984503926113 2.9702131910194587 -2.074331577743098 -1.476551892516341
Ni 6.109825441530002 2.9553269919977643 2.1941724404843903 -0.07039886143853682 0.4201347116143474 -0.5323489664267735
Ni 4.484957501393535 1.5583080200787773 9.046243575371971 -3.231257294984816 -1.6022281863709438 2.1933813674201192
Ni 1.4631260405350186 1.7545682897740154 0.8430282437920572 0.733880259738478 0.008099489178682825 -1.124612092710676
Ni 1.9009409659575334 3.9574317811917927 12.489795251741802 -0.346669552545661 -1.7542608587318884 -0.21440712083310817
Ni 3.110682762085208 8.453266959051296 6.356869765754122 0.5987029683719753 0.04190178244010848 1.965746435042827
Ni 8.17176895779648 3.5238219048703954 6.415465969744926 -1.074768943936304 1.0571576586124438 0.7452039122814135
Ni 5.1277385344305255 3.832333880900083 9.833642254209398 0.26809278328202213 -0.369171590302919 -0.627810427260893
Ni 2.1846570150898614 3.8016786108596277 7.284469402555888 0.62480146523124 0.6143465884465033 -1.4493917871617812
Ni 6.924468217609592 8.864770291526817 8.77591806611351 -1.4962074619637393 0.14082009147457683 -2.4696381745701723
Ni 0.8529225856989945 8.156612297300144 10.781167354444152 -1.5399573533561801 -0.9575711198663573 -1.4900370714869693
Ni 1.8005373320354636 9.10665765443572 2.3396486556507465 0.3821227511469484 1.5028239388389923 0.7683752081915541
Ni 3.100128550934711 5.078710434471341 4.610191257117743 -1.9846111331578142 0.8658686118540379 0.1557479164290027
Ni 3.217112092741187 5.164327082543326 0.2678976710192009 0.8179270509777526 2.4051114556416966 1.2567937917839647
Ni 5.722766845037901 1.2668657708397801 3.5810207386983666 0.708240961903819 -0.17662810231212162 -0.1698383330837978
Ni 3.125904115644638 2.8103221120053794 10.512898160405467 -0.10487144129410972 -1.4097248075894624 1.3437299887558924
Ni 4.742029250397243 0.5108737257613167 0.6733115378843351 -0.28657181592281616 0.944887610861418 -0.750378000283185
Ni 2.108457828631148 6.291936414139941 6.63387714424359 -0.04983363569267547 -0.26023112114575825 0.29888894272727234
Ni 5.151416195522972 7.176623293818147 0.7346100635392421 -0.22991241555755887 0.03397507139386407 -0.03737252711118725
Ni 3.483573577759698 1.8100749379087677 2.58484183408376 -0.9305513967444039 0.09918390399102918 -0.9142986823309672
Ni 0.6485461091452914 8.94784542640582 6.298043439296026 0.5115867941787576 1.1109523358353963 -0.9904295611572748
Ni 8.289464123296991 3.470182113699216 4.178914952000811 0.5256394156170818 0.23323659483478543 -2.241301588140166
P 1.7895579950417764 0.7233534705608657 4.567934672491281 -1.0364996160424602 0.9306904934254293 0.04562268293512142
Ni 7.85199114692226 4.6776781363509095 1.879264168887926 0.6027539985128973 0.2870081321292864 1.1022653495843597
P 6.20408323445813 3.4444897257846954 5.49633280652895 -1.204634850392222 -0.608771408351571 0.5397665990470834
Ni 1.1592719650481071 2.2842566066563323 8.736867484856669 0.8779929059213974 -0.24667472261756226 -0.09753994062970299
P 0.27841399051845744 5.510508905026103 0.6653505943772962 0.28557191390339204 -0.4744713773836991 0.1603242229457755
P 3.9794274226437922 7.250484288139316 12.406879076960688 -0.4556619579866798 -1.4372140141486667 0.5325834510350828
P 3.8591445346195163 6.263739480497064 8.236796576445455 -0.047288757783634686 -0.15174136637277091 -1.0091091398446492
Ni 5.824482823954165 4.632540862043529 0.6527548549928716 -1.3116688465552895 0.22438634353300713 0.4810485163805845
Ni 4.2026739415154335 8.614574490943397 2.5459936496957423 -0.36042649712043734 -0.7746175895568401 1.6926022053798269
Ni 6.419196911112226 4.5205664116937685 7.804898293736206 -0.7828543756443356 -2.138990965594697 0.6733019839347888
Ni 7.590742074415903 2.9004672744939533 10.665449024114473 -1.1455658121442076 -1.473665057886849 1.8016506608697618
Ni 5.107933215257569 5.5876600036989155 5.903748461603539 -0.4075296212558272 -0.09252397547235033 0.511281604233513
Ni 2.585532201485635 1.4305484623340525 6.834486636151985 1.0221760003309361 -0.5561021029823133 1.035687918774442
Ni 8.477582308908527 7.81847089837335 12.463297897285067 1.5095939105729743 -0.7009205169830058 -0.029056036825691894
Ni 2.7045027445157164 -0.0351431202459556 10.868966931302255 2.1528859784092345 1.9580981744689503 1.0678786445743738
Ni 1.4731627071807627 6.608775311576458 12.610384045535852 0.08887172343174371 -0.6194317162788945 -0.4497378791927609
Ni 6.39584271533525 2.037813003732372 8.63042798814792 3.6703811461071556 0.8034553397241389 -0.24974821933656344
Ni 7.6665253768975825 5.130464884946634 10.715402234875903 0.2519246581625919 1.4341027222131948 -0.8249551614691276
Ni 6.5958182152253215 8.677372971475473 2.171813593692448 0.2591474011632763 -0.9619029144724918 0.10645575506209409
Ni 7.218461221907728 6.226910643864198 0.344885188661047 2.361963459499313 1.3699274730868665 0.1599082184542794
Ni 2.8428442390094077 7.846455269094634 0.6091896221186776 0.7943927153012383 0.37280815861424177 -0.40692515490260883
Ni 7.956960262725542 7.456947578071112 10.064105746362497 0.537120676783804 -1.3511422220595635 0.3999314971935951
Ni 0.5833456675991935 7.625944342605258 1.2565195016777997 -0.6472369114166208 -3.4341666995909694 0.01844483696874888
Ni 2.36101954695058 7.91905012775239 4.3531222806738805 -1.2293194976230957 -1.7147095788018274 -1.1767453230708056
Ni 3.82674255187552 4.954167046149009 11.504180724330464 0.05756802822245569 0.9540569360655117 0.05136575606648573
Ni 8.352770906467663 1.2922809027696118 12.676432890395098 0.5710849495443907 0.5972857763094745 -1.3187337238218708
Ni 2.428023076583773 6.361167233516803 2.3826353477035562 0.8586438119708244 -0.3296928154820064 0.19888999903411553
Ni 7.795671214565752 1.3503383059635035 4.9232188089513995 0.7681564073125287 -0.7033962322170079 1.0959059830252351
Ni 6.523251082166035 6.872196222629546 11.867662396071223 -2.063353224354724 -0.3850116426589692 -0.998427748871403
Ni 5.28913848498419 7.833304093554217 7.050286983461493 1.370803962154549 -0.7804501370782172 -1.0964176325543311
Ni 4.1056251050081025 3.084324959807433 0.6072543753455478 -0.5762109579170464 -1.9801700666673252 -0.8222876419392936
Ni 5.880460807262889 1.2566072994062845 6.438595588174304 -0.20616313565676106 -0.23852304004470534 -0.5060959462675155
P 2.9615005585901746 1.7990124241196737 12.523205522083451 -0.38386621620061634 -0.27832037454730135 0.39059505028401764
Ni 8.803348849052032 4.031773352553089 12.631159760655219 -1.1029412926054618 0.02320369180997294 1.3408053589099296
P 2.240533337870866 0.03124767366107413 8.785332755166936 -5.855938646607482 1.9599326565745279 -1.0410337564673877
Ni 0.34332793421371005 5.830055669246415 3.3386010442988603 -0.9553589427063868 -0.10559572105464395 0.9222441624302892
P 1.004812655977825 4.6215060738529035 5.48528230716586 -0.2739291874581411 0.9062053637998715 -0.33578632997425395
P 7.626905496685514 8.547487784514798 6.657141693918851 -0.21770173242397992 0.6177604992240586 -0.093073163107601
P 7.147345061834981 6.680935802524867 3.29353123561442 0.9834310183522548 1.2249488793592258 -1.4154010320386334
Ni 5.944913581836942 4.213745697170684 11.969502215993984 0.5995208362875803 0.6249431330154269 -0.21776883821648946
