# total energy = -340863.8999843036 ev
CRYSTAL
PRIMVEC
9.35724455501197 0.00000000000000 0.00000000000000
0.00000000000000 9.35724455501197 0.00000000000000
0.00000000000000 0.00000000000000 13.69527325103639
PRIMCOORD
 96 1
Ni 8.334675241624682 6.648509184915971 4.946006315470187 -1.3553629450091302 -0.9465737403145891 -0.6800102491928999
Ni 3.553029857140205 -0.007776805696649867 1.4572457547406072 0.6285452485443885 0.7927451523954863 1.0886878680102412
Ni 3.1158313340207586 6.74363492996728 10.319497398803303 0.48597166471381464 0.9290182479293291 0.4385304405127157
Ni 4.423927294029384 3.9190291087570537 8.788023432596189 0.7283323333370554 -0.3070701929864841 1.0406254652853755
Ni 0.02429140607448328 4.319565948902761 9.189979766694709 1.2860272347277852 1.2840138038421822 1.0804950477868036
Ni 8.07314026482121 1.972357372112436 5.628606054856268 0.941946783065539 0.23902080561673028 -0.7750744745886007
Ni 6.611847501942232 8.55933331883665 9.30548558972376 -0.6021148222670019 0.22078319956278106 -0.8508469416342249
Ni 0.09446886650491845 5.483494846742833 7.024798598035172 0.18926815967363533 -0.8387902675800071 -0.5982527682084342
Ni 4.891480717497683 6.234123623279418 8.826343219251129 1.4801174983804122 1.7596174950581116 0.854394035555535
Ni 8.700477991112267 2.5923122326897916 7.958405478718406 -1.915552844907572 0.41454127668696994 -1.6969599681278904
Ni 2.0101325671519925 5.448171249696926 5.355385751432685 1.5153369837043387 -0.5626026231049923 1.1930823696679322
Ni 6.997534395462283 0.6045313148791389 7.208479431225038 -0.4464700070747666 -0.43732819267449846 0.4526229140500398
Ni 2.452346573189745 4.622937164750535 9.872977188961439 -0.9250278958230134 -0.5842775369752647 0.4887543696652743
Ni 0.04787727593247348 0.3680250949970973 1.1969094409256356 -0.5074105513138809 1.1860365185647446 0.4458693973762901
Ni 0.03846388821639868 6.4492185968673015 0.8419292801382599 -0.5721123623676405 -0.14623946271793525 0.10380289082027928
Ni 2.223187661493252 9.203046222566206 6.672829598447631 1.0718186030587282 -0.044466972064123415 -0.17519162697591117
Ni 9.016210126615047 6.754049542818165 11.962588317328933 -0.7355303937473914 1.2974755857740428 -0.1075469312437438
Ni 5.884883196115343 3.1108626373237054 6.995723768699797 0.8495896721883561 -0.14361539483152683 0.3224325343751673
Ni 6.865672109483231 8.443593564701333 5.095216932289799 -1.023189014976483 0.5823813483938163 -1.0434338812684483
Ni 0.6060528027942818 0.82277125825964 8.085771608835058 -0.7839262685522757 -0.9515130865977354 -1.501525531742543
Ni 3.817512365882605 8.927138518593859 4.679990154395119 -0.45307131444136806 0.6413614264724503 -0.025802819995716854
Ni 2.9642533344057527 6.953358845355335 1.5354863525417597 1.9056790374372856 -0.807982538170531 -0.5248094635166187
Ni 2.004293646739636 2.0658081704428923 9.297925872093725 -0.07424343199560762 0.7509243597049583 -1.733966627259227
Ni 7.266835884993727 7.282649627777193 7.344775179530012 -0.5730960664371485 0.6272805228993519 -1.9287276917266332
P 2.2506605306129295 4.651130541677507 7.756536969878704 -0.7728859515777141 -0.3090769390038677 -0.47976219346899307
P 0.8973335233458929 1.2558170363806826 4.160679005803634 -0.14108568643113767 -0.03809809242330213 0.7375674787820781
P 0.9822673579594791 7.196862412487954 10.118341911975495 -0.41517171118211726 -1.4362578208829846 0.34317850867326705
P 3.1795073811458967 7.168902966667247 5.609049414372574 0.6461894439887128 -0.2266939086202612 0.6629620354613615
P 8.72689349163163 8.771377830798848 6.166981652883868 -0.6025017732927753 0.745515272874245 0.7932634867928016
P 7.3694006392242395 8.161594294721864 11.30358474076952 0.7998532241951773 -1.3133881432392414 0.3016567352803966
P 1.8749297449754867 8.67806739113215 2.6869579511110455 -0.28049707048364597 -0.3184645508663547 -0.1030403016226419
P 0.26968139364801724 2.808707863228505 0.8847283796159482 0.7552790371292283 -1.1495438229553494 0.9519275484273348
Ni 7.29375667670262 6.957738035664603 2.7031590838064847 -0.014953278875722635 0.8364235671200433 1.1316833977351608
Ni 3.6075358048997828 2.629600851028319 10.730684654355011 0.9939087779551271 2.5422458707345696 2.2715688716651394
Ni 4.238784859287578 1.2789294296795939 13.033804703409919 1.2382484246816094 0.10524785079692196 0.8545950958227475
Ni 2.447069087432423 2.190577665280011 1.5770924033775005 1.0038031542507033 2.376103241334804 2.076784153048649
Ni 6.4248804045715655 4.169924898847624 2.353793269569452 0.49270255567974497 0.49980317128026835 -0.7500329582389405
Ni 8.874120372670122 1.9445102132227354 12.628822236520765 1.067681440961903 0.2978000805384678 0.11036820274262284
Ni 4.7762649690403975 7.998974746891183 6.942571814183276 0.4493815242946067 0.530956199844305 0.5440320591916566
Ni 5.460148522337657 6.331345391042855 4.592271603892563 -0.3624419848885693 1.0773428753110672 -0.5111034267844359
Ni 1.1981670545529124 8.709470302837067 11.72064740998616 0.9119018999640166 1.0283181086729323 -0.21362036326575468
Ni 4.93008870727554 1.4643900107259185 9.331890797274449 1.1800761872162515 -0.3388873374970809 -1.7991122107186241
Ni 7.867262176820141 6.369148657815162 9.282381617944676 0.9541117005628472 -0.1510065450892754 1.561407552810156
Ni 0.3760386389732866 7.619360704889753 7.852376672666332 -0.9803279539468988 0.7396382452681778 0.033483476469426204
Ni 2.153728837421261 8.65284026063261 9.074501079673981 0.38976149863912873 2.1203113869073227 0.700067167843775
Ni 4.334752756321438 3.963073657444493 1.8026674905260243 -1.9266808364999333 -0.26986890134583846 -2.3320273340615127
Ni 1.7960575331874207 5.946828153054125 12.11501595472189 0.2633182447115142 -0.02028728949412635 0.9099591744153489
Ni 9.052029657606234 8.595143492583587 3.233234806183827 0.1715846263509432 -0.46255148601766144 0.8779525396017653
Ni 2.5315743602593326 6.814852915958378 7.818699950608525 1.346420648214178 -1.3166776126237905 -1.293297028916321
Ni 2.665719813835524 1.7606122919662563 5.160694248933171 0.8590916981415205 -0.46275563160866756 -0.101596884307896
Ni 7.085726422523917 4.729591034718548 5.506376116108755 0.15762970683274788 -0.6822095708370637 -1.7787868688977109
Ni 8.38229425761584 4.259717014676107 -0.039493185083961525 0.9803521223166148 -0.43565286185460456 -1.4792507795047427
Ni 5.8332312078521875 1.7328867772518133 2.110633113300829 -0.2854554429301858 -0.800012632591177 0.9827627886406365
Ni 9.109735782899508 8.962967406829296 9.850818298851658 -2.0360375672589064 0.27477482328788805 0.31541188008296
Ni 3.5153856635201564 0.4142788890520967 10.967887053209296 -0.6253660794854584 -1.7204007156493342 0.5591755997013144
Ni 5.01720465124836 5.450052055791291 12.9643150004319 -2.0563513391155936 -0.4026267846375711 0.5528188042453511
P 0.23930403591296234 4.926093163980546 4.435255173919125 -1.2348327141318411 -0.2854127626177084 -0.655552887481484
P 7.147587164264445 1.4686849858369309 9.211714773639935 0.5304877448483185 0.31779246449999465 0.2726462069806595
P 8.779172415259573 4.6408750019788805 11.434991328953569 0.16804550284943315 -1.2112603261285397 -0.694334636235372
P 5.403705625018211 9.127318044846332 3.3371956612565254 1.519206236851758 0.12692944953541366 -1.320062212825307
P 3.691741645910675 2.5396215903148245 3.3729815061684105 0.0875540330615847 0.14832771270553163 0.020187530691468458
P 8.038827250154366 8.084331528944894 0.6848866498809205 -0.9255089492244899 0.3852343001927366 0.7691794492604044
P 4.560664704262983 0.9269959876202041 7.034234443137448 -0.5271244848030405 0.8758825444466141 -0.9130267575970792
P 7.365872958141774 5.09957647238614 7.4568431510214035 -0.6612224270624354 -0.6563481296892696 3.133642535253119
Ni 8.97220300690461 2.107288834205675 10.224150822787681 0.027555283910449313 0.19854341432797418 0.7358201570736682
Ni 0.8907291803538396 7.545663049172252 5.375586170320819 2.2555542414044383 0.8512596036916115 0.05623182590953542
Ni 6.85893489362282 5.659280037234066 11.764979226072093 1.0969099988097173 2.7827651152736976 -1.2261303012618368
Ni 5.756642163661261 8.212170199896201 0.9757855948671083 -0.40650040866036447 -0.4899329633544079 0.6422116902878876
Ni 6.200128754917092 0.5768722365988749 11.310281720479653 0.378165052050781 1.9965083988160324 0.8573888565178008
Ni 1.8540630902967128 1.0908488202431093 13.691931506183055 -0.7328466762676411 -0.8031480928963651 -4.933093103147769
Ni 3.259689607129043 5.149169866914168 3.436554623606793 0.3963869743754464 1.228204410182046 -0.32056437081817696
Ni 7.003335886897637 5.7539659918055985 0.8183845821549721 -1.1088663998406452 1.4296799105551508 -1.5446051365408369
Ni 1.6372370265224727 4.868630327037788 1.4170086687387253 0.5148333261405132 -1.380125753776107 -0.691023569584268
Ni 8.465498873491919 1.5818234260705892 3.2324132401386274 -1.335659553042932 0.8829600201186858 -1.4469212141341017
Ni 6.6850211519817 3.5090695236510205 12.148514889138937 -0.7259949434531304 -2.530470989586829 0.346241720979623
Ni 1.5518989589572618 3.4535155645353783 12.061755456172063 -0.6864773449744823 4.125923033576203 1.9685129420443708
Ni 1.4209068966935134 8.184566329357017 0.22591756228809498 1.0755112214189673 -0.9745553131291795 -0.04040257218676268
Ni 5.205949625026635 7.773876879199438 11.246708603041272 -0.9139772944358067 -0.7554438448418667 0.6975014639991278
Ni 3.4840669670134936 3.145054007815293 6.903280745575128 0.15421219651076665 -1.327805861326468 -0.840999359416184
Ni 7.031594764534363 4.107044217483784 9.725506083848009 -0.5678276189493576 -0.7659038638329261 -0.7770372547419262
Ni 7.298519514026161 0.8150880250054958 0.1058613113799891 -1.5820290857152495 -0.4380342176025876 0.045407738710837926
Ni 4.563125659500884 5.428184175977705 6.735417398066428 -0.4388400013333345 -0.3380869530829726 -1.2414486767864619
Ni 8.691532465608722 4.3629274187599085 2.3032576005453915 1.510047196060309 0.0409360760927295 1.1913070229350644
Ni 5.772081616674704 1.3137290210474688 5.185975651449366 -0.9169695442949111 0.32915802602445887 -1.273382549380581
Ni 5.010448720899448 3.9348615660290203 4.507045823258359 -0.18783322699932167 -0.8282945102550057 0.9245676683571432
Ni 1.5757412173077177 3.409078011589415 3.371954080749698 -0.6559341820803026 -0.2548469740157095 1.3509733005818667
Ni 1.2372148348105467 3.366773910332582 6.104325545382042 -1.7080409085324004 -0.36547254418477704 0.26639148432019927
Ni 1.2579317735813118 6.568167885780564 3.022601366654616 -1.3935242865702 -0.018972941558077 1.3675258056239095
P 6.936066657980279 3.0620458940684743 3.9436218180964056 1.0671165695973688 -1.9566419016383982 1.8414454242691964
P 1.6039720232116916 1.7004264969465812 11.302270047952312 -0.2283640972338325 -5.041888047866001 -0.14450011142932534
P 2.97189820295847 4.6671220721017335 13.417422710226168 0.3415160333691796 0.041135850808361414 0.14459549935660904
P 5.665989181361726 2.868266722883392 0.2949412745024347 0.3136571021753824 -0.3228914762894568 -0.8454702507033439
P 3.730340278444282 8.124090459765572 13.394825901085463 0.36214759357660214 0.09636031849930501 -1.0588946959082084
P 4.293646382328678 8.646252760680207 9.283176047981549 0.5913280160641429 -1.758285149399933 -0.17084106331669932
P 5.077605662885798 4.981693909317442 10.616465452410411 -0.22629590185089415 -0.05927292672870437 0.9478037560669482
P 5.220649855744283 6.073113521459836 2.291589116964929 -0.5026282994338892 0.430735112838013 0.2605638218948287
