# total energy = -381164.2193230902 ev
CRYSTAL
PRIMVEC
9.28459161649702 0.00000000000000 0.00000000000000
0.00000000000000 9.28459161649702 0.00000000000000
0.00000000000000 0.00000000000000 13.58893833165096
PRIMCOORD
 96 1
Ni 0.5813667601622102 2.8960683170886323 9.660416799248123 -1.031779327748655 -0.5523698896333906 -2.5260587194517465
Ni 4.737889850466017 4.089927501605408 2.674207434951999 -0.4681436353934583 -0.04862238899339368 -0.5337319628172291
Ni 7.07422729072004 6.23703568463941 8.469957632100169 -0.461084928774464 1.395639276030674 0.05041444789680995
Ni 2.8522821840701535 7.754694994054289 7.0987386120026486 0.4479147099410931 0.9220060782775541 -0.8981637244423177
Ni 6.591725645108437 5.2284783751826005 1.605437693380804 0.3499469377453521 -0.40589542808651385 -0.24750955981403183
Ni -0.2946669340190988 7.807654303370955 7.756946507467559 0.37664501586182875 -0.1759220773840325 -1.4410184754964213
Ni 4.857391826310131 1.6514874097813665 2.415107913648589 0.2150388408798361 0.4662536174595969 -0.8449917684050285
Ni 8.755035440126587 6.2510739868285405 1.046417087787906 -0.6341715935922303 0.8930721688520232 -0.8682324841005241
Ni 3.641518875595981 1.0555744802807232 6.376609090161079 -0.9872858733219707 -3.4796824246345817 -0.37255104829811325
Ni 2.8303519791953344 4.826214168405963 9.47408526300246 0.33580432769638296 -1.5443228294137274 1.1946201464686974
Ni 7.990235793152209 7.320538215836075 5.249066956600853 -1.2306790969747836 1.9830944394029717 0.057234556142436915
Ni 5.723207827661322 4.427310983714291 7.397722881020388 -0.9108058386863604 -0.8405792411596298 0.935120504172325
Ni 3.870346915115369 6.565700935428455 3.1345736862189533 -2.937508501697586 -0.95358950951079 0.1810779105533591
Ni 3.447833014506395 1.0311188665464837 4.146922822801451 -1.1232041566195559 -0.1427831287382186 -0.43580198583795915
Ni 5.682030664824818 5.990743328706163 3.8371489301236656 2.883741078168143 -0.9053317029456667 2.2400558886585227
Ni 0.9696455869206675 8.177413155673952 9.759792566325453 0.042973161127416316 -0.0395124562723255 0.007383694058580833
Ni 7.958306083345053 5.562658673260232 3.6263032872179735 1.0379363484889865 -1.2254597575573734 -0.4867234552781747
Ni 6.23954252431604 6.552340408411154 12.084696960735762 0.3324369538860468 -0.6404165460606777 0.45674130709378763
Ni 2.452710508798046 2.9271995520358254 5.822968905281541 0.38222816637656104 0.5611656335481497 0.8289503986714498
Ni 8.917227967204578 -0.14307833877325407 3.3986070393896277 -0.024278412931390447 0.9176274895938842 1.4767791780357986
Ni 1.6567424885108955 0.41421161898362974 7.940573442239881 0.0669551258643105 0.5893354111141463 0.13739023985742144
Ni 2.346773320981921 3.9816505967577616 3.8958535445955143 0.8237364585706781 0.526671713536338 -0.529652907651849
Ni 4.110390741039829 2.427539981526397 0.1189876094808352 2.2889366735196255 -1.5175008241248769 1.6317958727257316
Ni 6.977361148696759 0.2901666925699774 11.114922317994704 0.6892232831507356 0.4759101667127545 -0.5002256035296675
P -0.028171307210489573 0.7580887443141243 9.804636214303812 -2.1464155401935425 1.4735082205940107 -3.6393008797625837
Ni 7.028185001992592 7.534055964145227 2.5604275527845783 0.9039402219147786 -0.7556348778067502 -0.6651626426571061
P 4.970450295726166 0.8101502336429023 10.353901499718061 0.2459661265863119 0.8528770846903764 0.4939505691542332
Ni 2.486097899454206 3.533548362264367 1.6101802626653332 -0.5910320820902788 0.06502808404492673 -0.5378783808854349
P 0.7471654225379918 4.433986604927243 7.466754746500815 0.8401930614648047 -0.5946491100175759 -0.38969696394978043
P 8.8604434062332 6.2699588457258235 12.085784186388107 0.4813915015423 -0.45155719178968684 1.3100832472357244
P 3.640014771790003 -0.18637703074349932 0.6771846718170034 -0.06701837500207813 0.4374675464658402 -0.32111407267405984
Ni 0.14163087097478483 2.3978014352884434 6.538031924612431 -0.11996895905718048 -0.4714863266134461 0.5588223301269538
Ni 9.204966739124782 3.5105504293791316 4.352618302860376 0.4107334729051056 0.6779109434617099 -0.7477737298911186
Ni 3.375125379292716 0.7779596268175485 11.972846416660207 -0.22678518278248685 0.1287824435837524 1.2658070510261685
Ni 3.678647956584297 7.53119630999559 12.381153035516663 0.34962889228430105 0.09707945605351667 0.86918842025589
Ni 6.554420156883618 2.279580733056829 6.6245801002185285 0.0809018178523897 -0.8066769319852299 1.025162850873402
Ni 7.664875856899758 8.084957194563263 13.467099271168472 1.147448116768585 -0.3284995665048536 -1.360598739486773
Ni 6.876502632373659 2.7550075200254964 0.6434565366566496 -0.21634958927145964 0.676225585339487 1.3357965928414286
Ni 1.3022289352783718 5.585805159607787 2.5269853830391886 -0.026308555987541785 -0.5341605657142154 0.5087200141539239
Ni 5.35684713580887 2.854426924682382 4.770233653049386 -1.320127261735288 -0.02994949517423874 -0.9420051471073001
Ni 9.021447505612642 3.9983350074944473 1.3516090346122949 0.4518562110873443 0.11312956753784388 -0.7934977142907947
Ni 6.308684876434067 8.767458223413 4.28997330780052 2.6400411219081885 1.8450030597134677 -0.11276369955799291
Ni 2.300276087276123 6.366286481448198 5.27220880065271 0.36199795537261525 -0.14357348584999788 -0.923859586546525
Ni 2.2749570065421554 1.4498075155007475 10.037781588821844 0.7950784285143533 -0.4768637888752754 -0.11497741937986004
Ni 4.728001760630418 8.620018912061548 2.6909494101553326 -0.7301079371802394 0.4916918550270435 -2.029636034607937
Ni 3.461388517942989 8.464047061218158 10.198184975138032 -0.9134679588995557 -0.581566822912321 -0.19712210850041534
Ni 4.137074656708851 3.0137876513849204 10.766189351364662 -0.9782834127130442 -0.17626506254574803 0.10632565724213301
Ni 8.851344506666171 2.0174024412468614 2.284911945435797 -0.060521711534140925 -1.174478638523816 0.21538054048997096
Ni 4.644960375194186 0.09826997224219358 8.311170693145836 -0.19046809351900748 0.984735081875659 0.9670142675571279
Ni 2.30066604011471 2.9763800326547574 8.193749394233325 -0.19233317175220424 -0.6201482827299449 -0.8369794396235133
Ni 0.7813355042487442 8.773028978249958 5.920714298109921 -0.17754495769943615 0.7977590606703099 -1.3199675962289719
Ni 5.806453474108244 3.0364142006143595 9.200893588879827 0.6772424566397756 -0.21780560499169585 0.9260843621119857
Ni 5.606379814138947 8.557385058511366 6.463211116397266 0.9677709432174947 0.10990206173948168 1.5248768048739738
Ni 5.158890362677617 4.834319616693735 -0.3557205501138643 1.3001616172466384 -1.5432550502708453 2.45294220197173
Ni 8.076786754135725 1.075118545167046 12.961536557450149 0.7451033821478071 0.8045038355933113 1.5006930085389187
Ni 2.5774211404147147 3.3812253558391836 12.66234895588086 -2.119005523611705 0.6230981093868883 -1.6241442697177448
P 4.509433194602426 4.8660543500815985 5.435480197250792 -0.35801223125198983 -0.44230199174000595 -0.7490153156077036
Ni 7.7762166769077306 2.0096869457976765 8.469142444975695 1.447913917064674 -2.279640078709048 1.6299691039296378
P 2.518278293229025 6.806441105707535 8.919235295864162 -0.5682425949995891 0.7416622176767421 -0.46486342198028974
Ni 5.445004331103709 9.198430386782753 12.986350556412233 0.5557321212374042 0.8815867939202431 -0.1291899634348162
P 1.1641484920530074 1.712310768009538 4.597994269622944 -0.074834014391755 -1.1165845944205093 -0.9132005641707821
P 0.9719110272210297 2.3768461125100915 0.1116304992594945 -0.9503645748155891 -0.3019017614116672 1.343055845507003
P 6.7943897060769185 2.476831877242068 2.9255348247987145 -0.4391400490722566 0.14702647739560487 -0.19331764715266062
Ni 5.706560555290217 7.31104936343046 0.6680802014951374 -1.7563879323772202 -0.8954884916029997 0.9773092217252329
Ni 9.737029533602508 8.699541437359104 1.2456421361037062 -1.2624548467244838 -1.3121563277146693 -0.7287023150819644
Ni 3.2160617595148153 5.102356485673903 7.222928378042061 -0.16365045910553105 0.07307975070480961 -1.1765090386902837
Ni 7.149478903975927 4.273576719397078 5.372739570899569 0.21796115673295363 0.11119918328435043 0.4244580215800496
Ni 1.3654198643122497 7.982631712799763 12.701539216158851 -0.41769010672859674 -1.2282260074486009 0.42305471347461976
Ni 0.714464163185917 4.359282782563655 11.103141099973682 -0.37924131583409526 1.8691660301129165 2.123295666346627
Ni 4.424702013532316 2.673145277696419 7.3520770443455055 -0.5488294805803 0.9605044914630684 1.109496063004844
Ni 1.236642581664603 5.341703967243744 13.28768475551203 0.9103906055258127 0.25429752927014265 0.3903253415623988
Ni 2.1147049590657034 8.179037959168063 3.5198340923149196 -0.8089580147099229 0.46856863874601884 0.738818834690676
Ni 7.976578159210271 2.509560061909188 10.973774245772455 -0.033819519652606274 -0.27910764633528706 0.24028501704113459
Ni 7.444097558119773 4.508541873828513 12.50515246743248 0.9504247386295632 -0.49682480537823465 0.41333362953211394
Ni 1.7625775458216764 0.9829225526154141 1.970165225606888 1.721140936249468 1.235050486569602 0.18705366852081978
Ni 7.90418620010402 4.095312564614467 7.8060025745617985 1.5007806831567185 0.8544727113122703 -0.7750816736774523
Ni 7.679183412239341 4.6437255245386595 10.031122679873402 -0.5728057888902393 -0.11382633649455236 1.2732437098098717
Ni 4.640039541754874 6.853031185327282 8.508903707624473 0.6942832141721462 -0.6021695867643372 -0.2380188467147772
Ni 2.5612288130219607 7.221675886662886 1.4435933384801223 -0.2450672689211263 1.0453930618773482 -2.5885175001076
Ni 7.060021865885799 0.35036519779727 1.5800805458221172 -0.46886920070557314 0.8764515295762068 0.31901553827381834
Ni 5.970800026389858 6.232904041468667 6.443724615977593 0.31507480845851543 2.8731705017411486 -2.5302118223881713
Ni 7.719952053054469 1.6157788712764747 4.815906415039315 0.392683300271614 -0.5004423475261639 -0.8839085000748841
Ni 1.961109963619415 6.401502936609159 10.913941553446122 -1.0189896321831549 0.6291720834951099 1.5556056014163984
Ni 5.816666524642664 7.800273053211988 10.345326251105707 -2.2481229819373736 0.5853910817544177 -1.403669088313686
Ni 3.74759533228303 5.227336370441024 11.72673696717744 -0.550625139028142 0.12059630822853425 -1.6846065887688602
Ni 0.6569433341169215 0.45717420874537856 11.576443572431188 0.8863857579707831 1.0639230023607356 3.3485006275807168
Ni 0.05324063243593381 5.760011947950816 5.825088577497003 1.2848874646963873 -1.7126940910336956 0.6697749446181369
Ni 7.977599464263713 7.288097853502197 10.483512538672974 1.4599150552906082 0.5395223442467612 -0.06449663702148892
P 3.389042981793713 5.352557654584414 0.7419446967966239 -0.07496745464582573 -0.40256276416885506 0.20698948821279833
Ni 5.92563977384493 2.3278420391276637 12.186056844994186 -0.026318069069238545 -0.28660241205043546 -0.7037564437699042
P 4.426224686521084 8.221737794993336 4.813445998319659 -3.525229774247077 -0.5379053774686284 -0.43793445879992965
Ni 0.1261404586914875 5.9766586035600575 8.94607333575034 1.4382972199105164 -1.6596159802617931 0.5831542220040989
P 5.479867971791663 5.424494668712313 10.206814074380478 -0.02943553165229769 -0.28248196212415866 -0.18230329832002795
P -0.09567678586559028 7.123184941145492 2.9843749943049294 1.1722865159685036 1.0119764340901152 0.2499207403586857
P 7.784229279281554 0.2251596974592517 6.673703944829951 0.3187800252242445 0.25668582699666115 -1.504152942063061
Ni 7.232919526842143 8.851307368300592 8.60209686529192 -1.5331750403270241 0.32071632301500896 1.1275238670408325
