# total energy = -340867.5151605983 ev
CRYSTAL
PRIMVEC
9.29542756620307 0.00000000000000 0.00000000000000
0.00000000000000 9.29542756620307 0.00000000000000
0.00000000000000 0.00000000000000 13.60479783935565
PRIMCOORD
 96 1
Ni 9.092294382598851 5.339804722148944 3.001790017586287 -0.35164489427306533 0.8929906648818104 0.06350059165680676
Ni 1.870165620733722 8.844645606963699 6.250832825602336 -0.8651258201507422 -1.5834388215785824 -0.6042274977346305
Ni 5.771289164616033 6.5693294894642 2.769270479516773 0.6360466991277562 -0.6380267056722625 -2.100918327092691
Ni 3.6942909897700895 5.54557759754251 0.5084598764072855 0.22580867780183048 1.0029806583494083 -0.4692139856395016
Ni 0.29882753957524927 7.64975560197922 3.3979072180468965 0.24585968291543464 0.26904254878980116 0.011896751437585963
Ni 8.86175848872724 8.442655555499174 7.329217662269842 -0.8528899402061828 0.9172603360624525 1.7386306083937992
Ni 5.392770067226983 2.210675715661541 9.615639956375034 0.2304523472214289 0.2290804065745668 1.8276920792388458
Ni 1.8186038851865336 5.590595352230636 4.504222025292848 -1.4430766435770308 -0.3969181642885681 -0.44161113632056853
Ni 4.8421275414753415 5.004574429959686 9.329707963171627 -1.70718884494475 0.09966572872345417 -1.0727663116839783
Ni 2.8816475485446684 1.305161659716098 7.307871642888092 0.5217596209467014 1.3006092463070182 -0.19175673042344393
Ni 6.405748558842346 7.953781144532293 6.543023430044956 -0.40408022925464604 0.657542664218003 -1.0914461474816688
Ni 6.755795762238059 7.114878121024411 11.820514395823306 -0.19628984240710712 0.019204340842592732 -0.5038603720687774
Ni 4.584839407671369 4.87562826166861 6.495120374705334 -0.1900837135963952 0.19145514002262512 0.9177401039123486
Ni 1.0932073251303773 8.201206829910888 12.619919289407424 -0.6700559661936653 0.6907119518811201 0.5724640892801044
Ni 2.5576740188842826 4.256431959161874 12.328817179508263 -0.565208950379588 0.6111180542068765 0.11889089550165331
Ni 0.6895236468014764 1.706343009000596 6.6525282120196545 -1.4524454863864407 1.8358833568003865 1.005111588649482
Ni 2.8413518709537073 8.27664851833724 10.91287075747046 0.3544815923909121 -1.8298543769974875 0.433442484466847
Ni 4.291968377946244 0.8504832669087625 1.259008003804993 0.35797417892520283 0.9164031302684799 0.9889064396445291
Ni 6.534954999099408 5.000623873333122 1.055749541511393 -1.8869904598888472 -0.7922389021830292 -0.24499553514292646
Ni 1.0795151606340714 0.4990872970036025 10.877294368348457 -1.739613541132359 0.26885434403839503 -0.47888878972510424
Ni 5.9739201855630615 2.052978790556429 12.257256332003301 -1.5120025200144669 -0.35623251364374775 -0.27175223441148033
Ni 9.180284897956644 0.2053452857351617 5.1622583414665 -1.3987235713829524 0.6702606260053038 -2.604789497794746
Ni 4.187450592748374 7.9798827045496905 2.3634525710667913 1.337354681357168 0.6927986592068197 -0.12773960414153485
Ni 3.887682355924634 3.1273442844349315 8.11088130320111 -2.590806296141777 1.2934875476605723 0.6080867235797205
P 3.5803011640958204 0.38537540460729597 3.458434393279548 -0.7184037613694337 1.2038257242273656 0.05240910972933555
P 6.1575327621384375 4.62315515923537 3.844919671913225 0.3477345034750656 0.3825590673534186 -0.2557252628556047
P 3.623943195535166 6.656353280376905 9.46367366223528 -0.9054430317125504 2.2793724268699584 0.019889539835075423
P 7.5164870599673135 5.8639366890794955 10.267187134711024 1.200681779281745 0.5823252983449004 -0.93966544323053
P 5.502642018582268 6.587595004219963 13.460110659146933 0.27355920571323206 0.18834924740379175 0.5965419561649146
P 8.723749278763457 5.128092068674496 0.7021691461774264 -1.5482707583178819 -0.245688447444893 -0.32530188550316236
P 9.385221184888117 7.4200191148602785 5.614944724191311 0.879855155941117 -2.445982739934762 -1.2479769648232828
P 5.69942621572198 2.685467554183137 7.4149140661560216 2.694279314426463 0.5473420974014961 -1.1656142461546508
Ni 7.794290201947353 3.5871518940576514 7.095064917613769 0.35208635268585814 -2.1060669611731666 0.10949557032968239
Ni 8.964026780504808 4.077885390495856 9.86603553079407 -0.34111648393791577 0.7642354749915676 0.7059441954498423
Ni 1.2599487010534831 7.504681867224402 9.152518526899676 2.1056805243680254 -0.3006732883212047 -0.35982768719417385
Ni 6.800097769019725 4.326138368909191 9.01358628099938 0.8818336198237264 -0.6377449127657855 -0.9006368685731587
Ni 5.888104800206716 9.050306937228985 13.14253331305064 1.4558866508575055 -0.4863640150562269 -0.016354530098623445
Ni 1.8620971897881733 4.740286839356179 9.369352031304889 2.9384055595905587 1.4918185888674242 0.08248613162037408
Ni -0.2805406453365646 4.056087613344576 12.357006492509958 5.189903628647752 3.327108535058186 -0.4051564930379603
Ni 2.1910437730843526 3.917948267397799 6.4507551590176435 0.788111767388533 -1.6000581753028187 -1.305625725685003
Ni 6.8739220530860266 1.50334946638666 3.837750108793062 -0.17290077405920545 0.010527896114517352 0.6433650871660405
Ni 2.1309581306511407 1.758732037582524 2.409328293699934 0.3681668031874885 -0.03542903023157125 -0.18996235752718252
Ni 8.121005882677943 0.8848930798975101 -0.04229419447263527 0.2849211676932706 -0.5501445998472977 -0.04305517931826133
Ni 3.001316880333835 1.0891359279481763 9.73564764171998 1.127647279992574 0.5824235144856615 -0.22432849371187819
Ni 6.775000115156843 5.598431397492269 6.817976593997455 -0.5024784041195862 0.1568519481264589 -0.24307183575765237
Ni 3.858903712828529 8.131677033283346 0.07720503099590478 -0.487003962633071 -2.1824369525934735 -1.571391146385429
Ni 8.512919690887887 8.010102138886072 10.013049221238212 -1.2114421031220428 -0.5422124894844146 0.41218846018407723
Ni 4.157184681275209 5.729738604331927 4.382486320002305 1.1705600201957003 0.18374491586256095 -0.7723943566532763
Ni 5.030369240874316 3.1057788929675656 2.717680857687515 -0.33388217097300565 0.46880903689159903 1.254499339322833
Ni 2.1683164531974093 8.692962823358322 1.563272438841131 -2.1486876240571706 -0.03540177653806161 1.2010579316742411
Ni 2.001286919026248 6.1368876179793785 6.998797753737637 0.39148079532308067 1.3619485686464479 0.014651945585219926
Ni 4.53630798144244 2.3333474704868964 5.48578104290009 0.5457786095691181 2.6619631187922606 0.26280710940305063
Ni 6.01397418204275 6.97856997426689 8.553281366013081 0.1494145180118072 0.2305341083019578 1.5277698101510526
Ni 1.6494735844327755 2.8673232949881124 10.706336586576386 -0.5366198258879855 -0.8026403000220113 0.1865566742797432
Ni 6.627825613819429 -0.026388788722717424 1.9979191856949436 -0.20681182498435352 -0.42217462486251167 0.12739893297266444
Ni 2.7316565327181976 4.102323069016419 2.0852618097659814 0.7373769600378268 0.18892825983571335 0.42673139099525864
P 8.371870876178487 8.506115438062839 12.241896567839218 -0.9301605890638883 0.3335962643014706 -1.0000727406739938
P 6.176541911082732 2.071095578474488 1.213703020411547 0.9854385357005868 -1.2587578574888707 0.3448366131019803
P 2.854848831475524 6.395337680202927 2.4467275161265714 -1.581367797982167 -0.8266353773850279 0.4616289742033921
P 4.0015885227526935 7.238181964910017 6.349631134347676 0.02291444270432828 -0.6622688660490788 -0.8471772060921215
P 1.2002255802871795 0.18309575081434856 8.335087940585595 0.3813033405694465 1.688255241265041 1.411655448953272
P 4.164788340852926 0.40361396262372623 11.988697492529424 0.7385401271079926 0.9252816637050323 -0.07200425825244373
P 6.927965667737433 9.121333297660941 8.797937014039402 1.2523606957132754 -0.7555492600714795 -0.019792352135578815
P 8.229650837622154 2.4857552974260892 5.214161219197676 1.127549320962129 0.014362439369259135 -0.15529643071388094
Ni 7.578775718684046 3.084613204876535 -0.05182758476958796 -1.3484304795553552 0.32842577584412475 2.8383953030434923
Ni 3.360510784248466 8.52043039619204 7.983879738313038 0.8478400364871012 -2.2932970073708505 1.98518988847942
Ni 8.906144154355117 1.8859399609579117 8.980635850105623 0.004457007330089098 -1.0004656052370384 0.24368967184730936
Ni 2.7967895922060557 7.780886195699102 4.322271471128835 0.03556992668480971 0.3946550792860042 0.2940958922140032
Ni 0.6430195532790264 3.2706147062825637 3.9177874565045294 0.21015785863845096 -0.3616680828370223 1.2139808103834964
Ni 7.665911054725031 3.5419947079591765 2.45121720753982 -0.7551659085901318 -1.256266458525585 1.2053560448289629
Ni 2.504299675002552 0.677999175964735 13.268936252416943 -1.0712596452314647 2.4019993923752763 -0.6937093439465473
Ni 0.657439549737356 6.842252532082011 0.9757391505392593 1.7904169969374713 0.15124900011738465 0.5957724249887417
Ni 8.877932532327765 5.174950317979232 5.892509903231019 1.580422403349762 0.555809511442559 -1.8401179637070244
Ni 5.262559720815406 0.6269728570332879 7.860185486478454 -1.0684085489359147 -0.2520439573492756 -0.797229413419085
Ni 6.996742534749088 6.581961975241851 4.534029672197331 2.0129002099104945 -0.8036890530014997 1.932706730979039
Ni 0.5981486663431351 3.6401265345630467 1.5445663208286626 -0.7033260411007048 -1.8086198930987432 -0.5503294621645941
Ni 7.596120986131504 6.975948663752322 0.9020998454773551 -1.278257103864063 1.3562309494363805 -0.4789664370405751
Ni 7.42904497482356 0.9167094686537597 6.819024188660546 -0.48190135129918293 1.5284591229085935 -0.21801540700965677
Ni 7.004569284583365 0.5704585177904906 10.869975148847852 2.287124045790919 0.14589107823958103 -0.06324759510573624
Ni 9.043642115814286 1.3226649494286193 2.4625632061713145 -0.31906233235135373 -0.30284664182343973 0.3182858591966454
Ni 8.97244843768991 6.28368100679517 7.948399092092808 -1.0772086637260483 -1.9697558133125368 1.2939860845635458
Ni 6.654996147982838 4.327839432115453 11.570009135361461 -0.2816566380093859 0.6364835295548587 -0.059601770823032835
Ni 4.450083597282404 5.409483245614191 11.527072626858484 0.21971722019211193 1.2253402012603736 1.6041230894008116
Ni 4.50140365171832 9.445548508432601 5.482951514812733 0.11830082732613818 -2.3558771440959165 -0.4867702493557101
Ni 2.349391378104428 1.5820817360972577 5.0232452253482 -0.025754483256284676 0.3275904244270229 -1.8120132350510083
Ni 5.066956042949985 8.86751235826099 10.21746124606677 -0.4340135264789687 -0.7230379177073354 -1.108541926621691
Ni 0.8650966082561097 5.992464563139524 11.040687531337706 -0.6602173828366887 0.5058714889615352 0.7207066984709974
Ni 4.662344680970893 3.2092741811562076 0.31356172147823264 -1.5660957023144448 1.0670576913349752 -0.7214142660609834
P 8.03537640586873 2.578988433813019 11.480462565464167 -1.112639493729832 -2.9596259024219163 -2.5099592427867226
P 2.3348998068554527 6.613733745946789 12.558710759349532 1.3451721205190577 -2.114540031641184 0.1428155246380508
P 8.707129054649814 8.692284257161287 1.4500262473553913 1.5524606280295135 0.36647810263115593 0.9845332502774979
P 0.6947690564588188 4.084708234175618 7.862035276522422 -2.3846171923430868 -0.672882379898867 -1.3118351969298248
P 6.5876972539208865 8.661878914277773 4.3555621146638455 -0.3013644008509584 0.941488869592514 -0.07342530696968644
P 3.7580483260091677 3.5612920151515257 10.444783710701195 -0.7409070846782724 -1.4899679088119306 0.507162696969133
P 1.9024486399432743 2.7779477609541807 13.71458785571826 1.2044957537111964 -0.7634746855661432 -0.006776399491885103
P 3.114693207802567 3.7734229628570226 4.188495398783258 -0.44914189747997485 -1.4455451597221813 0.9872748175783771
