# total energy = -340871.07289189304 ev
CRYSTAL
PRIMVEC
9.25005108132078 0.00000000000000 0.00000000000000
0.00000000000000 9.25005108132078 0.00000000000000
0.00000000000000 0.00000000000000 13.53838476700556
PRIMCOORD
 96 1
Ni 8.59470333117387 1.8519896989380051 7.936675057401247 0.8607300050758918 -0.9825496441885659 -1.3064489929172467
Ni 4.73343606711097 2.8919174258372546 12.843026026757453 -1.141401139243557 0.5083641734764018 -0.5901897886946416
Ni 3.7482131414719704 4.576407202350407 3.496071552924058 0.051044368171324996 0.26993986379308993 0.12188237402980945
Ni 7.645583354354407 6.47103038607172 4.292588814357835 1.6125480802397134 -0.8482431854627908 -0.7976395043733102
Ni 7.205780432352418 3.670928965866733 8.302116819895097 0.45956643524740853 1.6106570338645874 0.8734839623074506
Ni 3.5612141116652096 4.793191396184559 8.602912751383284 -0.4615397569236955 1.091398839183501 -0.05596700228392297
Ni 5.480738432517498 6.648326112442227 4.259730783408113 -3.4859708287464546 -1.944247384628787 -3.4117659632982664
Ni 1.6632701596563706 9.022055684610372 12.90034766742868 0.22754751486980815 -0.16080399079567145 -0.4802432468704697
Ni 1.1081561026340465 5.419318094274677 10.241476949983516 -0.175177228798208 0.9227581259522301 0.0563557530819094
Ni 7.891347957784157 3.2885596101523453 1.5329785671384084 -0.12199293146574473 -1.4500304491870446 0.580890879891219
Ni 8.076478477301 2.315556001805328 10.111792160807232 -0.9924998134227423 0.24065217057256616 1.037703149432258
Ni 3.962435071195692 8.27294030921957 5.044117528038932 0.375857744073843 0.29257996979010903 0.539351880107168
Ni 3.7970441603852016 6.596979079673266 6.7737549531809345 1.7047085017250576 -1.7828867499986973 0.42614337970227256
Ni 3.028226176491806 4.183141286628483 6.151936928818755 -0.6746024479137672 1.3988251299578232 -0.20274048312845727
Ni 5.405147016234315 5.651614623535518 12.8297041033934 -0.049109355932141226 -0.2016937870314978 -0.8719839807231563
Ni 0.6199976143371507 5.289539879583894 4.67437079183752 1.5611946654684015 1.5321728243147548 2.680218722568339
Ni 3.087796504546591 4.247586391528745 1.004627682501319 3.2142255363135095 0.6403142161548585 1.1952215274981224
Ni 7.8971199895708315 9.09334582720637 12.100797314291619 -0.23976128332718064 0.6632739102748254 -0.34036289360134286
Ni 1.4585480322482174 4.153319122397329 2.8478936583976364 0.6060308694919563 -0.1550503761413459 0.8874406815978586
Ni 1.7997546612787858 2.225849007787423 7.254272899401238 0.10901091738377999 -0.24609956684038262 0.2144153483632243
Ni 0.8754978963814438 5.751330172670702 0.8114098434474729 -0.16116445945888375 -0.48026330147512775 1.1826840571527437
Ni 7.057677866749131 2.8269358179824615 6.1612378550391105 1.0715728055965095 0.8977487483920862 -1.3119853493544438
Ni 6.229927808315824 8.860725546162623 3.883052059032127 -0.0856097648510203 0.5352435143657491 0.9000509141627016
Ni 3.307105962287414 6.931220420345876 2.6703241305192997 -0.023170267468876227 -0.9956337310660338 1.7092799231458242
P 2.721938489760433 6.237318599017031 4.680503575610862 0.18947590480906723 -0.4597050177078018 0.8545750412180895
P 4.899751983015479 8.282190360159753 2.3336380013831994 0.390999741921604 0.9371868997830505 -0.2326429271148445
P 6.033752727976401 4.861401271817477 5.453830034332503 0.3862959086880315 0.17758172447464257 -0.05982134303300665
P 3.019817880187179 2.4717338618793945 2.605002120789908 -0.30736201319529 1.1170525351958633 0.15216045618806054
P 6.319625552282788 1.6096291142542434 11.463085852404014 0.1624314990967654 -0.6945225838764619 -0.7185762823915561
P 0.616236543624872 0.4120897693851985 10.415688709370567 -1.3483358629590199 -0.1646231074314455 0.6002163196927082
P 0.2665198677293344 3.6701334614858765 6.303972616081809 0.0004448008469024598 -0.6558681047290577 -0.041545427541954255
P 5.685136808142745 8.380842153436815 8.043032143111482 0.5308232738108664 0.07224208529486269 0.9459312216345839
Ni 3.2936101379656857 0.047760788019452195 7.923867436869468 0.24498422228901678 -0.6779644224074647 -0.9761126303139706
Ni 3.9249076145313655 0.7124879486829568 0.0034761691433211578 0.1546325718776369 0.09320788891325238 -0.8560169158709385
Ni 4.774996545985218 0.2541007493370433 10.078826829266603 0.8595318710027325 0.2553416542639409 -0.3272055302837784
Ni 3.9061115110209115 0.9359756544334611 3.7813653240415896 -0.3757723834488883 0.04472691059372942 -0.25176344999437933
Ni 7.4325916814057305 5.392178444816176 0.8706517946938814 0.17084774818491869 1.4535801142115161 -0.8209298423598184
Ni 1.9550537665135355 7.750081179825666 6.292139950919125 -2.8169651581941744 0.33539860761753204 -0.9752399979010301
Ni 7.2323650787545075 7.505010330216431 2.179815204278503 0.6215220231490199 0.687044530331862 -0.623207638381559
Ni 5.4161175766493725 1.5260919042134413 2.076273834074459 -0.8871378056454593 0.2841436660972977 -0.7140421419666283
Ni 4.044695774206748 7.029141459598663 10.069254876553702 2.058970779016312 -0.8988188415278134 -0.9139433558740776
Ni 2.1680176893093925 0.7235454595768529 1.5138346617126035 -0.21140818610578432 -0.10267726185626831 0.9985506476025126
Ni 5.571786683921729 2.936058668923813 9.840645417597615 -1.9874411464074417 -2.7388678996701152 -0.19693518930058987
Ni 1.247202868366893 2.979922410482165 0.9861941809877202 0.7372296358266851 -0.530876495646305 -2.491305118020645
Ni 6.136021291171075 6.185934566044308 8.355864240883037 -0.7134484742466874 -0.6389399615151512 -0.8485689442333256
Ni 1.9685865910390248 2.5114998308712457 4.8072366735321355 1.3066220281600012 0.9951915013222925 -1.6205951189139056
Ni 3.109709875223887 6.599818845311902 13.381285565961667 -0.11170723326902052 0.4995679153410105 -0.37127629535074763
Ni 9.174163522270758 1.6443538054836941 5.111701175223199 -0.009756822276447712 1.055164539441815 1.2168920704930204
Ni 1.7846215779406447 8.692069367370248 3.8508174815157736 1.9497793701906099 1.350873798889525 0.6444256672200708
Ni 6.230390310862833 4.902971000742664 10.363308445911587 2.2349987858505895 0.962400937154833 1.1140916527953264
Ni 5.205558667097964 6.242887129683021 1.636154560330315 -0.2244166825503103 -0.4557570888036473 -1.1135496642489273
Ni 4.947408245459308 3.37574134026358 7.346008429590325 -0.49845951276818024 -0.02714287896337906 1.14226297302322
Ni 5.816968534142248 8.531090730858224 0.32066041588223143 0.11012446216293292 -1.2256232797184312 -0.3153913112576697
Ni 6.920490361255261 3.4749388865461133 12.598915332435809 0.9228000349337592 1.8969853663180296 -1.0724248691841596
Ni 6.440329467001249 7.255120204067359 10.390750572035829 0.3243027548146867 1.3471125320748798 1.2837165843167375
Ni 8.018064405613737 5.325050825143261 6.585503466476873 -0.9579863530269049 -0.22201630063893377 -0.3238265865092165
P 4.229955794436754 4.924107367140984 10.716172914142069 -0.9903341732299913 0.159063611065797 1.0583622204435061
P 5.30184244733434 1.003232774819539 5.518908767722167 1.3852191091386143 -0.5851756233095019 0.3997584619508406
P 7.499136547869414 0.5953878538107912 2.002029225208166 1.1479448538993455 0.04891240942998673 0.2142762516821987
P 5.512512357497031 3.6881618107682956 1.169490415403125 0.26826556141446056 0.3350422527193778 -0.41900291200274936
P 8.165177215766425 5.530438956219108 9.315152798701044 0.717838632894583 0.4244037713033465 -0.5789188437665126
P 4.274744541089126 8.40880505742899 11.964939966122946 -0.6344418165344816 -0.5251935863289149 0.1199836143451998
P 0.9974977432366251 6.529176206281717 12.151079666197363 0.8345767437192918 0.8056392347493351 0.3035639796054385
P 1.9680685881863744 0.614786135637451 5.8136255657324645 0.06824633387190827 -0.8207424089393607 -0.7344243051674061
Ni 0.8899094757462506 8.65447716034934 8.462018750477682 -0.4874742174012701 1.4064152836002553 0.20634182732647044
Ni 0.6281783593886494 2.5784054493215973 11.471952951235275 0.9894854520764508 -1.1001470176897763 0.32372194261055215
Ni 6.119408199682504 7.243187638354523 6.178877702182042 1.3983960128402044 0.9366670227238385 2.1968243316633975
Ni 6.659222672449764 1.5433432492168846 0.10475775190267814 0.09072111793565667 -1.735789025179946 0.31923099671873406
Ni 0.2951441503637338 1.846911420971844 2.575704434447063 -1.1061533717848564 -1.2358238744005168 3.5971499574261463
Ni 8.150682385943156 7.603347621761528 7.943078867667136 -0.6438736513713428 -1.0937853371378066 -0.43267938104857745
Ni 6.228225798942829 1.4041947329236961 7.695353253438068 -1.0452254259512324 -1.9850947576624522 0.8962816769282563
Ni 0.580502671837847 7.057835117615115 2.9409029206011867 -0.8622945213495342 -1.4235748260986774 -0.8725606791622328
Ni 6.87464710879571 1.925869855797255 3.8778128301796064 0.44505075812973677 -0.3382023956149143 -0.001404593657010484
Ni 8.806668248468187 7.482828708061869 10.555065701921977 1.1292557621302743 -0.8618648900112834 0.04701467818664161
Ni 7.581961503987822 0.179193836823433 5.907189830992426 -1.0749836310502712 -0.42792129753830177 1.1970030448785773
Ni 8.27600207608077 3.7984131679243487 4.100194229837665 -0.703136293687402 -2.025251789497312 1.7017365635809272
Ni 9.161768454010913 1.2039773803234128 0.4394699201681432 -1.2853834304961993 -1.069606683009074 -1.3092756637327645
Ni 9.093789829651499 7.7602284857070485 0.3774446285938332 -0.5077180552519708 0.7789653250025745 -0.25497090118808347
Ni 2.140859539749012 7.827753857570392 10.632735604651419 -2.2340441352468043 1.1852546460933973 0.7851447143404091
Ni 8.836740164074726 9.002584327381285 3.9152200361817107 -2.208628780497493 -0.7092506341152559 -0.8161164801315751
Ni 4.852807974494046 3.046809528830636 5.108100130392185 -0.5341975895997381 0.1788860451083629 -1.6657421477641892
Ni 7.637443309527046 0.02702957385231175 9.521979312698088 -0.5275777702903753 1.0194287766031025 -0.2093397336125298
Ni 0.7901976266314428 3.566107388612567 8.986996141536887 -0.9285477360508139 -1.0057109127963777 -0.36605772726428565
Ni 8.276991831531369 5.390106433405575 11.903705553904022 0.4123211291071996 -0.0524661882195161 -0.5822373666167844
Ni 2.6524058568430693 3.4506390027262497 10.390601646215694 1.025758575475872 -1.0843866695317261 0.3687820681739842
Ni 6.24236912683037 4.6749572450671275 2.9490531404845832 0.3770396801970861 -1.2118208266177 1.207333737380624
Ni 1.801327169938617 4.4812334282268536 12.737521795743904 -0.053311052718314635 -0.8104042602381462 -3.2302784760113146
Ni 0.9512567385866451 5.47222838565253 7.606744240466763 0.8473666963951083 0.6793165655599849 0.1446132399684219
P 8.692837121598282 7.386359926806691 5.813098312828875 1.1163609084454773 1.25518556675658 0.968899657505299
P 8.984629978506387 3.6149476575767387 13.154598267590956 -0.2233856701826346 0.09294615061143348 0.04747207743903437
P 2.7321690461002763 2.191179816863613 12.349104756724824 -0.9219302307342961 0.474121450243448 0.5786007983054616
P 7.270345787914902 7.033544483846192 12.889651833526546 -1.0641310046064834 0.9676524153617593 -0.34648854688310654
P 8.818721064843247 5.102013596873544 2.6811688902415716 -0.9950418631183058 1.9480243351727158 -1.9928579465476388
P 2.466655583913234 7.262575745125148 8.331968584289259 0.14925279562296231 -2.0911887585097535 1.820026592273788
P 1.9639615655689329 7.777322579844508 1.4546186106088275 -1.8562940592462545 1.6322833538851114 -2.1513975667891656
P 3.426200368142284 1.967300833958339 8.697910774538974 1.3363504084623696 2.4373667161309767 1.3379339508994055
