# total energy = -340897.43510629307 ev
CRYSTAL
PRIMVEC
8.99633653672777 0.00000000000000 0.00000000000000
0.00000000000000 8.99633653672777 0.00000000000000
0.00000000000000 0.00000000000000 13.16704788514065
PRIMCOORD
 96 1
Ni 6.411365083073319 1.9021313900723542 11.438714882300852 -0.39208449034535053 0.28148720231105717 -0.4468150491190111
Ni 4.500048433538136 0.35444036032751414 6.0664275528835 0.06180263512909356 -0.7990600388699206 -0.5848244106176702
Ni 2.7135019735132175 1.5548458160825367 4.8435510480724 0.4150205303162336 0.35620320306770914 0.6798490410246871
Ni 3.2840406315672612 4.403283839236281 4.962370161055083 1.0593042726418014 -1.0384577682100955 -0.7868290440213674
Ni 5.01975779094087 4.512841223896749 2.5274802276340256 -0.180039956207148 0.07890098537227702 -0.00858877011027553
Ni 7.0897608182085206 6.004190897678942 2.6123291743761174 0.7986766873885729 -0.5964414260313082 -0.40527553511432785
Ni 5.117745886992916 4.374612515134384 11.52082444460961 0.12312473107734279 0.7403393851002605 -0.5476280040730311
Ni 5.687070039633166 7.855214100671635 12.195214111146578 -0.6372402052152251 0.27413898947610205 1.8196794933470144
Ni 1.7879049068210857 6.451236845991302 0.5221536620021968 -0.007019111630310493 0.7517620251149053 -0.42719187557144495
Ni 2.6717319836151603 1.4432642557324158 0.25337911576175465 1.1420742540511815 -0.6667533841829937 1.4303288569930592
Ni 0.5236191652015063 9.27468304663012 4.873124704715064 -0.25636366777055203 -0.5037642128105453 -0.15225507278439585
Ni 8.758383300722402 2.135145499128911 1.331280559145284 -0.2843578389906328 0.5879686126736068 0.1538147039620319
Ni 6.9477626444952 0.5466758757571238 4.892137562059572 -0.7035800660930399 0.8218302426869007 -1.3587251766131438
Ni 0.8878034574821942 7.647830554014296 2.609261423664242 0.0613326374712105 -1.2033269302140759 0.3420593074671593
Ni 7.659867652115437 3.775195617241278 3.8755227607569234 0.08949727283088457 0.5004361768785769 -0.9255588286258188
Ni 7.75383438579737 3.8961783491277915 12.46222897398748 -0.28026952785387216 -0.5979208387903121 0.007408376648929176
Ni 7.885900604126788 8.842400086347636 6.9287767761598875 0.24719742789025168 0.15399365274205737 0.5773872376133347
Ni 6.756266627917544 0.8261164784315821 0.4578343549213948 0.010478016713188407 -0.9564737730371204 -0.6295420652400191
Ni 1.8452475550248806 6.411832892566039 9.292196214697006 0.10115696855699999 -0.5599803549907969 -0.8693172325242705
Ni 9.020446580009592 4.650224277037657 1.266112897542107 0.20641047578087676 0.2262971874024748 1.2235527703426476
Ni 6.277526586473405 1.9441622737259672 6.8583723471391655 0.7689758178900306 0.1603602183900335 0.30197632340334446
Ni 3.2737668154002177 4.411461509022484 0.46191599274537687 0.8422643421715366 -0.9110323528748697 -0.009752708511389655
Ni 5.8453515822277025 5.598294192053147 4.638987852875979 0.36453691974438507 -1.0925872030646473 0.8954465826214707
Ni 5.357885094477053 2.898160774428043 8.951656993372394 -0.2557409465848886 0.847292134403431 1.1435616372299853
P 0.13472913390336264 5.607344506469999 12.437527733138225 0.789453369018092 -0.24406479579854096 -0.28694591143278325
P 3.8438466602979395 6.149670653578467 12.491327624068306 1.1086429709759293 0.07295119554674533 0.4919489653431721
P 2.514898851180777 8.560319958573869 1.5368450465828547 0.17495328571285998 -0.4349149552473155 -1.316624905008984
P 6.377511869205908 7.65675491972157 5.7339859339511445 -0.6897817267573669 -0.31276287249588713 -0.31411655831030416
P 4.683861578831506 1.0026147025993628 12.530302452247362 0.4528255169791492 -0.02212614247507802 0.4508167140792365
P 3.95864890907871 6.1112113154750425 7.970145896696542 -0.2531916978004736 0.21824346386006285 0.6133094054312406
P 4.881771983261265 0.9710465581771606 3.908914462567094 -0.4839875444042504 -0.24001170877508987 -0.29348037011719136
P 0.16397802280204135 5.504615341135965 3.4974706159180067 0.06015430089239318 0.22728089147198277 -0.26934233941840713
Ni 1.5752405106978493 1.1438481877188134 2.7114508088143685 -0.5296840180001007 0.31228079065314607 -0.42058773999136595
Ni 1.7589007182724452 6.4782888295414764 4.715041081521294 0.33049062879295343 0.29378298895927474 -0.08968856290608425
Ni 5.954459150068246 5.480172295141345 9.115020566398421 0.07400251962939514 0.2828419165667387 0.1918526325713599
Ni 8.489509794781577 2.3751047798850804 10.221342336098331 0.6853206056622198 -0.6603747343501595 0.1451518860807113
Ni 2.2365701956851685 5.286103326353728 6.832170517378645 -0.3070398539691809 0.09842131479339179 1.8224925373157774
Ni 0.5208509924916996 -0.0012001112755547925 9.121919856782402 0.46545863236212737 -0.1690466904204379 0.06175455549997751
Ni 1.4806800188136182 1.0732719286728811 11.127879764496683 0.22212043031696585 -0.05069521236202237 0.4935826442918531
Ni 4.038527379960652 6.822920484293747 1.4211593575677557 0.5045340010970343 0.7555389756588343 0.9172168844190268
Ni 5.584313885289936 7.646894935028856 7.888536530691537 -0.5630083431838433 0.8348420815655365 0.11143109678949842
Ni 5.448487198345962 2.8520275613767314 4.729339858593009 -0.8176154332746047 0.9259987443767149 0.22672579029946113
Ni 0.7752628876719976 7.392550512371547 6.942707603072905 -0.07652194361713918 -0.1583727556463595 -0.18219685464915072
Ni 4.995809543448166 4.517042512994831 6.897400253702973 0.06551350832177749 -0.3003830107742956 -0.13432034268284607
Ni 7.935299487290742 7.275049362671238 8.866624521367774 -0.17876006105345987 -0.48472365123932654 0.5761533652062335
Ni 4.429966972994119 0.27630268053867496 10.433897876551146 0.3440179738554269 -0.05179744428726563 -0.9726580961064668
Ni 8.276647479257575 7.271019003964727 4.500892289892312 -0.6989171133997318 -0.2838981257453949 0.5458382591624599
Ni 7.148812770328023 6.021086017435254 6.812604385345631 0.4142522846916414 -0.6933632734610382 0.8496099839033303
Ni 2.2194141821733018 5.164113004790587 2.547665307611254 -0.6604189573245336 -0.07581000515177912 0.1005239629586914
Ni 2.1874501989495676 5.228301864993611 11.530356962657422 -0.6852961801821874 -0.2179781260138181 -1.0053442734855782
Ni 1.273107549091911 3.2985157368323863 3.8912051743667218 -1.0597364750832137 0.26091991968266676 -0.28720507863144085
Ni 3.666429910183876 2.615109042323242 2.8912992686569363 -0.25242756594093946 0.10002182651129225 -0.7225003000363105
Ni 0.9885894141541609 3.240642304781082 8.235751033623806 0.42269681591456876 0.44704233463846876 -0.07062331874451709
Ni 3.5051166022230595 2.5390180290650526 7.051664932095594 0.4116600984844329 1.3729243509316613 -1.0074309808112778
Ni 4.078210219814267 6.879876290032409 5.780847850250732 -0.0352451963555393 0.23958799097410996 0.5168812098084775
Ni 0.7244029994769342 7.411451815144714 11.334642563942529 0.9961006434001232 -0.8380539036346147 0.08362384476924307
P 0.18218031023704898 5.578691175040898 8.082184470935706 -0.2618095213764717 -0.21347869548156784 -0.7512066668320675
P 8.412654092929518 1.6054412119874852 8.109400187808331 0.24224419765003438 0.39673664440538126 -0.7889756580507251
P 1.866101062796515 3.365547439337324 10.369036990019158 -0.646497719257751 -0.8172745049954184 -0.37431816750086505
P 3.7931882900382017 6.070376944562425 3.6736593661136805 1.153844250102916 0.640356896467336 -0.029269695498394754
P 6.903662603469941 3.910158655891001 10.41814978968564 -0.6450453030819406 0.2708829444326496 -0.8333801523080292
P 6.142320646740923 7.683195152396649 10.15088482869286 0.9362193936634585 0.30776490506066356 -1.3920474449143574
P 2.3539004149939062 8.461270294826805 5.734749722911374 0.00709958715925874 -0.16527719607567665 1.284816759359452
P 6.919568126222422 3.96075405179595 1.482991177634383 0.0467043460350744 -0.12896550612883598 0.14511306242297586
Ni 5.263045716164471 2.9238633075184484 0.427948525405705 -0.4386787931651219 -0.11767322104446831 -0.2517338823080245
Ni 1.508460705612068 1.0241429356008815 7.08122509423366 -0.8253523969075462 0.6365573202155876 -0.3253844179146396
Ni 6.667076948863195 0.7893025702554369 9.101141918236515 -0.3498842028282168 -1.0367083896191565 0.6518615546728257
Ni 2.8595125132602512 1.7406741407291617 9.15760292547326 -0.4772363417233459 -0.308949669397384 0.7680239954997224
Ni 6.306557764031241 2.077047158667645 2.4961037051771107 1.0243691513275133 0.14930550323776867 0.777308763235758
Ni 4.184375985652513 6.605703941952889 10.379412464787501 -0.390439755653076 0.7062648120140547 -0.18979549293201506
Ni 8.36802326805675 7.112206677522683 0.6832816454332055 -0.9388218642833123 -0.5295644617031008 -0.528323133096832
Ni 7.583965561921617 3.8007991906313006 8.205704169686586 0.19608621103673327 0.047332209427060415 -0.5248858252805089
Ni 3.1141718076915073 8.255497092384791 12.27433509050377 -0.0714157327388254 -0.20132869038259518 0.8450640164038608
Ni 0.03573344817468993 4.76436979326134 10.169714160774838 0.19881723681465113 0.2806207405457038 0.36300788469436834
Ni 8.645092436456574 2.446958518699594 5.787838903265976 -0.14876582868421476 -0.3040517178751344 0.8683998629163238
Ni 3.5944502226597845 2.6717589726243554 11.526828599521945 -0.04824006595331047 -0.2132061585464715 -0.2610199355956408
Ni 1.2925666247217837 3.0731035320325293 12.593319989451306 -1.3987698512398554 1.0620723223052417 -0.49056494051145194
Ni 2.96829621299045 8.311463301119622 8.042709446452896 1.0677686013590706 -0.25632664388502957 -0.28469671038729033
Ni 5.520763764971203 7.701097861829587 3.6345657862941647 -0.1652615123463928 0.9932996836162182 -0.7732438491377651
Ni 3.040905644062435 8.382777259750227 3.702876767834964 1.491460177086741 -0.43226491921897814 -0.5154671030697703
Ni 3.4877806619832237 4.42990399863933 9.319280585058214 0.12202918402031887 -0.4957891650248687 -0.20751630725054585
Ni 7.356241298667355 6.239040259360785 11.29051913244263 -0.20810714675700934 -0.7625747994596931 0.21187175600576413
Ni 0.7095770370922693 -0.09615374306039866 0.1767780102297727 0.4255291431570413 0.20684807753892764 0.42781459675710837
Ni 4.685858765511964 0.41223732351943143 1.7728774265010954 -0.6657398553168147 -0.8067985451647589 -0.5679415188194025
Ni 5.865341441705085 5.555516612478462 0.3190082894221727 0.4138612199008098 0.7314132862552242 0.09543317869934533
Ni 7.974730429725199 8.73114239410786 11.165392688010987 -1.267165879046908 1.3017060789156227 -0.06397290330753498
Ni 0.044301558960584866 5.0188581573010245 5.740753877823708 -0.14466389070069927 -0.9417660345133007 0.021234483898744078
Ni 7.988557798769635 8.921873722091647 2.387225543914728 -0.6160879966176421 0.15058308439861162 0.45523104109684825
P 8.418744612671277 1.7009193301843595 3.6082056210130324 0.34461472689916134 0.11684481160590199 -0.3983109308710366
P 1.857932389346712 3.1311928761573964 1.6112915295474048 0.024527552827719047 -0.2045615954975961 0.1437282662603073
P 4.661856540000868 1.0504122378843899 8.107701679496301 0.3932952228240001 -1.1917086292488572 0.9478564636817547
P 8.59844643223055 1.4851152126580598 12.370138876078267 -0.8973818519709706 0.534501236883086 -0.3538298177395261
P 6.380579619917784 7.65090730106257 1.3647649232203587 -1.0542952494629845 0.7082185933063158 -0.11552609279447845
P 1.6769980717008497 3.2620895707550144 6.078554614348627 0.5025642789651732 -0.3016240822702483 -0.2076440910776617
P 6.940088769547312 3.9046978796971348 5.983409360598495 -0.39076320043076573 1.040400236648447 -0.08748512749686223
P 2.4047207193088163 8.261587612126549 10.183184375264256 -0.06633317600959544 1.0886714129500088 0.06116525865541079
