# total energy = -340871.1071171472 ev
CRYSTAL
PRIMVEC
9.27993311521763 0.00000000000000 0.00000000000000

0.00000000000000 9.27993311521763 0.00000000000000

0.00000000000000 0.00000000000000 13.58212014413886

PRIMCOORD
 96 1
Ni 1.8749547927425445 5.494704037296911 7.12997486329007 -0.07326692701495124 -1.1258019992537194 1.2821371556447596
Ni 5.929747298585395 2.1266822566015766 2.4963938612391 0.8343767118933438 1.825190652973231 -0.27126012526641025
Ni 8.840853015798197 3.8777963428190607 3.0044191559832853 -0.4572884378465092 0.5089035909196397 1.3949430212945977
Ni 0.5885157220289936 0.2992852647432305 13.585651231449086 0.002986079211517438 0.2302111777449003 -0.924313386254492
Ni 4.475581789969664 1.5030521959123977 6.521523061094138 0.5043707360462927 -0.5470474489792126 -0.22666639781643544
Ni 4.2557123362642875 6.448207878042015 6.719075203812469 -1.4541943507567472 1.2752126606107843 0.4590954091482609
Ni 5.773064909003596 8.244440998738693 12.598679312166505 -0.6549707897257687 -1.2526661427688361 0.7209882342671584
Ni 7.45426397963773 3.607564692462392 0.9628199655319531 -1.737950037387007 0.5618986550594323 0.4370877945289182
Ni -0.08854912114365861 6.259899476632759 5.507196683166078 1.3750398546127673 0.46621068003680355 -0.15203678612600266
Ni 7.301562681333506 5.763330259236283 3.8365414724610387 -0.23829961117998957 0.007900742904315425 -0.9738284622654841
Ni 4.600313370067329 4.0260618331263585 10.301671308416013 -0.12135761187459099 -0.7724352371935407 -0.8630604529812814
Ni 3.468013059287131 8.471251842363946 5.614277830606517 -1.9632308677098256 1.0175480146406217 1.1213570761084881
Ni 6.198605518850966 3.059074249662565 11.823222122866218 0.6594391099097675 6.502696561505156 0.916545312273299
Ni 3.70905004027491 8.82052068249011 8.20601836394691 0.6059326533511951 -0.04671283067550665 -0.22619717148950078
Ni 8.379696022912746 1.09412266622088 2.0642923387268195 0.260924290558041 0.3917530751478608 -0.45770161412452787
Ni 1.0326616696442241 2.109486540663702 3.2905807394100868 1.4430401339121406 -0.7715240382331809 0.2646135664841701
Ni 0.2106062245369004 5.719825933107435 10.7198241635639 -0.45569409677619577 -0.16975425801042376 2.489126108091455
Ni 4.160852860648014 6.4800287684634785 10.563982535916248 1.5814361893262572 -0.8049283247252395 2.1008021132298014
Ni 7.318656318007853 7.276005745719418 10.494577916650535 0.9931891261802832 1.8280759449408257 0.7444078987426793
Ni 2.571849924845388 3.3403768601454544 1.6032467050379444 -0.2678755250648935 0.09341177739394235 0.16027794308887236
Ni 1.9083439918491139 7.951102315092596 0.9720154511891793 0.1382523307474006 -1.1749761469855249 -0.8425003694417426
Ni 3.12432145892279 8.590461862298072 12.305333204573968 1.2824729417176235 0.22264776357534558 0.9586761800050779
Ni 5.515825164914074 8.63547881751374 6.698375385155684 2.190549040177647 -0.10321693640982223 -0.08689017422534069
Ni 9.097211166248163 4.1741046050405055 8.536498123630865 -1.2454858229703132 0.7884701791692162 0.16899218303341865
P 8.508659252480284 3.7766172327971255 10.911848250165562 0.09238436457069252 -1.273518303627497 0.5971142837286169
P 3.878297459203651 5.285061069810389 8.615505617614609 -0.23596916327460007 0.6229412720940498 -0.6578820498352927
P 3.9858704430956324 7.983823359019713 1.4908824917132997 1.204276438611539 -0.673032532323486 0.21612384641389873
P 6.079070701260161 1.9844858425076466 0.13328953435449564 -0.25368046451143406 -0.5272209011715887 0.9824617124604498
P 2.1514596778396364 6.86425511638132 11.436756527103904 -1.0714275382678966 -0.5889721142374567 0.28500755675948974
P 5.68222364439709 5.260571326496817 11.993039329684105 -0.562295890497851 0.4068333665197509 0.2626620991847541
P 8.396492701729558 -0.02468369391427558 11.507383313552035 0.7381336356981932 -0.20813182934735766 -0.20753816162741676
P 5.860166360591773 4.747038391488665 2.3675262149819583 1.7190542289237685 -1.2951117135275567 0.4190399358882718
Ni 4.951540276066615 0.35719761492234553 4.2852271633233325 1.9157911861706232 1.6544249229791572 -0.5113615655418291
Ni 7.397350150254576 6.18483409820779 13.088260739977864 -1.7412891290625687 -0.1797252531802066 -0.6934229230543799
Ni 7.132315262404766 8.177514121596786 2.9584844153891754 1.366441314310479 0.5127785004940136 0.07884879197810292
Ni 4.908537066322356 5.19464668212409 4.771221897011656 0.16290586763002265 1.1320225262421344 -0.871207250458132
Ni 2.96682243523277 1.983427930140179 8.385627756117005 -0.4346760997636321 0.5727875340577943 0.42770712464496663
Ni 1.3831369010666257 4.129236128753607 5.01278041023673 -1.3601701365897867 -0.5605750511520022 -0.5690797461889038
Ni 0.5252098747624027 7.019211438416198 3.047610748368417 -0.08920133885702058 0.8748551316233643 -0.03375781317673541
Ni 9.094009589346616 1.6499720959277409 7.623684933314467 0.6327356324766522 -0.23747043041047491 0.0728007860118101
Ni 1.4537850313607643 9.264871716625702 10.933946554732675 -1.4358122487051337 0.2601187639376101 -1.3006079607554375
Ni 3.750642700195878 1.3588605962131557 2.300933415429779 -0.7303239098457873 -0.4405695824299316 -1.0046986694817794
Ni 4.824182474916377 4.061724615829679 0.3444395629680066 0.25069695640307793 0.009104019183797224 -0.13709044922881553
Ni 6.333600704899678 3.1926588858879863 4.799798522839551 0.32599479780512886 -0.35932863607056825 -0.007386008051425989
Ni 2.657216028953595 4.283542855475128 11.796858761070263 0.47471408952212446 0.9980724224145133 0.9900076431285079
Ni 4.062439170674372 3.263371975713461 3.8119849136295203 -0.392491238865466 -0.4863498739888398 -1.1946939371294263
Ni 0.2226942653251764 7.033780933301499 13.024057523185535 1.0212863986371314 0.37308300954218326 -0.6202315864723705
Ni 7.069202437745573 5.113920544539864 9.838344667183948 -1.27517178007052 -2.367126491757491 1.446250156209006
Ni 7.476981255739142 3.2343165053402902 7.100243813791007 -1.1928869658276746 0.2231193038951254 -0.3972264395576062
Ni 3.9964495667703104 1.7389388140585575 12.562320534484586 0.22856464328041282 0.5208633343846771 -0.023160240166547212
Ni 5.996757695124733 6.821975741414803 1.5187798264420844 -1.0207346398987196 -1.0805153595017778 -0.8883241126440766
Ni 5.650597632569634 7.0036118709625725 8.679028615314522 -0.038401482596333865 0.03457619531297271 -0.20881394301604683
Ni 8.548544404720426 0.3526420957891007 9.415709604373895 0.20462304486315083 -0.951622101371774 0.7803287810090045
Ni 9.207169092933471 4.533915449109157 13.051371150125604 -0.09829044564248234 0.12576833934777695 -1.1591630912126683
Ni 1.7471515548060044 4.443733059749057 9.636160909881378 3.004110357987536 0.45429027445013376 -1.0863700185103418
Ni 8.071732164783063 8.215051450775794 7.315289558298052 0.007106014917161956 0.5691594503869036 0.12193379609303516
P 1.0515741731959718 8.256579151165427 4.695556106918483 1.5670822345974302 0.23760001400980368 0.726428431446123
P 2.5564637958518657 0.8957353295282319 0.3653268362723607 0.8898135527054094 0.08162198384786588 0.900815817353184
P 6.98549744165295 1.0000427049806357 7.830472465402131 0.04928161984394738 -0.8602751769266603 -0.6888815835406007
P 0.29758796498875817 3.173867021465862 1.1831088722110976 1.0485768589219682 -1.0915878152658556 -0.9191333847154494
P 8.292817289717721 4.279598883929744 5.175086439245595 -0.2299191004257782 -0.25624308303228766 0.6749361771041021
P 2.8003775560845137 2.263134392138818 10.761520758735006 0.9018879673714403 0.564871364534511 0.6679448333879335
P 7.285480557361387 1.2102239085839395 3.9020754316524453 -0.7868534695013997 -0.20202237401551015 0.22999134842461036
P 1.6606254590668017 -0.00838441950883416 8.464254772845782 -1.6266387540048246 0.14654439555286375 1.024331356111042
Ni 2.539397998976663 7.0137548377839956 9.148209966306545 0.04151226031117367 0.24128851860498446 -0.8304092426051634
Ni 0.8843822594373546 2.3624018359528733 10.042035485613507 -1.9875779290956221 -0.7357839045190941 -0.1423288148096194
Ni 6.222241508324127 1.1014723731948663 11.624040423904665 1.100018976752344 -5.955807235370362 -0.8982267164697693
Ni 8.46148007286444 2.1267008164676726 12.842817646778911 -0.3694029895874348 1.833861184164035 -1.3383242443592887
Ni 8.292390412797516 8.733280031906215 4.858948816087264 -0.2523398913231396 -0.09215167973459613 1.3480216741527107
Ni 1.7125374045371042 0.9390178652572341 6.437992527742818 0.4694003906186948 0.8456180891351178 -1.2590293659827025
Ni 2.4728887188219155 6.2767054353826195 5.06709493037315 -0.12966793151249925 0.15264485202364678 -1.654004547612287
Ni 7.043329984407853 6.200814142916381 6.195633156295703 -0.6148831776762637 1.065219609684972 0.5681286951295441
Ni 3.9150367141405344 5.400698315521051 2.4383571599571416 -1.5677003277974033 0.7427847613169594 -0.9013655192090669
Ni 9.642221634155003 7.045046772021726 9.011492424684132 -1.3733179868256542 1.6198548983137713 -1.4327860602843001
Ni 5.815761880957272 0.03932650027065567 1.5225419112997285 -1.5758674369892278 0.32256803151176705 -1.2436495410925228
Ni 8.56309533973963 5.820559606343068 1.5831046103573418 -0.41422503099813174 0.27001314023318657 -0.8172909600556505
Ni 5.574390822379765 4.705687009826944 6.918148327557362 -0.5505876009219873 -2.9825925385204184 1.9996168625380273
Ni 4.148798227618712 7.5213022159762115 3.746858343498919 0.12097400328292715 -1.4688149288833994 -2.3181312928057105
Ni 7.575432065444978 9.46478931427796 -0.1215040193835832 -1.90313647352109 -1.117121697870902 0.31776418236522047
Ni 3.3731350238047617 3.4884474718587444 6.042658099966565 -0.12682454852643318 0.8153405211974991 1.1226822226778148
Ni 6.873572169161474 2.404050175472129 9.564474355079174 0.5230014637736025 0.44283035343965027 -0.3734450208672923
Ni 1.3439941434703198 7.854275493670156 6.820967940685794 -0.13513589660560596 -0.38841886856830526 0.25504520606944464
Ni 8.674491656047373 2.005671929656145 5.263492649420314 0.776646961282043 0.6903748802566756 -0.2813491340712961
Ni 4.5051940563257125 1.0219433469738273 10.030639727830609 -0.23941546995198768 0.43745186273655623 0.021171234760976442
Ni 2.2318331779680403 9.037216399093085 2.93257020235274 -0.4486937541989628 0.07305481100414515 1.71024382972099
Ni 1.9385687337863278 5.389209758407673 0.55131989438615 0.04774230038128552 0.5679435757019315 0.4570362126263871
Ni 1.492287473576761 2.577482844205501 12.959882146192351 0.9030609046336189 -0.38274521522229565 0.04266977095438458
Ni 4.069148562268049 6.5060961003952045 13.149122252879621 0.10599861292001746 -0.872778965820626 0.49043895645654895
P 1.7513553644767315 5.229019554133743 2.9871696164337322 0.08340607233148217 -0.8792987692170147 0.03721054761202624
P 1.3677971717383435 3.234826901657928 7.332036125476406 0.614929971753799 0.29907097683109135 -0.4337427893160852
P 8.609003168527902 8.207349106345987 1.2160155147991727 0.9213478758682648 -1.9661583257692656 0.9449112650105016
P 5.3706034926465085 8.349025844189232 10.529579040127535 -0.303524898837387 0.3709222544454386 -0.9253089173985418
P 2.998689725319473 1.44105296321896 4.523851361718641 -0.21488406046952668 0.17909147625094962 0.09948806549500931
P 7.819206626681906 6.229526255766777 8.302165894270239 -0.027841447692300438 0.6782991800390642 -1.4005467406346204
P 6.03261535642206 7.5967851913883395 4.712072531757246 0.22377776341473077 -0.6967257621753679 1.2302561505047522
P 5.1654984124204395 2.7689093031188725 8.206371001402731 -0.12841400450074011 0.2030587856998245 -0.31404431031147206
