# total energy = -381174.55219086306 ev
CRYSTAL
PRIMVEC
9.19668669171452 0.00000000000000 0.00000000000000
0.00000000000000 9.19668669171452 0.00000000000000
0.00000000000000 0.00000000000000 13.46028058866478
PRIMCOORD
 96 1
Ni 5.8886200326272355 0.43018697111685705 0.9120446061922347 0.35656341462060526 -0.8760694636464397 1.4655524560820437
Ni 5.054085101047419 1.8672492625691015 9.139369164257719 -3.234895920178668 -0.4630636497673896 0.20323644892826934
Ni 6.9974737319264655 1.5992302251664305 10.078088759915227 2.569123926072337 -0.3838747008410486 1.9375558315412245
Ni 6.663146584182606 1.0769595901919842 7.792331398534715 0.7646859322654249 -1.3861274798854966 -1.2437017344866967
Ni 2.9026306326705846 1.0814383765631574 4.32014444709908 0.7897770709060978 1.549265003910351 -0.010670078119336462
Ni 8.010663497277145 8.363917426031014 11.42376725535967 0.911174791990005 -0.08493665004339566 0.27076030281185626
Ni 5.462013331601338 7.9789257318419935 7.4914535196011105 0.5763860500423299 -0.5107596702917719 0.19011739504780806
Ni 8.409293877684748 4.201929317953911 10.21446826475178 -0.4335908371192533 -0.45174256832761556 0.6758226934741135
Ni 3.593467336222513 4.849228907170861 10.950274926409998 2.869324388522181 -0.4305751902213811 -0.9106942528091606
Ni 4.616460769482168 7.7732786229183715 3.0794157800569324 -0.21985066044618268 1.2615644736997307 -0.7294237666290212
Ni 7.1468187255229365 0.8757278105020379 3.896751068369052 -0.5076874591243515 0.13305227460369987 -0.015255126386857599
Ni 1.0423248684797906 1.3184094000252111 0.21961503652226283 0.6049682325553969 0.9895903530854311 1.2524565978611915
Ni 6.108181728367254 8.567486083784441 9.883210970992927 -0.39482400076370067 -0.5220131317184042 -1.0193709267819735
Ni 1.1241385924181002 3.2575399650113352 7.374914946421988 0.31005858619084664 0.717306671650513 0.12914908289455176
Ni 7.850503200246383 5.306810048644626 3.293757436486319 0.8819410919358682 1.892777241773953 0.48508951921917737
Ni 5.41008883909283 2.1923153469130203 11.660129458169214 -1.9929471638273357 0.676291662690732 0.8406430045180296
Ni 7.938138426798559 1.102489592176331 1.8388085092778221 1.3563384215485224 -0.03109312186037871 -1.1029382072816682
Ni 6.70935073762978 4.310487006506947 5.157777742392343 0.08580696846349094 -0.32605084785404487 -0.5965810369329662
Ni 4.395574750872644 6.537124387787972 9.228946731018501 1.0223837454663682 -0.38381582257865515 0.6187339188809214
Ni 2.368661812348844 7.147195789673281 10.790797023524494 0.5659383723464447 0.6759921291724422 -0.07508623961187715
Ni 7.220171497794965 7.0622000121735224 13.164907872680157 -0.12662271692827223 0.9443875312965477 -0.039180269743887365
Ni 2.3164614192425215 8.176728067101118 3.528222362851566 -0.5910691059758014 0.5406644282710044 -0.014591267550613582
Ni 6.965772753237689 5.472966585334536 1.2942506240119975 -0.9165044317330345 -2.3325700939388603 -1.6282824602558343
Ni 5.653295216065469 1.7565119592933385 5.359412336955097 -0.6989849905231897 0.34808443061531663 0.7275566315132953
P 3.7844917134620175 3.582320952070846 12.836127246621007 -0.26405126622279684 0.5514635757690373 -0.22731225893055046
Ni 1.0313992048063743 1.8503825393561002 2.8434306413977324 -0.5607372877614794 -1.4613713281211607 -1.4205008151590441
P 7.918282780442577 2.6732008922154344 5.944087088811671 -0.3487552314300961 -0.924003568323557 0.7275175507452439
Ni 6.574435345298957 3.446338744095143 2.8694627824701 -2.810681639178308 -1.2767797479875882 -0.30853417912652026
P 3.195738231101101 7.753717270533391 1.2247144766763907 -0.21846226473908828 -0.7286966586550094 -0.2372302893752108
P 0.22401197238275133 8.380287528167951 6.100387536479021 -0.18608384840838277 -0.9071263329522443 0.20206119767324557
P 7.235861045123961 3.206884615252768 11.931192598834429 1.043293499035842 2.204594719637435 -0.5707206242264363
Ni 2.8326622410650697 8.875529101243265 12.70383934765003 0.5491282427676414 -0.32690985342023055 0.3830455200715338
Ni 4.05370632012188 3.872044169834849 4.184572411345461 0.5164294669830396 -0.032123877117738224 0.2630475075486308
Ni 0.49736140933518014 2.766574851202132 12.015817749864459 -0.6732878428674017 2.034159890620219 0.47846610036538884
Ni 5.820077127443756 3.405790552903146 7.217900835874959 1.044843360021465 -0.023957796367178097 0.41292842367389526
Ni 0.007813504930079587 6.535560951067029 10.211116992157004 0.3960635295977566 0.6440847389408842 -0.24136230926571337
Ni 0.21384411568466286 1.0976797250877814 4.861597530970843 -0.07620955458304295 1.9436660582040202 2.9589383894365877
Ni 4.887726237252445 7.231786912962915 11.714011005584881 -1.2880928590075624 0.0859748614999229 -0.8812219543816565
Ni 8.101324433718677 2.6885593588270553 8.434575569131063 0.30613945364209855 1.7971890255539822 -2.1911990150568195
Ni -0.02822922949962252 6.105192805224274 1.0684848434958114 0.5766817269058778 -0.35371411809726827 1.292357033600555
Ni 3.348099737900334 2.652324413647543 6.300810927417374 1.0241002139368427 -1.70218599241352 0.14146775236090475
Ni 5.245477345750675 5.726684775083871 6.255247783025785 0.3366052263311235 0.21174448639928048 0.1280890170611536
Ni 6.01379613385524 9.17449498903402 12.152950463333042 -0.836492986905398 0.18592675400522818 0.5130777769019873
Ni 0.4114615975432518 0.9195334680855537 7.609459883960601 -1.7512614097839323 0.11430893255792571 0.5491323565326994
Ni 2.7930980953386073 3.0050081478325974 2.0824131027799724 1.5086845113848275 0.14020405515713275 0.44065597149615077
Ni 5.4762957858814865 5.2548211793299595 12.695360002610558 0.9244838503940853 -2.152547364122893 -0.9685024220668805
Ni 4.154547988622731 8.422739433484862 5.475938034772988 1.4979889793441943 1.4056457524240822 -0.20987992238671596
Ni 2.1698662349375915 0.23294379440263518 6.308860787192914 0.5621675924501028 -0.8142550014428042 0.7308407015812058
Ni 6.756088298899395 6.104944494686241 10.47221920157249 0.06855898001632063 0.6145347931979093 0.530906320442976
Ni 3.128069011144032 5.6173729582301455 2.328453898560817 -2.113130295777851 1.5880305547143232 0.6081391740842107
Ni 1.5021867882288131 4.7259933068141455 11.134774254511212 -2.793752981743769 0.3591347748922073 1.3304103888288508
Ni 0.9128971390394786 0.55079415844507 11.54980876479615 0.11099683746555723 -3.306940544750743 1.0823444422907167
Ni 0.6324855664516825 6.6321721437347385 3.3359417182233506 0.5771090442512835 -2.0281676775925264 0.10328558486422856
Ni 4.6250596714473575 4.372932508478746 1.340761946791405 0.601517297892319 -1.890153688108177 -1.7985951618728895
Ni 2.6436703315627916 1.7719164093379283 8.479357914830839 0.25315621657684784 -0.5660373598181542 0.11001313339604925
Ni 1.5489427428716152 4.041695447430397 0.44346790622694165 0.5605272286332024 0.7395001770284167 -0.7164857184111144
P 4.615771017987634 0.7773784440681029 7.188463161756913 -1.2579096505559626 0.48288556958932327 -0.7803010130948627
Ni 7.809007750335225 7.270836044240125 8.10557882093696 -0.2597279562570946 1.0833044922111408 0.06737935788592267
P 6.330226529487595 5.5180027595842995 8.445935316411706 -0.0033367776827168336 -0.3163601029288422 -1.0146683790999815
Ni 2.8231804571868775 2.0211190259697154 11.202506931605779 0.34614633305233933 0.6327562013019425 0.03091931528667578
P 8.574751466193531 8.70992436574898 0.260860336558069 -0.35035908558210627 -0.2409614742828689 0.14401134471836488
P 8.599738863668845 8.927554757304305 9.51141100405403 0.42190543036152495 0.2908475604800346 -1.356266430660006
P 4.91648427623121 1.9275335431913612 2.5147171511507187 0.19922681354824398 0.24514748733975844 0.16416390840683986
Ni 1.203478407662682 6.129518041264834 6.500238317197621 -0.05759296792312017 1.001232822420366 -0.5541848313549425
Ni 2.9386172673120647 5.902543816130225 12.88933559657801 -0.05380341897370089 0.7146520076364854 1.4080775017940266
Ni 8.573491520130183 3.296671866467889 0.8674020501286845 1.5135634367436834 0.8342299019028341 0.8399470068922696
Ni 1.1688712760102695 7.88529426563067 8.285919407360465 -0.519611464255447 -0.16171518975603116 0.13936227598212775
Ni 5.118783791234695 6.930972491166807 0.7508901473406838 -0.7842072901278042 0.8439815819729594 0.6454219696950692
Ni 7.2460141871234995 8.830281403201843 6.006367050424782 0.2639201399615713 -0.5170974395843417 -0.7717716354676128
Ni 3.305482292224735 6.725619676214185 7.108912742389334 -0.025077254683601974 0.7966442303395764 1.1252882928420942
Ni 8.118237140364647 6.508044464778425 5.325815921159341 -0.2930669367288566 1.5195474222412604 0.36462305170028814
Ni 3.418380816850038 8.688229382074242 8.66902670046642 0.41011692236702924 0.2047917092305312 0.8935833041604868
Ni 5.597738032352415 3.9583550735175197 9.923457510864647 1.3443223709242524 0.7350292857412567 0.05116238180642802
Ni 1.7198171797841373 3.295145216493321 4.648844142316204 0.22068292653949087 0.008790087487804217 -0.015812541552224384
Ni 6.457168394541607 2.9207113185139657 0.6704090232898136 -2.0795943688039347 -0.6176185743295557 -1.654988251681795
Ni 9.060373305091746 8.715221657227001 3.479791691580036 -0.574388559996327 -1.123321656034027 -1.1200239591193613
Ni 7.9083319655481015 1.3981906562262942 12.770736965601879 -0.24280058437413668 -0.9818009389479995 0.03916587156618416
Ni 8.786992599404897 5.179417545947518 7.958418040406513 -0.5702933068810306 -0.4241338054714115 0.7306458119615804
Ni 3.190698446847707 6.565284642138141 4.736457296820554 -0.06932594008933222 -2.9546464469294533 0.011611873207315486
Ni 8.688468495925681 5.420094834106868 12.327113635371504 -1.0688417798185914 -2.0110929814984266 -0.15837609808046918
Ni 4.051011690949902 1.5971057905632664 13.794902976402241 -0.15206403981951228 2.047039831906681 -2.190671938908756
Ni 0.36936376466020177 1.7912570412446578 9.990637467094928 0.06576727620379641 1.22968382294105 -3.1428820515735163
Ni 5.4331173423236665 5.555424077334411 3.0452537680356593 0.5712818960465451 0.9101754041912131 1.9828933791357592
Ni 2.0758301145161413 5.6262109740467725 9.000189268353358 -0.6352200894614027 0.467601132626427 -1.0172567086524482
Ni 0.7776175579195413 7.2561949191828194 12.66111705974726 0.6237645393262935 1.0964423151446794 -0.39385289509968296
Ni 1.194419671367804 8.619594510024827 1.438890592747089 -0.727535805577689 -1.7180124179228156 0.4255597392846606
Ni 3.900250407617987 4.245880283185609 8.123655828105704 -0.7556099381060857 0.21333214260137456 0.8100409633614565
Ni 8.548145451877712 3.258027389400805 3.6843885388946482 1.7003196286287428 -1.7471191054807846 0.7544981930991458
P 3.01986079668156 4.713688140151661 6.176411026537884 -0.6192712794416303 0.9794697197116614 -1.1351281617506517
Ni 9.175506624559336 4.459050281742947 5.674975485041657 -1.066733732336653 -0.7774833411404094 -0.4372520880209244
P 5.984697817472505 7.163216417719655 4.571636119024061 1.0549218273033898 -0.04642306734922973 1.008220823702425
Ni 7.095427640836867 7.562472172815636 2.347095582286419 0.3193104438064178 0.7428744928172883 0.4521904544983116
P 2.07152606519025 3.5375054982993324 9.48980706757657 -0.0766849515575647 -0.7307427425507609 -0.24931601689515126
P 4.124805904178431 9.421545581002864 10.925655396398437 0.2763830483152724 -0.7013846011036179 -0.6086032582048229
P 1.1287093456552115 4.288911579757928 2.764095424496448 -0.4170455311660624 0.6906756993265459 -0.7960459346339451
Ni 3.1451104714023153 0.5945887800046733 2.0513604904960583 0.24350120998558708 -0.3726978582886227 0.6825569268741536
