# total energy = -340889.33482698625 ev
CRYSTAL
PRIMVEC
9.08583632565790 0.00000000000000 0.00000000000000

0.00000000000000 9.08583632565790 0.00000000000000

0.00000000000000 0.00000000000000 13.29803987300971

PRIMCOORD
 96 1
Ni 6.566124803937601 2.101690186657146 11.510743135450916 -1.5659260095057999 -1.73803616934291 1.2493555903383644
Ni 4.681749646070052 0.3516363959446218 5.518300751125482 -1.1759446815463812 0.8154402800001569 1.4226145190679371
Ni 2.527761386592732 1.5407215775552767 4.8253267545006 0.3984371720362558 0.25756180184371125 -0.4548314916655844
Ni 3.2173581779244835 4.197292863100685 4.743769563559716 0.08450316205040286 -0.007340242415155101 -0.3638540347447476
Ni 5.266777549269874 4.40776625727708 2.902164162152627 -0.852388575089732 -0.42752149099672176 0.21559779870709966
Ni 6.9872260515047655 6.045152045522737 2.624461032044058 0.3642080756500566 0.4563227314991303 0.3109515303187612
Ni 5.105958249596998 4.442910271465481 11.636250332966807 -0.5291757109051145 -0.31235663819640397 -0.6410590647406831
Ni 5.500537941472347 7.682319773701042 12.591634180309898 0.9796167868124871 2.181709587509146 -0.23672789581749554
Ni 1.7128073140413944 6.687802321520604 0.21720054725423657 0.37969203021826864 -0.789729248387298 0.9660573029604974
Ni 2.7392887377613335 1.4932662553975684 0.4863584484734079 -0.8561151320116998 1.4600220131821178 0.30260161569216915
Ni 0.5964024614631263 8.581990182419041 4.798251871387876 -0.10031313249946595 1.927769698688738 -0.443463616148275
Ni 8.523232080103533 2.262618516363699 1.3124844651421337 1.0919097173816485 0.48493653858108093 -0.5592920706745207
Ni 6.843996930598369 0.5103968451482401 4.78174926720732 1.6817328667654907 1.5895068821495333 -0.607335961456625
Ni 0.9455538812235371 7.402939398241082 2.5682505981821246 -0.6564738566338565 0.07802501052522692 0.010493186221839992
Ni 7.585292129565073 3.7903473482391896 3.8698229741204657 0.9599000251098502 -0.26567928874452307 0.23607612116610954
Ni 7.5663118178692175 3.974880680236711 12.664694297292925 1.3955210052852545 -0.6665435821650327 0.6881459909261567
Ni 7.968923388892072 8.77222033367616 6.819061761896546 0.4195834670965677 0.5180276647080949 0.7493565009972063
Ni 6.798358775668603 0.7142312188573484 0.32456787291719613 0.020170818520920102 -0.4430566105178434 -0.6881591035522794
Ni 2.0858535742656303 6.531889373363171 8.988171578461188 0.5421194155499761 0.621594271147852 2.425501846372591
Ni 0.03999948502146172 4.976012621126857 1.4687281377350523 -1.2349008483656152 -1.2084441968359834 -0.6220228740448385
Ni 6.23654518380574 2.035599814576891 7.140356008052605 1.9058556722244662 0.6119099539805526 -1.1227259314315567
Ni 3.313241006706849 4.20247178970032 0.14631830519389868 0.01357388202969275 0.4043527661897423 0.2271219972966153
Ni 5.996043101187602 5.665300494029858 5.044757874527135 -0.25020021927231745 -0.2783021197148562 -0.9398819301167103
Ni 5.222175179660036 2.901461827019027 9.485677439294404 -0.05073994955702875 -0.1130794310261988 -0.2778210663133796
P -0.03781797576431722 5.822857978528579 12.257521636527935 0.8323383413070763 0.006220526988415093 0.35121886247924033
P 4.146130519797975 6.13138571632473 12.712952807365383 -1.9940689361366044 -1.0011119805717856 -0.17900071630935624
P 2.411326396462342 8.563809424303479 1.3741663895274008 -0.09889465488538451 -0.830132591905009 1.0684103487081278
P 6.270426266770721 7.7927853694876426 5.846057752527717 -0.22316866907582208 0.012417142717430229 0.16343808598440884
P 4.507637768124779 1.1912712337858693 12.620677055530484 2.0540684566186886 -1.0171456369958805 -0.07618435777206235
P 4.290141022612388 6.217464927912348 8.24188552970294 -0.39057036769366926 0.09103942050702386 -0.2886058156337094
P 4.4588831713990915 1.2278144667397852 3.392475857930423 0.42565744120478954 1.22733280621037 2.078247624968053
P 0.34467028537630573 5.462958923198505 3.5914683895606796 -0.9081264920819844 0.6101703455816266 0.8262975344296349
Ni 1.2943137014463266 0.9677869222574089 2.6521610206831934 -0.16314086645896417 -0.5964961905286437 -0.4040969414251944
Ni 1.9456772943021758 6.492438672844548 4.804834559671097 0.3015047830835646 -0.1409617592587637 -0.2726202388387305
Ni 6.285299780531426 6.000231671648009 9.181844353031643 -0.43410557197214267 -1.6983439929596105 0.39741567275027684
Ni 8.547227773348508 2.3500969467168322 10.279903085276608 2.2580682660755436 1.1210506006116627 -0.5367100716089467
Ni 2.508217753056215 5.435556041401138 6.912374207634988 -0.11556208823873647 -0.8772768536909795 0.12930257775328052
Ni 0.4996174091520875 0.02046493732108404 9.642142806289133 0.4448679526949693 0.8370619720349907 -1.0557751764426204
Ni 1.5685333219789308 1.2035643700828977 11.463494970357193 0.3723013941811523 -0.9022605202195106 -0.3019804371684025
Ni 4.102473077146666 6.452306534615446 1.7953948388005214 0.38713743075272034 0.9866495252895525 -0.32864072006840817
Ni 5.874102094356546 8.064933419380393 8.088532970169677 -0.40448337823033564 0.8090030090152455 -0.6067523210390131
Ni 5.327134758745972 2.961691834789168 5.091327327661221 0.20456570926265413 -0.3546669689288408 -0.8665345275728109
Ni 1.0348767363130316 7.801771261429817 7.23419997520522 -0.6279253555722024 -0.36634414815645294 0.3592059944497749
Ni 5.459360932087179 4.495680807764919 7.2804368867365925 -0.607871779355437 0.8826080360959059 0.7426595485930049
Ni 8.3879803233278 7.114673075036486 9.312231553138174 0.988156705962698 0.28244416690768775 -0.5230801395303379
Ni 4.847956846573776 0.3873546349770519 10.52546507004095 0.5198140671845565 0.5132947780087999 0.0005363321194442376
Ni 8.010118569949519 7.105223805451186 4.658596209835228 0.1518159283644482 -0.7511842982345643 -0.5888877820537664
Ni 7.367968014939336 6.220363309640915 6.913478136725963 1.0929366159842662 0.026345836983380434 1.2919685399128846
Ni 2.16746255447251 5.159791828724783 2.4163199720047266 1.4355155434003213 1.0495554207851536 0.5332329116936236
Ni 2.2857056259947037 5.556770181341015 11.350794258880223 0.2278107958335238 -0.8845222223994831 0.5268550331917378
Ni 1.080287745339305 3.2119430195852163 3.3912265554612127 -1.2665837812911929 0.4978933558520651 1.5218493309015597
Ni 3.3870543395058577 3.0228576836817 2.4774376659657174 0.512561242276885 -1.3443092582981302 0.27399037971337975
Ni 1.1879367319225955 3.4787849411723752 8.157456305958293 -0.27923594438303523 0.2469457168907618 -0.06305861902338172
Ni 3.682316756538031 3.121538949995096 7.013279686635385 -0.7580334599459139 -1.4299455055117114 0.38752823843323575
Ni 4.140397357193818 7.0371527210924745 5.968811941693276 -0.03713547139971669 0.6793721013882688 0.7495683598976961
Ni 1.0913452079213326 7.628622482115352 11.398055144144543 0.4373299924467113 -0.17052121808343537 -0.8019818405024058
P 9.548668632667404 5.856911692380214 7.863370504706212 -1.5076465570386166 -2.005235494276385 -0.011883638811463405
P 8.659156188753602 1.4820815911095846 8.15903905861383 0.35132016394379495 0.11621489133138696 -0.28470390947614194
P 1.889390539416669 3.2532654023486196 10.328866656233506 -2.9717404262972624 1.1899350822882022 0.10547359365448286
P 4.132401821390872 6.041635826936669 3.9996250463795984 -1.1095685681139924 0.18232823802069245 -1.1698447392962303
P 6.9654473022778784 3.881814460657656 10.520118964056346 -0.30692209744439397 1.8400943095579405 -1.852431748077371
P 6.71276111339639 8.06971256918988 10.203958215319224 -1.3865763944974572 -0.3531986119134304 0.699793345357098
P 2.4121986367317536 8.57384927323786 5.886669622904995 1.995819343168808 0.03557172645702261 -0.5755010763342153
P 6.956897530470411 3.914287239020981 1.655911808134527 0.7142689132654537 0.163046506972945 -0.4726291819686376
Ni 5.37425390496651 2.7311569144162924 0.5918904352361459 -0.9738749992327034 0.9520324494363152 -0.5635611303635198
Ni 1.5324988958488388 1.0564828546532634 7.12474381581374 -0.19996446304521692 1.17834557767839 0.34309854736495105
Ni 6.895913398300674 1.0446621818354997 9.277696289971132 -0.5272597248293243 -1.2458771448714607 -0.21475010599482372
Ni 2.724242593113973 1.6946901567788115 9.213374021603666 1.147323932485895 -1.536438541569644 -0.652187827663993
Ni 6.457467289542802 1.8625418936238245 2.449378786799063 -0.47932562015220675 -0.1345535417395747 2.1728565079938904
Ni 4.373330938307578 6.994458377071974 10.567593366469946 -0.22942467728786292 -0.6970530636077995 -0.7879911826502687
Ni 8.192662103832443 6.949492574016547 0.7323020383556188 -0.13180194713636656 1.4398643072873203 -1.0766617900836426
Ni 7.788051648858854 3.9395458634893763 8.140048752498222 0.09547997277688074 -0.48543173304994464 0.38043225081840293
Ni 3.102831213383432 8.508022390405657 12.568801474090806 0.9551599393217034 -0.5889224919464439 -0.31120426975951565
Ni -0.10650053689523117 4.890305928820967 10.11970162246123 0.7411801358340009 -0.08089153343974456 0.48190083707855064
Ni 8.538096508028099 2.0976833329195332 6.007642079603556 0.1627307755047391 1.1726266729167418 -0.16461179457753586
Ni 3.5062332521504405 2.6616593537836466 11.45665969582929 1.5101842358588058 0.5847004834452963 0.4134974088034879
Ni 0.9487157522001564 3.346613282848006 12.361737994217643 -0.3080011894411857 0.7272648113044895 0.49566189541838507
Ni 3.470098881822812 8.4024631461345 8.251007709187208 -0.347281475098047 0.29714162101886243 -0.9780111328882641
Ni 5.562975807424438 7.996689704135027 3.6891683855709867 -0.43694047031777655 -1.2683151621600028 -1.085432080077105
Ni 3.1273084559438122 8.53271769303339 3.7249402310366415 -0.2701604644443283 -0.9343532869889973 -0.8665263000426947
Ni 3.3806488250273614 4.474483552050975 9.465597741425645 1.1362537907146626 0.3494093200743273 -0.8799903959674007
Ni 6.944095587349559 6.011770683545441 11.534559837723938 1.1517919955595775 1.0430183909975843 -1.2444972338047986
Ni 0.6172072090558354 0.030810978933372445 0.26010477408956373 -0.4870319876575289 -0.44449334296437 0.5729407718062068
Ni 4.562707020967564 0.14259311237661737 1.5952856579086945 -0.8267665036462536 0.29873544786854356 -1.3291947712541947
Ni 6.143151874125655 5.5181008627304085 0.3355481058920364 -1.3472133193188025 0.4438338550035001 1.6632060116058969
Ni 8.090273816374046 8.44041468369007 11.87782181849859 -1.2233499103032222 -0.45327288892921297 -0.49872793593821857
Ni 0.11750530162764859 4.904261773131563 5.8151659096527 0.4035251280821244 -0.731758842520101 -0.11779406289304875
Ni 7.656534170736544 8.800777116663271 2.4016263577995867 1.748347578571247 0.09531387951266165 1.0110876037272587
P 8.632961723162817 1.4626379017706044 3.8943710862027356 -0.32851576445476977 -0.13133040681658673 -1.3102226010270661
P 1.5718950813506236 3.389144081817991 1.2875756453651173 0.2397247736622904 -1.2116683602002358 -1.011511835748871
P 4.6425896923079 1.2237803554937536 7.996124565127136 -1.4877238499727605 -0.6972564378678572 1.169345688172625
P 8.644273589156757 1.4050609581532585 12.244967736733697 -1.0776562927864277 0.8776144395360562 1.2545841857271554
P 6.11508572629009 7.842239575596087 1.3444184534223744 1.4736709714241203 -2.0208282065083196 0.6857661778400707
P 1.722620017072282 3.1716473363056 5.981258628621066 -0.36776673953559247 0.3566960835437276 0.2912766775976532
P 7.131645416945465 4.079286023318125 6.047536168925798 -0.04998995876488165 -1.0290840403046793 -0.5295778314395395
P 2.887814901137182 8.638585855733298 10.330741972812744 -2.7464683377251924 0.03490298252477214 -0.10598730006610779
