# total energy = -340860.2183465167 ev
CRYSTAL
PRIMVEC
9.35490480315055 0.00000000000000 0.00000000000000

0.00000000000000 9.35490480315055 0.00000000000000

0.00000000000000 0.00000000000000 13.69184878767610

PRIMCOORD
 96 1
Ni 8.687170366307207 4.535070728647832 9.315947192758472 -0.5726021575198654 -1.7909222187086637 -0.9826985110616043
Ni 5.362072373981086 2.3008388252628706 5.261092725550368 -2.603227809734581 -0.5468309620930325 -1.2458853724015768
Ni 6.9708353452372585 0.7470284355369234 13.229105724066557 0.5338389207087386 0.528522907812464 -1.9519457817143093
Ni 0.7216364175519223 7.239293047081409 2.9334511626649697 -0.7660159639307581 0.12510550895279746 1.4339006335047175
Ni 0.8648684288132247 4.939324227961045 1.900743581114649 -1.9908116055415714 0.17793525115931935 1.6706149024754584
Ni 8.508014585284197 3.4351678017103167 11.332606463240673 0.59212582937509 -0.33125090399774565 0.6368990198257224
Ni 6.203658315832268 7.8170613198484755 11.38230813673016 0.8646697064499302 -0.3723798128275716 0.4069038147463702
Ni 5.953208805647525 2.405894405696707 2.4991188380829317 -1.474388823426751 0.2676857776515906 3.4470882927486444
Ni 0.29109563586835624 6.862430708900011 5.401023390922525 0.16035918994876897 -0.4550893733126614 0.4394305837294819
Ni 3.558905126946145 6.34386027344241 3.3247920869405303 -0.4475033334352874 -0.029424475908704166 -1.0162447224481659
Ni 4.562330921113033 5.268775908828222 10.816546884220156 0.8149013767775514 0.22589635241963033 0.16449300961148444
Ni 7.777172005959795 6.698897618823084 8.950101190420252 0.10470920468463257 -0.6718511104208752 -0.8791979819730923
Ni 8.507827487189035 1.2021052614201215 11.395575262658143 -0.2972814890308364 -0.07266528887521034 -0.8407561330571262
Ni 4.448846571492119 6.473285380771184 7.310488549743182 -2.4279590496638312 -1.90157247146808 -1.391408525778778
Ni 0.6072895457123081 1.314195730232074 13.403909603396084 0.07846801159991647 -0.5574228786762657 1.0085254994270374
Ni 2.343132349674391 0.8885466282465356 4.692826229546136 0.2607792803397444 0.3295205515702002 0.6719531832163782
Ni 2.760903686363105 8.234449105442106 6.690836497393 -0.011977741187166468 0.16789972130018826 2.1665753029708683
Ni 0.29337261968648587 6.369090451575096 0.15152606981986316 2.0695428981052038 -1.00671955656655 -0.1664925565400165
Ni 0.5045240459632628 8.332937542735733 8.256130032709557 0.07227216720184973 -0.6000749090188375 -1.1346234542000913
Ni 7.981950871115332 0.7712744776890532 1.457839357302734 0.179654033622639 1.5654966352778652 0.7864472352019166
Ni 7.524290220537938 3.613762288447838 1.7568417586726646 3.059968602607736 0.6648042308764228 -1.3607092969227081
Ni 5.15067023625679 7.806349953900414 5.671205201713598 0.33410071474171493 0.6316213163665509 -1.4688635227331477
Ni 5.969065369212561 6.845292523383111 3.065933452868701 -1.983515328990474 2.7893507389110153 0.4508851054233267
Ni 4.946929765529407 4.322461808209738 1.4136973037110065 -0.16168639340062477 -0.1328563565428099 -0.34529118414089566
P 5.776054974242756 5.4535914072299025 8.722844360111871 1.0765826001062748 -1.5238738175307562 1.1588077647557784
P 4.366841476382323 6.987094169706894 12.21912588362612 -0.7850688667971512 0.7053433286410498 0.6871442891345197
P -0.03364304398167458 8.86650389052062 12.43110334799304 1.52703678863977 -0.6047010949369391 -0.024293068219409776
P 2.722829223997503 5.126749744790243 7.336023697770982 -0.1396075592237144 0.6654747745808861 0.575550441514912
P 0.3106726450557017 4.476611928814258 4.14724724856133 0.5194811093251699 1.1901199446054986 -0.24019245732732827
P 6.254174801526187 4.820264355104283 3.0712872648617804 -0.9482806957033668 -1.5474467197546897 0.9406663736912187
P 0.1796525264656666 2.147399677419969 1.8558886837803519 0.6874895882890805 1.111495609933376 -0.12950260957922857
P 2.005410933001023 8.125024784486222 4.845517920498863 -0.8564745722336474 -0.6850766079722137 -2.9888189790461044
Ni 1.5525961230883414 8.435626332265763 1.0926229400547365 -1.4789018808057564 1.9961566719035686 -1.2525748686066107
Ni 6.4249953624097005 8.31410611945761 1.0685368667739708 -0.9942196243273265 -0.52803902619751 1.0916299813577006
Ni 7.780829773720225 1.9926882625299618 4.057442033864203 0.45398354184299233 -2.1520709387071064 -0.6775581881079814
Ni 2.280585456461512 0.14641267887906753 11.948726103554183 1.0730218793382102 0.24889846974175844 2.217330164926233
Ni 6.694762750919989 2.2954316903126695 6.974285434112058 2.09448902652758 -0.39084958949698495 1.361985078311338
Ni 4.846523572760362 5.305671653194301 4.880815847132252 2.1091581985039807 -0.6364534476478717 0.6831444239465074
Ni 7.309698060291119 0.21269779203329642 7.9145188466377565 -0.23703951352064337 -1.2889852889148448 0.6845958116810532
Ni 3.4626150922706795 8.685785840403003 3.0288421909931786 0.7844212059108232 -2.217672378757 1.0078626690320576
Ni 7.969826914548791 5.952273315171712 3.5967532006166003 3.0018539578531915 -1.0366927058898727 1.6385699582247715
Ni 8.439948298264019 8.214887999592849 10.482137103831167 0.09051722945496668 0.32159589740648487 0.7306674092281351
Ni 4.7760530752173445 0.8242681421629264 12.777082339096413 -1.6603001508130117 0.652653711556818 -3.6252783402312465
Ni 5.6465924472949505 7.545132948339059 8.698184831169433 0.3082192189892627 3.2404024518191936 1.8279684728286842
Ni 9.205338540860208 1.6589707450930744 8.190477311116977 -0.8741205674501848 0.6190231679865661 0.747796355598938
Ni 7.0303138296894705 3.827016697314244 4.976931880579216 0.07422106339810443 2.1428990423998515 -0.07519705415812857
Ni 7.557359808857938 7.984729277828498 4.891097822951916 -0.04020099769891786 -0.8994539040086509 -1.0885436291228932
Ni 4.546642745833643 6.555299830785738 0.9032544095072728 -1.5938283923430228 0.2302235190400745 1.5936329885027651
Ni 7.036965166972502 5.551546614952316 6.720658062780978 0.4010229304855609 0.7729335169861979 0.34053849994725865
Ni 9.308616689389998 9.715068591321371 5.81980225085369 -0.6515095706500458 -1.2869314917096095 0.686259058316089
Ni 6.159203808421619 3.2504177876419433 11.901570835139863 -0.48270687791961375 -0.38082768648460863 -1.4734760818044947
Ni 2.6069406638537482 5.538655556195608 5.287696203701548 -2.5646934011048086 5.082870660925949 -1.528757885095935
Ni 7.216579338328661 5.299123219863607 11.052046321110925 -1.2521706911896564 1.7908206601337935 -2.415315392757892
Ni 0.4251654534095428 0.3334686769703208 3.3364295884596475 -0.31077463842126474 0.5409354225442039 -0.367352020595677
Ni 3.2646653075885803 4.097289250681471 9.275063452494 1.3965990688407819 -2.3906924520028894 -0.8649455858191363
Ni 5.601595355408328 0.34334839188538524 3.9084474012718906 -0.18197265445348662 -0.7007058298690383 -1.2770260596704395
P 6.106049239585906 2.931630698199037 0.15766475832215018 -0.5488631620317128 -1.2806016928368396 2.4409539192616028
P 8.057557211370565 8.493991583051756 2.6293690480113727 -0.36184317496230584 -2.986730729058508 1.50873747610995
P 2.766133078122902 1.580932129600727 13.65423749981897 0.8033967185720615 0.16878649478051577 0.18099383547998507
P 3.7875951286634706 2.115443322766186 7.052794601313741 0.5555398027209401 0.06618456624687312 0.9482845523581088
P 2.296909765264455 6.636659437467223 1.609531944427292 1.2155522686356743 -1.626931602654895 -0.5788828483222547
P 8.117475376346409 7.682313271712324 7.027245420928803 0.9052412001143894 -0.7095316556907845 -0.2185741077266042
P 3.8514891281615204 2.0471525180318135 3.5821576782129614 1.7441523095429767 0.5146335514248814 0.272583214953208
P 8.4158874832261 3.632621776440235 6.668026433121244 0.8259512068338098 -0.04551572504361193 1.121714459447907
Ni 0.4056614124793108 5.636077534346809 7.722298941120013 -0.6909667482044035 3.2107188087118317 -2.0416885948970966
Ni 4.305145879502434 8.805584750735656 10.688404334333724 -0.8983663273714271 0.6672118118766509 -0.2915214466186076
Ni 3.722213699308877 8.53570510336827 0.36577490506205806 0.11592075712973585 0.7862569735679814 -0.7202400432472241
Ni 2.606351304853986 1.0855525030385396 2.213670758217061 -1.5411182064335007 2.429726168866583 -2.625721105741091
Ni 7.905455814908077 7.530211875249836 13.233336011998185 -0.8207899743478444 0.865882752921425 -1.5399802361743158
Ni 7.469171121703017 6.061117632032592 1.3784134094347553 0.5219503968012689 -0.16308610196162882 -0.9422954246542095
Ni 1.2850084273866984 3.6805937280399426 7.873141167402057 -0.42427084526990805 -2.366858325697769 0.8343738836798662
Ni 3.6195249097788484 3.240632557264936 12.310629013536849 0.14905430645891105 0.0708446907267038 -0.3557578880001744
Ni 2.5605590460629237 3.8905365006219683 1.0206724965789822 1.232063121806504 -0.9933081682566507 -2.266790219329574
Ni 3.0195574480207314 3.6400215061039183 5.801797801156186 0.8336190077917127 -4.646622845799824 0.024732726859989666
Ni 4.649939604172951 0.27161965965239865 7.184619241712975 1.3816596739221303 -0.8243103287962771 0.5393832475657356
Ni 6.0292361166168735 5.808273266229767 13.212278121387627 0.09078462418374043 -0.5914267464255363 -1.9291663219259485
Ni 2.1876444776894584 6.018347007478407 9.316590810205831 -0.18224750538142806 3.1964995797886564 -0.5882200665627804
Ni 2.0527561059819353 7.035711609734912 11.707735337570387 0.14014749088758444 -0.7181427943985632 -0.032951772335672286
Ni 1.0438951121505722 9.411595480967527 10.18855680525905 -0.05426364643957105 1.3309912010329852 -1.146623821095077
Ni 1.3753955171597816 4.36374500290738 10.559564844042809 0.39658906308392344 0.6485224629972638 2.834600097667118
Ni 2.3315977521076126 3.6281781966801216 3.36892010817512 -0.18860121551359776 -0.19162560416221838 0.7199441092733602
Ni 9.499063840456074 3.5427211417145745 13.552356038569568 0.1595716610504671 1.5129180898502008 0.6616785407632476
Ni 6.5118556530889675 3.0815804665671545 9.583130756574564 1.2976964435355973 0.12239788021364728 -1.2794562663784868
Ni 3.067632303572778 1.2183921506040314 9.286194853665704 -0.046189868292501095 0.40165670741481796 -0.4033582634869569
Ni 5.112605128795947 3.9419229924583945 7.23204860883671 -0.7051242706517082 0.8093297962270449 0.37334474784400223
Ni 1.7547369051020845 1.5771621029831993 6.961976250431307 0.8217456533928945 -1.1423668455909357 -0.006685125329659455
Ni 0.5020075765833251 2.5128490317964443 5.161882089609413 -0.09752271423852236 1.6932706922017613 0.04411498804134338
Ni 5.201925759426603 1.015886527304721 1.134736850294901 -1.2548166134529355 -1.3112392152170385 1.4639095211619821
P 0.12137614727487554 6.187942075838604 10.495267648149682 -0.28837493056982594 0.8055258490999223 -0.6492637120386625
P 6.77659010283938 0.40895901640655274 10.299761364590408 -0.8501360316101295 -0.4600130358665239 -0.5582304621792257
P 0.811476245396655 2.520772636126583 10.052528070661511 -0.7649309583966954 -3.3245420598825906 -1.271637027444384
P 3.243822579787459 7.953923576459965 9.018628674245004 0.0420979576113146 1.017578096547609 -0.7941836846142257
P 4.602996692096638 2.635482478270813 10.170962100389954 -1.1714447367934986 -0.46518301010323754 1.351921523427749
P 2.133891194949225 4.937462601914175 12.668054666102273 -0.4356484909792303 -0.5199961012883754 0.6012172501533968
P 6.792689893928128 0.3763768186244505 5.662058911331572 -0.5898126078608811 1.9243971826720796 1.3400862213557179
P 8.009192353771017 5.088347860758107 12.87647165371825 1.747951885794725 0.07854591602570343 2.5337362906016616
