# total energy = -340897.2469485534 ev
CRYSTAL
PRIMVEC
9.02265291247255 0.00000000000000 0.00000000000000

0.00000000000000 9.02265291247255 0.00000000000000

0.00000000000000 0.00000000000000 13.20556456114270

PRIMCOORD
 96 1
Ni 6.420745377228436 1.8346933107209022 11.580236660770845 -0.21850777326504303 1.1352996543315095 -1.4712834450285501
Ni 4.733500260366192 0.345645201276084 5.99597331446039 -0.5586379820302895 -0.7678489033744389 0.1410077820053507
Ni 2.8526741253153847 1.5293396682806537 4.986262663523407 -0.42469661995341695 0.25205192776907553 -0.9155423249300813
Ni 3.412403421253193 4.364771503884626 4.834544048042346 -0.13934967757663744 -0.40958136157853325 0.46834958075667726
Ni 5.213198624990436 4.607282368805259 2.5636487778467436 -0.22608609983293323 0.24487546462529441 -0.004581191612779208
Ni 7.462320429183119 6.215534159438612 2.629994149226102 -0.36537689914717725 -0.4345115491613098 -1.0074896019633552
Ni 5.021295820243172 4.545991487586201 11.629348765091702 -0.09986961720414414 -0.7933946130540271 -1.8097018133090121
Ni 5.689305973756414 7.8937656460435575 12.442177009140277 -0.8736282011947986 0.17925242730884614 0.04580523125957273
Ni 1.6715186328397482 6.477425682810378 0.3899455247999258 1.374539260827265 0.62310993646143 -0.6572241045363196
Ni 2.752080568019449 1.5890606078933358 0.4957433482944703 0.42710728627743866 -1.276613654723369 0.09588363597320262
Ni 0.5298823601108332 0.09563109819531945 4.666582852792326 0.166923473429848 -0.6154891866913788 0.022732665710825366
Ni 8.941782872176129 2.213572551726455 1.5099635211559768 -1.1486321097743573 0.5445375380731653 -1.0045415750786246
Ni 6.86957724624685 0.8499266860194863 4.706370947595771 -0.1183872163923574 -0.17037569364450658 0.21708672454780034
Ni 0.7758525101572414 7.371570586212224 2.5895058965568243 -0.10009253184822761 0.9740881436847741 -0.29540252684056867
Ni 7.710840380941953 3.947347489646655 3.827091767128789 0.01450205027091696 -0.5162898560813819 -0.260552509040919
Ni 7.756711548337463 3.7935834387508502 12.546963393243587 0.3823618637409479 0.29460497063993774 0.2786965269397974
Ni 8.045391328199642 8.899394448803962 6.713854377404239 -0.5435188670006639 -0.020447212110758336 0.6027334296876071
Ni 6.833306181547805 0.7749078383975424 0.3405068004437192 0.2986053500485825 -0.383703722480823 1.6384475737142945
Ni 1.7659046049334586 6.518974999461897 9.002524273832957 0.7078126161171487 -0.2619043950831231 -0.05258394474430299
Ni 0.3490016281586823 4.899977229212483 1.3148242908098204 -1.622499020804838 -1.3755556179069215 0.3246321131296474
Ni 6.368107220150269 1.8092674748199296 7.076796004309196 -0.24524467503925504 0.18035260235156036 0.2210397956582774
Ni 3.3715308035699407 4.390639449778199 0.33837023623458146 -0.23186105464349746 -0.06923260904457754 0.29817443315875103
Ni 6.104230713138257 5.7375410762143995 4.637503744728009 -0.3784866970562578 -0.23097453827348607 1.0211763554218285
Ni 5.135026360176373 2.7033401969984934 9.470370481594347 0.6692123872464475 -0.22100174333149036 0.14703779024951452
P 0.15093905826961784 5.633392593671842 12.322297531248767 -0.026609632167728364 -0.5087385260966852 -0.21719959597658078
P 4.027035560149632 6.242692344698346 12.474848035328147 -0.8878469158973419 0.13829501105987796 0.5059697051022963
P 2.3384370453508563 8.360209733542701 1.3882082337244344 0.42142771939415813 1.182384266524138 0.33610283277340824
P 6.299327537015737 7.8462433331654795 5.826559472091826 0.5634289756610297 -0.7713106366707941 0.25778728759095604
P 4.666452926590419 1.1983165783108565 12.769067724077198 0.6535885646662615 -0.7877487276221594 0.044212175740839986
P 3.9554678772658436 6.050627132198698 8.196773398727151 -0.3693579952821123 0.529036614224089 -0.7397724568531969
P 4.765341202486324 1.1717538881431973 3.8239753428136023 0.2635488726650816 -1.4577080203369606 -0.7055065936917915
P 0.4317528893246765 5.525418506295354 3.535103380444435 -1.3213343946695113 -0.6991009472757638 0.12678469642743326
Ni 1.7114709399261594 1.1451731526697175 2.7288634775508958 -0.18438846298383083 -0.339989312312008 -0.2632539671324821
Ni 1.8956052405177324 6.46249319224398 4.695423762819813 0.6456682813779203 0.34907661932525685 0.6028848676638069
Ni 5.890150227537697 5.621491714483274 9.332979838934701 -0.44551381380908434 -0.4004668008717748 -0.37563662920197244
Ni 8.579631629666107 2.3686268419884198 10.279198081342535 0.3077250529616636 0.19104042108270972 -0.1856966402722931
Ni 2.3072457342402592 5.101750816243517 6.932894615309542 -0.02306510934957963 0.3715403476454118 0.35676935998382425
Ni 0.5741438862271611 -0.10034814113677741 8.847081107230562 -0.20660382273860547 0.8337892148209898 0.2458357716560347
Ni 1.6107149748778407 1.0950884063651398 11.3778612627907 -0.8993626298464252 -0.2858529354789206 -0.1867363943907171
Ni 4.0388913260736485 6.870163718686014 1.5234469736649952 0.6272910644223133 0.07729353167584108 -0.1968619128604932
Ni 5.427522722219572 7.7461099311679655 8.064004158888116 -0.104740057922568 0.9438185461669552 -0.061835802359874154
Ni 5.239824473728466 2.8039066863356976 5.076839271558426 0.34549070174621144 0.7252292689316995 0.023954196822752294
Ni 0.811606576844532 7.38468952354367 6.71113404755181 -0.26093277519847324 -0.7206545050768233 0.8914364330208131
Ni 4.944070933984681 4.382663424605573 6.970148246910511 0.5681199533787958 0.7872787299642765 0.4207206660248045
Ni 8.224057901127628 7.171285736911374 9.129205027488183 -1.2732365107210202 -0.7131805652972814 0.1573653974277677
Ni 4.610503455894205 0.3708572003030848 10.589872382203936 -0.5948182886055885 0.066768206664485 -0.24526987185023566
Ni 8.19846063482136 7.109688085493368 4.746555136861976 -0.14936540994142664 0.512469196783711 0.3200599203779327
Ni 7.041422693574717 6.148856754432158 7.1645999511049085 0.5642969800882798 -0.5838291365839364 -1.1648603987077617
Ni 2.483764915775614 5.2511479031307795 2.49397675433939 -0.2763074578823306 -0.5426583187725815 0.5548348062341154
Ni 2.249518800920733 5.146963329976581 11.40494636456186 0.03434222492529569 -0.033168259221852556 -0.34507572569597994
Ni 1.1384061629870597 3.4057537260583683 3.7997296699132854 -0.25924150353897935 -0.10414613309231097 -0.1028793505647454
Ni 3.664388071729548 2.833663395633571 3.000647437573416 -0.08692565544896642 0.008711925951701125 -1.0333399873675557
Ni 0.9359288090290293 3.3310371373089165 8.094007186610437 -0.21921996884071926 -0.22932903225026313 0.2620812869806196
Ni 3.5405702058427315 2.510002790438506 7.096300273105198 -0.3799589107264101 0.6128347797876671 -0.1638034397436276
Ni 4.050765137303485 6.74341349060338 5.915432603257398 0.4396498988291396 0.8025685662438113 0.752877112555955
Ni 0.7744873827719266 7.384933135172245 11.061377275720416 -0.08716682492549503 -0.597810538464693 0.7854110806279183
P 0.11946624038822211 5.467475029305983 7.94181307732101 -0.17706724673206925 0.9170021973050595 0.23671786851516652
P 8.374438457182103 1.69776553015555 8.102947733379166 0.2671900689620947 -0.5505027545176648 -0.3818324736000392
P 1.8017064916811731 3.1349387989584048 10.33826668314981 -0.5255134315621789 0.7655109992698816 -0.1906879228392974
P 4.040316905233462 6.114976692754318 3.798422287506596 0.4238455848070314 0.7635626172942591 -1.0192220599089348
P 6.819456409330632 3.835899680899736 10.520913148276488 -0.16490670011013533 0.6803151820278284 -0.8468054245749996
P 6.148116896893521 7.77891629714949 10.257527473582792 0.8900416095558156 -0.7524305119368395 -0.3204800386344868
P 2.399394088412237 8.481826072119427 5.710772669560387 0.5557323783477204 -0.1484035602487896 -0.16752356890769213
P 7.113766324608783 4.18391242629946 1.575952497745382 0.020870158580789867 -0.6903720520431981 -0.09823259582135341
Ni 5.418409842780259 3.149997606665546 0.4443367833385468 0.2326789225591025 -0.8874802765865425 0.16046563361964625
Ni 1.3655514500016053 1.027066626075064 6.855629127112956 -0.26226152131222574 0.8857956897952679 0.43618482309867457
Ni 6.886918785140274 0.6247772098286795 9.319998948192781 -0.6204994954217765 -0.02532279503550477 -0.5650845089865817
Ni 2.5712936716575645 1.4495162579840224 9.140086346897897 0.4670149211056538 0.7865853034416775 -0.04274921804206831
Ni 6.425969493263448 2.057606973520559 2.5378322610747586 0.30677657300546524 0.5370707973824751 0.0438445079887761
Ni 3.943982040111146 6.895012104800734 10.33079231747899 0.08997601223951601 0.40874523883048314 -0.20293125898302472
Ni 7.9775409783148605 7.231782624674334 0.2721439638736375 0.4320114084472753 -0.3176939912489174 -0.05657995327757352
Ni 7.200663494787019 3.772759155834084 8.225469044042784 1.0648169749299146 0.1923401137307397 0.30443969734217247
Ni 2.9193695756276594 8.228506069012361 12.377932111358415 1.26630635926009 0.06839468652431448 -0.11774855436709397
Ni 9.167105583302813 4.867612973223558 10.05091323326543 -0.26268832443699924 -0.5150161315752807 0.5449340021806357
Ni 8.54161017030248 2.3035464465470725 5.897526246291794 0.13583960754084995 1.2550464700755546 -0.5151601133523128
Ni 3.5576771557604903 2.6422748821021895 11.538044931232118 0.47629377530441847 0.3406945659091487 -0.2546492561826066
Ni 1.2949762589379399 3.0943097929037275 12.674951529305503 -1.1033022754893063 1.48060112288505 -0.01609741978249486
Ni 2.9737761726762275 8.418667501747954 7.870516074024528 0.5946056583741501 -0.6962405950088333 -0.08801066098302908
Ni 5.668003490235408 7.936866858995632 3.65967102878809 -0.7354848852214365 0.17405391382704216 -0.23116402857647286
Ni 3.0823006418802374 8.374600864934488 3.550276775843536 0.770748336409421 -0.5674036440380615 0.42733071514215437
Ni 3.4380548234769215 4.204204372694523 9.12398903184079 -0.8591976275917653 -0.01831833869321361 0.5295102114263976
Ni 7.242907555712624 6.0573490086168045 11.244406301330487 0.37378646336711113 0.01702430247213842 0.8901249132982413
Ni 0.6560813041006542 -0.21637945756208246 0.06618386589226595 -0.3147616480934708 1.0040126991583485 0.4536233302900962
Ni 4.590220532152052 0.3099579022203291 1.7392128908291833 0.014679199278729559 0.3743425929808972 -0.4885669362448166
Ni 5.966716460133743 5.597139574278616 0.24012617775646508 0.5328935260763339 1.0022106129526032 1.3396720166364346
Ni 7.965874688101958 8.798990367219142 11.351622485862517 -0.21733560733381282 0.2198822850150665 0.18822686289331456
Ni 0.023520251606336327 4.9850518235028565 5.8324088579735145 -0.3466628676774417 -0.6210898207076078 -0.4915159915708116
Ni 7.827304784706948 8.805730288943067 2.5455574564964802 0.7060730077182227 0.43713793104056325 0.10710418727937038
P 8.597027304476992 1.6695607171582325 3.5797646100846854 -0.6208519936651888 0.3127150499770872 0.17258298570847053
P 1.897869926398195 3.1701271453082254 1.7050892175227677 0.7928089157538862 0.8223496055254805 -0.6798477554731065
P 4.576054967083022 1.0116108216398736 8.23112083382574 0.9423185645826611 -0.7659447443731905 -0.0467025462628615
P 8.587968560955142 1.6740991115720683 12.444316280145287 -0.030969451798320856 -1.0455763815327477 0.3836541001898102
P 6.255567670401216 7.819364850145963 1.4366463458728984 -0.3934885697817288 -0.5369764378964558 0.12306431015305257
P 1.6750194221689099 3.2575386067023433 5.906531756161475 0.5618552034160066 -0.8635204233368353 0.6965524698222972
P 6.888669179804856 4.081929380455352 5.92310546729224 -0.06874049989950741 -0.27300539009229113 0.5150696105210355
P 2.3315256932216353 8.506078963142071 10.071990150463682 0.6597985501317153 -0.407787245792588 0.5672303516849908
