# total energy = -381167.18685565965 ev
CRYSTAL
PRIMVEC
9.27809557212732 0.00000000000000 0.00000000000000
0.00000000000000 9.27809557212732 0.00000000000000
0.00000000000000 0.00000000000000 13.57943071407954
PRIMCOORD
 96 1
Ni 7.165278503617419 0.7398724670649692 4.026572937953009 0.39332247651750973 -0.22894542365859927 0.2964047428528379
Ni 2.1909573634395443 6.138981942817965 5.994707553987955 -0.2738561681283606 -1.6654966074122863 0.8974813536633124
Ni 0.03203726460643232 5.681145030200239 6.608606676079327 -0.44124552545103357 -0.8914364330208131 0.14972047928800022
Ni 2.2188937097268213 4.3136650545811115 1.3564177020627273 1.1289225471605717 2.073158383370604 -0.17296453741760534
Ni 0.15438658538215264 5.926012533094233 0.08768171602566695 0.6686878822015452 -0.23096579652273772 0.1903145986602787
Ni 6.983353602255435 7.773095833948141 2.984636291156724 0.12320854904040071 0.4984615696507093 -0.7277366087345853
Ni 4.879545392145812 2.0226898190137534 0.5353554025646543 -0.2312679011441888 0.6211376432264077 0.38140875579905925
Ni 0.31744355123772294 8.476412603779012 3.3879050114616005 0.5040112958243449 -0.6347660326431197 1.618112204591052
Ni 7.222978981053677 6.286160375616064 1.0342488166622312 -0.6359633953853305 -0.012368291757365797 0.16402249773296912
Ni 1.386500071895752 9.09291423172677 13.216221523723545 -0.49083310657117396 -0.13584063598211443 -0.2920269255001164
Ni 8.699161126417653 0.29496736429619896 11.050900466636168 -0.07529604162983805 1.4252493855876227 -0.9340005316352689
Ni 0.9190983703748197 7.832271528607807 10.818121394687939 -0.6392070991336088 -0.3854204480616137 0.26479251526419556
Ni 3.5025646464841174 2.3387759848440273 12.159198693246385 1.3450055130342062 0.0024348346937377425 -0.13717375297124118
Ni 2.6799130091849785 1.3066342237254167 3.886582245928326 0.4601367059285818 -0.04469760001769076 0.2519948492788951
Ni 0.8014567553799578 3.297490896239121 5.790133893103598 1.053709037942211 1.1169846580724054 -0.02466947772222203
Ni 5.643373902423584 8.131545784948694 8.313504087455357 2.4506811738516956 -1.9318870632912213 -1.8543307648722966
Ni 8.297725757831929 9.175841851492855 5.980503717212401 1.0283337924022162 0.5359695938984964 0.3836687554778295
Ni 6.427261655701388 0.6761968959691265 12.688144787270604 0.9013089549395187 0.27349698501672903 -0.3338436044255863
Ni 4.544262846219764 5.24923111709319 6.272162512566042 -0.2896111169697722 1.9792686378989783 0.5994444745236902
Ni 6.949442162308575 4.524092266070797 10.507939808989587 1.4193420189642523 4.6244928466700035 -1.1902464428810342
Ni 4.116143674272297 8.782209361428418 9.50530332014868 -2.4447918049504542 1.0875756087826687 2.055767698697982
Ni 7.071541902308763 2.975698701525859 1.5461677493757853 1.191362044542716 -0.7506829331181136 -2.6620952734947507
Ni 8.251056936236111 8.084375946182663 12.598588895904507 0.18027958302177982 -0.7086690505801732 0.8920491269041476
Ni 2.3182621151525065 0.5409797842050884 11.023985638690382 -0.15620300168855034 -0.008171222956882702 -0.028892514664634113
P 4.89072549751817 6.300856879275662 9.755978910978854 0.14375474862286858 1.718255130061241 -0.5462118404517948
Ni 8.590663074779187 4.4939198987090485 2.5144084816719574 -1.263237233416463 -0.3284041785775699 -0.4068937874440412
P 6.535091684446234 2.739116538131878 9.102808393028912 -0.4599042782028015 0.8764286467580712 -1.0074147828613618
Ni 3.8715174018676644 6.3027960012863025 13.301093832357719 -0.17939178110018783 -0.28788179298349126 2.6788382972810445
P 3.820293035261203 3.217291036621976 2.1826080050788934 0.4462481208719476 -0.9491376443870234 0.046797677079829084
P 1.0050868339270798 8.212766235097755 5.55041573334791 -0.4817761385752283 0.10753921793425995 -0.16367565591651168
P 0.28492011441426857 5.708404075498153 9.461101544211378 1.024771014751622 -0.6746631259483736 -0.5150230735538163
Ni 0.991902659873868 7.114248977021594 8.073175428999667 0.45608027647102095 1.2044479311923966 -0.005391603329216521
Ni 8.291787776555323 6.771414061159365 4.774541471364801 1.105175324142303 1.4786164883548536 -1.3009761427281337
Ni 1.7943094922580825 1.1496766780124088 6.372827067967261 -0.800500370860873 -1.931732539991228 -1.0294668775653948
Ni 8.014548997608086 8.702751749470849 8.413815147408702 0.11703147369541135 -0.6962339101406139 0.12659854855855615
Ni 1.7834541202367893 9.18344061190776 8.76829314562095 0.03527090738715216 0.8530388070792212 -0.44908713298263947
Ni 2.2069249662161647 4.1293278483255085 12.67571956144931 -0.3473436957945502 1.4737036244342685 -0.12771826398529618
Ni 2.3655711253547067 6.136254182669025 10.279248666026469 0.22497281216409643 -0.2405475266739019 -1.3320828914352671
Ni 4.971769663848082 3.211881906802819 7.315483451247436 -2.0375239219964456 -0.830668409803821 -0.40289443647666096
Ni 0.2956261090940723 3.198651342270883 0.9105949956248066 0.15676813016340096 -0.35345160846450097 -0.7441883265327054
Ni 6.496392747095111 4.766528907879681 7.878623039329155 -0.11769713230386826 -0.5448620112921196 0.3060530645758794
Ni 4.486720096411165 4.21297915955968 9.58288211771795 0.9465405730838085 -0.5067459211466885 -3.0017320875633464
Ni 6.366954033360869 1.482621143810794 7.249107954289887 1.0012063400578048 -1.836372123511347 0.6102508211105747
Ni 7.812908142788627 2.7277137584616478 5.922343046227206 -0.39934400012124127 -0.7417671186857225 -0.7802603896649144
Ni 8.981929650428727 3.567242251920387 8.017390878334687 -0.13072285513957485 2.7081959245075553 0.04883424789388364
Ni 8.806193238928456 8.503866489087564 1.240089865425314 -0.45609158932493066 -1.6572166267916815 -0.6385139297213261
Ni 8.8872652395456 1.451511688778831 8.342700399144764 1.019370155451025 -1.0654970317160746 0.06255493991408581
Ni 3.38560497152649 7.726204338054452 11.470002257329366 1.0583470509348547 0.38234900822514156 0.28380093804589834
Ni 3.512872610856474 7.089578520436451 7.891400832788749 0.06325479419458784 -1.2812912627046966 1.9010693065794162
Ni 7.380149922968813 4.982615757773631 5.661807623049145 -0.8241653185779807 -0.8638721502492994 0.4107589268264023
Ni 2.435574357748432 9.346475310333544 1.8917508371975942 -0.004713860535901559 -0.8626256794367079 0.43511164463915386
Ni 3.898256873803876 0.8918597368875437 7.669812072118195 0.29763758681867447 -0.18975692638459576 -0.9474646275599747
Ni 2.71044722228077 7.023045295851241 4.101816438823338 0.30975262491465366 1.8311085611195628 -2.0232571276647864
Ni 5.940718314849574 4.6251956754007395 2.6201379495402053 -0.7588233028370609 0.6275335194504224 -0.20176809191285897
Ni 6.97395489126606 7.3735253626071 6.551654940969665 -1.2020238951319364 -0.4563278737054528 -0.43013964534585925
Ni 4.648734204305032 9.044584630992652 3.197860848513436 0.0855719696345494 -0.5450057359588355 -0.12194870849137063
P 5.413267849859401 8.028280579310236 1.1791383432401137 2.174867110666016 0.7269891890455996 -0.4140321982610353
Ni 5.578046830285186 4.352790784336491 0.09903068274057804 -0.1497338490244389 0.3671753858084967 -0.43222249601681695
P 7.371066667234756 6.121752519020067 12.420969958777638 0.5487664885528485 -1.6754539757353146 -0.7448622126712785
Ni 5.840180869360058 6.242117255115996 4.381321856561002 -0.9396145353879366 0.8524394829323255 0.4974056175823692
P 4.724211513188127 0.31934092181751306 11.484369388590027 -0.7777332523676864 0.721589358186267 -0.8576827336091357
P 5.172334259561158 8.253552743991435 5.248938857077233 0.5623704524895283 -0.11527721000846598 -0.080394539198668
P 3.007596794696121 3.81094071475055 5.879228663111182 0.2453457193934936 0.40313020663655086 -0.7377199451995424
Ni 0.23676308626100293 1.4610774054916118 4.432448803162146 -0.17835974029124765 -0.03984052903570558 -0.25150762522983133
Ni 5.748374111966299 7.552230764745673 12.515618596897998 -0.20274202579035405 0.15408981200028946 0.7329366648782861
Ni 7.807860858703513 6.375879561467266 8.587170799540884 0.19034725167042701 0.6047789993627262 0.13351584450367976
Ni 4.310046597240681 6.711820852191187 2.1728854885480273 0.3224417903465479 -1.3610219430671207 1.2041885068834228
Ni 5.487344166285046 3.835703952293141 4.7988482265967525 0.3694451556792799 -1.816817341307871 -0.08381050685875244
Ni 5.561837997019204 2.0176982035031075 2.9553592600343386 -1.8302410709129446 1.0149707408317485 0.3438547088046852
Ni 0.7538257952554163 5.294480390040069 4.066619054806263 1.2453575249225648 0.7024477522608096 1.7017445340007273
Ni 7.079521064649201 7.646338489884116 10.54392583114496 -0.27822447239938536 -0.6520824124343803 -0.8860096055782869
Ni 0.14651597676192776 4.854438865060668 11.316092566068493 0.08180556061358168 -0.1236718618300644 0.6557724596914577
Ni 2.395511540322838 1.995337992758392 0.5116526513656816 -0.25789784502689134 -0.034798852846740065 1.2627093859374512
Ni 1.5545449420236708 3.3301312370689584 3.2712171847092932 -0.17194740900700062 -1.5321879938234064 0.540325813984663
Ni 4.967937810305523 1.23866289429978 5.138741986107914 -0.45158573103477706 -0.4925467468281711 1.0154656781902964
Ni 2.1474059820139453 4.818857367879761 7.954259931459058 -0.36539875352404816 4.414324189398275 0.5328613872868178
Ni 2.303890344843974 2.827444009621376 7.750093578977893 1.3465198927962034 -3.267283335370437 -0.1717939141482719
Ni 0.9666476832568078 2.1872090127586876 11.999124635172736 -1.2454706534616615 0.4499782773383411 0.2763329118036273
Ni 0.2674021418387097 1.1008367820123337 2.058465228395723 0.2295673735133143 2.0467084167091913 -0.17102952517842157
Ni 8.214454848523289 2.528179031376234 10.471981621121447 1.5176525192113928 0.01248784805436559 -0.16825633330865863
Ni 6.077486724222125 2.8559092073661003 11.281655058092905 -3.1776549362783273 -3.1585105021393924 2.3560728050464905
Ni 6.325768566350167 0.619633913071167 9.641654215212721 0.22339749725717656 0.771148142951001 1.3661602927349503
Ni 3.978697963910383 9.029526281599011 13.574420038329416 -0.5986674871483496 0.6705668443918129 -0.3428316668568096
Ni 3.5976094592927748 4.88493596577348 3.5870741815746734 -0.3986634291144489 -0.7224427073254976 0.5441436450688564
Ni 4.260817021219328 5.119449113816395 11.499673607520903 0.1735324941059334 -0.2682622189803509 1.409339913446218
Ni 8.008184223927227 3.870070018931492 12.918085689730534 -1.1347036726187232 0.02048063645185505 -0.6073824984238443
Ni 2.0460798983861297 6.72056081838269 1.8243148538964264 -0.5623791942402766 0.4200861177645991 -1.2618722347481364
Ni 2.164486956279929 3.9164048290805 10.213307383949772 0.45066733298556577 -0.11023733359171337 1.192374287857314
P 7.6225587304904625 2.887965028164022 3.6002054704821402 -0.2171206631095293 -0.5338502335626484 1.9418524020340495
Ni 3.1339180682601455 8.220272214555212 6.077596205751912 0.6468047089752087 2.6030259781364204 -0.4763541962287086
P 8.375624649704388 1.5926222469598996 13.53634366120276 0.2551120547516381 -0.4729760237850951 -0.11595109614703901
Ni 6.6899059900422175 0.548100722689142 1.4650716257097032 0.6453792893825917 -0.7214669736757898 0.17581383394094238
P 1.9172628170667825 6.955732711223478 12.847227944718723 -1.1706348392976935 -0.09803770620172793 0.1553187993113841
P 1.5802916577151997 2.140568025450105 9.534091395625321 -2.200879989790009 -3.714457310490764 1.136276416422482
P 9.310569079801573 6.449798150265252 2.425625455681395 -1.2934253269640694 1.9672088785209672 -0.58458401247209
Ni 3.93146317847414 2.0521477730031603 9.955773424745118 0.17516668727524673 -1.0384410560395472 -1.3079289198968829
