# total energy = -340857.82754943223 ev
CRYSTAL
PRIMVEC
9.37082076106230 0.00000000000000 0.00000000000000
0.00000000000000 9.37082076106230 0.00000000000000
0.00000000000000 0.00000000000000 13.71514340089545
PRIMCOORD
 96 1
Ni 1.127112957532534 8.533294339328613 7.865648657046521 0.936694019307032 -0.7670348921135758 0.5172123678956512
Ni 7.8663730214959875 8.945544859708138 6.626251713190173 -0.6470934438602212 -0.32394382881337114 1.5152369677913646
Ni 5.831040109989333 5.385466950770231 12.195313659650166 -1.8738068713190377 -0.03994697270658281 -1.360085033075148
Ni 7.999925959837291 4.275680640935779 6.083654012272219 0.32091224107589894 0.7673873903569881 0.3772577097451632
Ni 0.306263725647441 2.3490117676697753 1.522915813206988 2.479349745430982 0.004067485201154285 -0.967539801043295
Ni 0.7373196092506058 2.8278232283410674 4.77440603293384 1.037327254150078 0.45905838526273846 0.8020738859955799
Ni 6.137278534420557 5.478247447719237 4.5192498269622075 -0.4746631816795309 -1.134259900213085 0.49888065946599885
Ni 1.5603634873719836 0.9196626632786785 12.17264283283785 0.26340643354994636 0.34364336412482754 -1.0294859037287882
Ni 9.293342874480624 0.698004330495979 9.035701526827257 1.0673335707041811 0.3164274658316679 -0.9518984949616123
Ni 0.6904158397951098 3.3081621328061876 12.296174615393147 0.2965916620526634 -0.14972999236969697 2.990083190470508
Ni 2.968066932748586 4.313060845190862 8.552118444193896 -0.5962704476710828 0.6781315441129482 1.1876347162897998
Ni 5.560223388261598 9.203842164818978 6.463974397786169 -0.6805067292133441 0.7700561954384028 -2.0656936995624426
Ni 7.38004616252623 6.436179606148915 2.7285047097052284 0.509458177871529 0.316825472601035 -0.5422597977825823
Ni 8.957801893342044 2.135310198846211 10.754455313126682 -0.651762052980484 0.30987860896955666 -0.8336038382830611
Ni 2.985327984700921 8.501452290178756 5.54824185675983 1.49492499570689 0.05819512028349332 -0.11419708957040976
Ni 5.017090613474763 0.3436448669846073 8.836598759760772 -1.1956550154911152 -1.2994406799202136 -0.48955346852780207
Ni 3.264765861584003 2.012589929374017 8.291559022936859 2.9086393840717193 0.6938993484701663 1.7930004413939313
Ni 8.938891576925206 4.972551102112412 11.001629453922959 -1.1134234230837081 -0.08590081372887787 1.7177905317199964
Ni 8.224122847980407 4.0262762447840945 8.54210665922871 0.39226035380158253 0.3169018343649252 0.63233531171444
Ni 1.943105292986088 0.7196134433092717 0.8416130966603289 -0.028113470406764485 0.7011488309437279 0.41628808417474755
Ni 4.168684608801271 0.6558300143088565 3.4740462771442053 -2.086023669369046 0.5826968227517062 2.809891796287161
Ni 2.5719435950020526 2.0561736170126226 2.849814670643858 -1.3429031219792227 0.7936632933343816 -0.5446036154244105
Ni 4.944869697407094 7.926083891767583 3.082876355283668 0.2603275375143065 -1.6174115789796015 0.17172629413513008
Ni 6.838347123325012 3.9587688515894026 10.57336045243197 0.05233557617892277 -1.200963829298538 -0.4168498702154885
P 2.2459421094592784 8.975793869318418 10.46300872936145 -1.1579497876308573 -0.16595982396499806 -1.1991105781398832
P 5.9161459046859175 3.2325864628845897 6.039175411245205 0.07952576344046948 -0.08625074086912887 -1.0318001536842618
P 3.4664821505774706 5.911179369650772 11.70263806957416 5.269220618511525 0.06720529420190362 0.32927089745323934
P 5.439152383253905 5.114144204718159 2.5005997877632313 -0.8457121915108209 -0.1008576921490263 1.154981706141469
P 5.661878052528119 0.5006510956767821 2.3107272792054614 2.439005794396296 -0.11920148476353663 -2.696148506424718
P 9.079125910511904 1.470234932715328 6.985767002317275 0.5463334536313236 0.3762423811067714 -0.8005016564124536
P 2.266586027728005 1.0470955185417683 4.904069143552333 -0.8349143295643686 0.19054728349637506 -4.445867511422194
P 2.2247546835829324 4.194679265758804 3.096124821760438 -1.6976148281030699 -0.39083056333359145 -0.030818785153069506
Ni 8.556355929369165 4.277760963158047 1.2918566729766323 -0.2354883669834396 1.2464173336456468 -0.6841960051394733
Ni 7.10618392403166 1.9861173605546103 7.686926488183694 -0.5273499705502852 -0.33671321266389753 0.045875936596508085
Ni 2.355983658360621 6.62356791010703 6.629036721138182 -0.8040266388465765 0.1992386406227859 1.9776758394905618
Ni 7.286787753715349 8.96123161376254 3.4522937907723503 0.15182724121835786 -0.0784214746326972 0.22534716478437966
Ni 1.651251078515143 6.547786082127369 11.699456675905422 -3.445388536448718 -0.13050842513592362 0.5253370538853146
Ni 5.169638205620292 2.970625166832727 12.880755467753472 0.3010460982795912 1.1256842427289322 0.6388548580005127
Ni 9.481771339549875 7.790666160082894 10.656282845877254 -1.1484868424457446 1.4059614838922883 -1.2177518473901543
Ni 2.0812593043505165 8.589163173063588 3.1762219127281823 1.287614376709247 -1.001760927009694 -0.9381726607350875
Ni 3.7737138820157234 5.803714796475212 5.056896923240412 -0.8119384374944855 -1.6189948643063214 -1.816139855624872
Ni 0.8878880840387338 6.616708469266037 2.0493169874178756 -0.7086641654841666 -0.9311728323784866 -1.6470054905866345
Ni 7.7696380381605055 2.2345284496992655 5.061518612069343 -0.19318060735416406 -1.4776631233026487 -0.4985379314145995
Ni 6.282423178117473 4.742919137893099 0.630907379253248 0.08714522765894023 -1.004341800362993 0.5626648438014955
Ni 3.2211165781996502 6.670515722420385 9.390292449612907 -0.46565300776112056 0.13664307727875177 0.06318100353385893
Ni 0.7703170806076947 8.34763963722239 13.386898801513459 0.5928038292787211 -0.9188991572174562 -0.8124048356079427
Ni 7.284763656418008 8.268268784868274 0.7009523907262747 -1.504530637117454 -0.3378576106809859 0.020243837850700618
Ni 5.635077504979976 8.52471066745655 12.56228999631497 1.9284492412542658 0.1833674779184842 1.353452358249979
Ni 7.324299149461929 0.21465645546522671 10.018089653435656 -0.7388342613096437 -1.444034893725242 -0.6519816251904578
Ni 2.383487017470341 4.230316497341177 11.154909844256695 -1.9685849329328873 -0.9430454154463564 -1.307517029170445
Ni 3.2323240799016006 5.937820613244957 2.6121172409438858 2.3788808040799414 0.3849478793005693 -1.7009251234232254
Ni 5.496426840112034 3.91320792075756 8.021781525238177 0.3649632086485263 -1.5458300100868732 1.8125135717261944
Ni 7.815873668091462 6.673739284782819 5.510812924236476 0.47329021259140425 0.9871853431883645 -0.8070533414880423
Ni 6.9073163645677855 1.6713889724595339 1.0890814812303884 -0.6344893819429653 0.24462658183928193 -0.17561277367372982
Ni 4.224712746490202 0.890851137582343 11.095578492228348 -1.2737095937026965 0.5738571129728891 -0.8075835029598996
Ni 8.690208733976743 1.3260835960254405 13.436040322981018 0.7693936221537395 -1.929867204647715 -1.231247053663112
P 5.094371772785788 7.1941665607203 5.597671062426593 1.9776832956897292 1.9632491225422704 0.601191539121784
P 0.9033480642292673 5.402671777797639 9.616509686725037 1.927285302853152 0.7208283116505263 -2.4392024837881348
P 1.1176015743991896 5.079837629692372 5.913791954495675 -1.2125862440288149 -0.47281918649225674 -0.8973350578934352
P 5.506078785557693 6.697559911309875 0.07193510603262829 0.3935885856947028 1.197728353080376 0.8640971217759117
P 9.146801978481374 7.881075839364181 4.055773714564529 -0.20603278072648387 -1.5921566610675548 -2.278897287005753
P 0.6789253393043642 5.216079993609311 13.566786700486423 -0.008094604082676381 0.4982124297543807 0.2505807425401878
P 7.9783730719489245 7.865642097471946 8.769873830104636 0.06200343828598999 -0.34876165918799934 -0.721269512953003
P 8.161057223854883 2.2384641944440973 2.792320936578517 -1.1425537647907613 0.504771313918821 2.5262474384237845
Ni 4.057631011251257 3.5183964979259703 3.9247527720090676 1.569327578988181 0.6553207168660198 0.6074981980661022
Ni 4.494714206806508 3.836348448383481 10.821590684734778 1.1640749266919888 -0.27788097301703757 -1.7843677054195979
Ni 2.761384108719973 6.18139635884596 13.935133988237345 -0.34508626721894115 2.0522139199084526 -0.40372875945249825
Ni 4.081386042032565 1.6465000723588814 5.720339792384272 1.9295275619201095 -1.420976983464514 -0.07027133472173704
Ni 9.203064386690832 8.6384536905822 1.714584708116149 0.45665054715219416 0.854066219902471 1.5721519358108536
Ni 0.5474077432453879 0.8069204438167158 3.4010953741345773 -1.9580328684486539 0.9023880469363104 0.1565040778687369
Ni 8.938647935583859 4.62360047637894 3.633320244475069 0.21087468219981745 -0.08703955531901139 0.4104696777207576
Ni 7.8821441129377785 5.998627869552614 13.050493830695178 1.5113155212497713 0.8738076641954564 0.8605284305880471
Ni 0.9549241249461281 3.6695197253067033 7.455181403869239 -0.1806091984470567 -1.4111977925905632 0.0813936698871437
Ni 9.290775269575661 6.597919973519875 7.345076133386313 0.055011066128556864 -1.008830946482598 0.6850696659936782
Ni 5.112841660624037 7.747007505877721 10.676580980857683 -3.3607341935324313 -0.13620393285880414 -2.8588898234524183
Ni 2.0113810934881045 1.1964570316081478 6.85044016759455 -2.999165355277435 -0.43142828225029567 1.0007836506980892
Ni 5.576800370293998 7.744430530151938 8.060430538632428 0.4565505312392202 -1.5813487718187733 1.5275702925457368
Ni 7.032885363569572 6.9253458238274455 10.868195525006081 3.474270766700707 -0.6739596721234458 -0.7736747660275965
Ni 6.957066052306628 5.911657281512644 7.77519680907154 0.9467043523551827 -0.1903804189012076 0.05277446348855427
Ni 4.978960743553996 2.949362774389812 1.7464586180567967 -0.2511895797687803 -0.35999763711313487 0.06810826563214721
Ni 3.572259976005245 3.6157874387189235 6.302656654434239 -0.5745597954668685 2.6038520735821415 0.7163062554104567
Ni 6.40042992471669 1.3455280492290753 11.69575332751695 0.988006553538079 0.923373390938726 1.118451472425919
Ni 0.4881129374182455 9.076801946948288 5.559611473661985 1.219500711760461 0.562915783470037 0.5670418898232686
Ni 1.6687089177047199 6.2835945307201015 4.115791010676973 -2.1074689837270157 0.38896317110754947 2.3817290721620146
Ni 3.1933320944652994 8.304365186670877 12.175797051126208 0.4729171455227017 -0.7790468289727873 1.4412820135704534
Ni 4.492287164213861 5.808934343672526 7.313408381503729 -0.3920158418909442 0.46694652976156353 -0.08752600803712668
Ni 4.4946579818815815 0.8649314471913772 13.457861216344865 -1.0893154742919111 -0.3851587097597947 1.9570504499307262
Ni 3.1034940352540956 3.972581441479599 0.552681641203463 -0.34265554629026146 -0.4154501616544845 1.6135083872704534
P 3.3295932000238806 8.751643835279408 7.832156406350082 -0.3179436453658782 -0.49711559714577613 -0.5899735589187775
P 5.726855324101134 1.9950758652595142 9.559989580943 1.4066973336170483 3.4804493847075926 1.7797646594299479
P 2.9435153821974898 2.4505446112656233 12.884636861737544 0.24438926901749525 -0.5669020218112947 -0.9075868175284305
P 8.201595394726652 8.397642337123399 12.465035869506004 -0.6167343719523894 -0.0033948846141618953 -0.6292726136287162
P 1.7160409336717368 2.4284669574112794 9.633955343847546 -1.2192914239631323 0.4461581322613026 0.6742532921044646
P 3.26947938445698 8.473068073911861 0.7429355421686483 0.06822679348788249 -0.9028127931785548 0.5151050917446612
P 5.498760174496469 5.67736801934528 9.510656894730694 -0.18351223102646458 0.3430916053864156 0.11388907141168772
P 7.8103074005237705 2.9884953221384287 12.460001864560947 -1.0293465499374468 1.0514654933236731 -0.024019502843048955
