# total energy = -340895.17769614694 ev
CRYSTAL
PRIMVEC
9.04386858215538 0.00000000000000 0.00000000000000

0.00000000000000 9.04386858215538 0.00000000000000

0.00000000000000 0.00000000000000 13.23661583823670

PRIMCOORD
 96 1
Ni 6.175135448911012 2.281460577147246 11.502103430430445 0.045447590809837866 -0.6079054608068498 -0.4101997118888226
Ni 4.575908149723062 0.2793470158757983 6.213665042660549 0.5144941976335397 -1.2419019622737968 -0.8100664172827532
Ni 2.89445399647066 1.3621784571418307 5.093555679070685 -1.500425870920461 0.36966729899241496 -1.3150398199100513
Ni 3.5014422869886634 4.462127237824156 5.023467505552354 0.21005989960800597 -0.38675973569832744 -0.7958009085026746
Ni 5.152762269789816 4.591183243928391 2.6251917985631055 -0.5735897182441153 -0.18934529276847392 0.532927721748379
Ni 7.362568275362861 6.117001461017668 2.6167601997900864 -0.3414802950352377 -0.07907402061503156 -1.11370290199734
Ni 5.257662102642166 4.587203941707939 11.791905158503615 -0.4464715497366633 -1.4775625931690424 -1.0332291728213046
Ni 5.599854961995073 7.9878794438323135 12.293744909780491 0.7998208282953451 0.09469758608490142 0.41662129914445023
Ni 2.1339822105360495 6.392776148763741 0.3731029937371434 -1.202477180619271 0.2870847510034927 -0.7786115412075817
Ni 2.626529386741298 1.5161864969420433 0.5309899488154295 -0.043825738935698716 -1.1745771117748933 -0.7365791467268799
Ni 0.3792528244414798 0.13136942771330845 4.8544629227022424 0.4375634486137561 -0.8361474306405213 -0.18845157730961096
Ni 8.661186423401638 2.4213330501961683 1.4864719619976792 0.21631205116530486 0.17585574292247133 0.07368858793340212
Ni 6.87147716201555 0.8553998491772528 4.785248386898673 -0.011689777633102449 -0.6093565914310797 -0.12731151546518074
Ni 0.6208896210704082 7.305483376236727 2.4160270124399412 0.5045967360141698 -0.08117101235337633 -0.08907278369895627
Ni 7.753082525088223 3.8993905967713256 3.7697349821734174 -0.3918896007257251 -0.7765063219391207 0.09050668793200542
Ni 7.799477571431231 3.894326030308931 12.47978633245535 -0.5226530792952483 -0.4185593967074276 0.8143578455692555
Ni 8.015291409810024 8.922382394830962 6.966603285982346 -0.5225648904568162 -0.176528857730096 -0.35455255483816356
Ni 6.733295892410322 0.9151852474920855 0.35369666031748886 0.3189790286089281 -1.0581030532448488 0.4185033466585115
Ni 1.5115379484390599 6.5154562274465695 9.24139491436286 1.1822919639206477 0.4532914008719742 -0.7254874076890925
Ni 9.383556390575412 4.831695887680042 1.4553257826408201 -0.6897691283518766 -0.05333804930150813 -0.4360760654349522
Ni 6.314682342687351 1.7766770466141044 6.8351895433124925 0.9559197003058634 1.0795445109480764 1.7800436241229474
Ni 3.508306583318945 4.427697229748555 0.4480260194533265 0.14210101506952946 -0.19418308047674945 -0.04692494668631273
Ni 5.969315085426765 5.609821305283571 4.755082562907035 0.4141648671841577 -0.18331399897272943 0.2183835889823529
Ni 5.469776998729675 2.930575207989954 8.956106076762431 -0.18565216018760286 -0.2026612931510897 0.298898198698653
P 0.23396850037274194 5.581821487841475 12.25248678084934 0.5452224799553319 0.45472196267091364 1.3102693951046014
P 4.22163268180987 6.2785611311680585 12.453365574485279 -1.7709817710309952 0.30478036851104284 0.20308141140764382
P 2.345292202310785 8.38536651631215 1.4385159439200113 0.41346038491796533 0.1410005829164991 0.45430364418657243
P 6.386798151564379 7.838782224726887 5.721685821408582 0.12567449408239004 0.031006475683843373 1.232543146766716
P 4.501766514261076 1.0915678184136632 12.719977918868759 1.4283239107478884 -0.7513295655631771 -0.6346133091153394
P 3.9895760552766824 6.21539875228705 8.209984197266897 -1.0546415770588093 -1.0707734496236658 -0.5514023835137987
P 4.7132664272781515 0.9208286215501824 3.8978395732922175 0.2182825446281144 -0.042402890446243104 -0.08442422918335138
P 0.24928429198714444 5.4534889912318665 3.66016218237264 0.6854800140582195 0.5215711590849792 -1.4806954823710692
Ni 1.575812723168058 1.0387335375684672 2.8528612443982437 -0.08662715037194113 0.006086829624028227 -1.0100437358437764
Ni 1.8635976685249531 6.344762249926503 4.847090360951985 0.3566726865049599 0.681670153393826 -0.964048757170901
Ni 5.893608860682648 5.7247869639799305 8.99692829122307 0.5961681177652636 -1.0055363348917261 1.0546536612436677
Ni 8.599254010661497 2.3695207265121336 10.265128291333957 -1.1722566911718326 0.20175395084547187 0.43216670307821703
Ni 2.2589956073390525 5.4145460926835245 6.9698853059273524 0.19125510819667707 -1.0714252242750515 1.2929021074707476
Ni 0.25571629139438573 9.027634938561942 9.331310865581468 1.1520581047367708 0.4050068548339735 0.5534487245198663
Ni 1.3333104283061812 1.2329053981892064 11.359836140954306 0.9364564493749292 -0.39033434042346327 0.4614086306624699
Ni 4.165560695976215 6.957629055088357 1.594032501016523 -0.1235214522951292 -0.1279974857886118 0.27689701183721344
Ni 5.707133332311012 7.8345044748399 7.948746624041631 -0.4643155198966197 1.0758061269515666 -0.061342407663223394
Ni 5.308479600771087 2.8346559367396713 4.91652918469889 -0.28329828737786694 0.4045150027992195 -0.2468323312413491
Ni 0.6506991166359425 7.219367658638651 6.8253018816815345 -0.9538800441680152 0.2344712385728349 0.4087655505454573
Ni 5.022711438130467 4.473115538273815 6.893007900188805 -0.07551458539854737 0.8196082953349175 0.9179041402940386
Ni 8.070169604977544 7.265220072860688 8.83762506630905 -0.10535660846064436 -1.4792009001034139 0.2530600573186158
Ni 4.577029589439735 0.39987374942524073 10.449580706281239 -0.04990022726455277 0.4659754240975459 0.5200827474649108
Ni 8.199967208313774 7.048275750896539 4.665205500323763 -0.05758011240731374 0.7503121800422562 0.5261130128193907
Ni 7.150218238689598 6.159788003756219 6.909368258636078 0.4971287097718986 -1.0527543873384255 -0.5701642375023341
Ni 2.412017865452835 5.148303642529172 2.655490567424381 0.31128165996467033 0.14523518982313696 0.10329098418086728
Ni 2.726590749848325 5.183556642654913 11.006206405265068 -0.28949593154814657 0.2582799109566584 1.2513800769675612
Ni 1.2465616399003066 3.3083195151351346 3.957602361935343 0.030389925145767018 0.04866712618840006 -1.274490180622463
Ni 3.7473179448692426 2.653226887093065 2.920871136893258 -0.08633044506712874 -0.02652555709435432 0.1724426034758643
Ni 0.9603593715629095 3.170020675237028 8.370504726905628 0.9763229465525637 0.7396557287696746 -1.1572460766956136
Ni 3.7170571602564344 2.5252651890994535 6.998900749822532 -0.6357394522999826 -0.25897230903799273 0.6047553452136423
Ni 4.2007503890211755 6.826556266267846 6.073409109579474 -0.15697716085041352 0.41987811551885107 -0.5454489941438412
Ni 0.5991852406184421 7.4499863100512655 11.233969002947642 0.25921116452167614 -0.10362728447436345 0.606194391653014
P 0.15871899099710804 5.359658853647322 7.968549078909595 0.25260445783843594 1.0773536739443446 0.4629538636624027
P 8.550616084885142 1.5777842865409188 8.201460351033312 -1.414626615766454 0.7834025348383218 -1.1953955911821412
P 1.8853662604445673 3.242679116235026 10.44208876546437 0.16337380840537669 -0.581541111880708 -0.81453885123181
P 4.074470850602574 6.198685682961147 3.7618062224991644 -0.32415105972817077 -0.2620406635506713 -0.023409122952559685
P 6.849211157318379 4.08081060254925 10.250144409700214 -0.021589296135001528 -1.179231579827769 0.18121135080742984
P 6.490676027255567 7.841983754240615 10.146527901813961 -0.9492775123989973 -0.8859823518847774 1.0785155554629295
P 2.2130617982988694 8.289971789445474 5.862629992896421 1.1795100303001365 0.9248564032421556 -0.7207609487477007
P 6.9680114163362665 3.9955540524760447 1.5567717620431907 0.9977129821925655 0.15386766868715437 -0.005380547585622992
Ni 5.337854086252976 2.819959650130044 0.6978104373786325 -1.1054018383308126 0.49050297692526484 -0.9964796240060969
Ni 1.329575310540165 0.9132317718565903 7.062674494226501 0.41219051706660625 0.28368523840364046 0.3256073325587231
Ni 6.708452385138538 0.7550472734986386 9.337214703057633 0.5746991492582102 0.7786182260758009 -0.9003892713387268
Ni 2.6574051544245405 1.4357955482202107 9.155767565673658 0.008183050031424617 0.7427225406204563 0.18631036259689204
Ni 6.250127208029185 2.1023196262773998 2.7151737700230982 1.107822274846847 -0.32893408293911086 0.06652420897447897
Ni 4.105871162669421 7.098550616904489 10.201777799984345 0.059847311174935636 -0.24484384005641058 0.14259363843523182
Ni 8.031163399348422 7.115028545644638 -0.057239549280611084 -0.3102164519249496 0.7040804027682261 1.1287292002028433
Ni 7.6162307041793715 3.8897317450180444 8.07659889122418 0.22403795905465285 -0.7670022391034275 0.4878022901646503
Ni 3.1377069324332134 8.316153789282318 12.217859616436451 -0.6576930737529383 0.22415957223418168 0.5520191911621912
Ni 0.13586242167494716 4.722445953991243 10.260931936265116 -0.054425883049048204 0.2376817750903326 -0.41587979299273536
Ni 8.85698618038529 2.2964914868981388 5.747259168883071 -0.7035690103494463 0.8878191479832 0.8525143020343189
Ni 3.59299336966513 2.755558261239486 11.743472528546361 -0.09016755942503181 0.4316331991722502 -0.5066973272969403
Ni 1.1618296342107066 3.606767181669107 12.54575773694925 0.7367503821974215 -0.5751488352011191 0.5074786855476551
Ni 3.0369220598315594 8.317311404473722 7.9540942635938 0.22363018209327293 -0.8726498964419294 0.3476851382943689
Ni 5.706093287412485 7.881876259000656 3.698085836920425 -0.6196232634644103 0.1718013703474396 -0.8686813987124847
Ni 3.0906335959389915 8.215387004418028 3.6695470049048304 0.27315245719311665 0.22760227936714353 0.051976650177607255
Ni 3.4004403615386205 4.059874046548457 8.92014222855822 -0.4423696117531478 0.6640436985613144 -0.028069504542706493
Ni 7.140432772774757 5.9146901185823655 11.264744383688504 0.5323967889455734 1.9318166150646021 -0.2414497267731971
Ni 0.7154016663536393 -0.15004230338278401 0.13922402766436162 -0.6168737257437312 0.08253266858759335 0.10411296586153038
Ni 4.611604299414261 0.28990844572362784 1.671718428615316 -0.1056250316306826 0.5233740166216728 -0.01750278477045373
Ni 5.888191583341622 5.632638985970395 0.5800086214633321 1.1160510905145424 0.8408990863928937 -0.5026612095543537
Ni 7.863345372069501 9.112059452716325 11.452055565526434 0.029154767187085272 -0.14310271686116646 0.2548053221444967
Ni 0.10673573819496801 4.856448956264996 5.7380461798558535 -0.8847744476196052 -0.8386583699878332 0.9600787167795595
Ni 7.869992615551395 8.889119045815448 2.739701646277849 -0.09585278273526718 -0.36669047575227814 -0.6934306363638638
P 8.59796073743985 1.7234357916781804 3.586632816820483 -0.4234642902082127 -0.005533014003087245 0.40097922173181905
P 2.0723482454624427 3.1165352358466674 1.6953328741330995 -1.5120554847395895 1.7518905587274989 0.14602888936902592
P 4.6507732946796745 0.8881350362616881 8.303342244906196 0.6482514687240643 1.1523154721632154 -0.25904558547808937
P 8.59386386492652 1.7472030785767039 12.629518431142312 -0.18460700675254013 -0.06744517812685158 -0.49590332200522985
P 6.341090439241267 7.8282732493174185 1.3936438850631943 0.5184413552067458 -0.16416802217189794 -0.23800496275770622
P 1.8768198045392763 3.35340320051913 5.991408352232094 0.17551969973929127 -0.8229599854159699 1.2522851052803337
P 6.8913465415117665 3.9316500763630433 6.045612779182741 0.6789219012247275 -0.15951149723649305 -1.3630268893122914
P 2.271892164080793 8.526034849805162 10.076824092714649 -0.062121709031409136 -0.24348398359440646 1.058759712992241
