# total energy = -381165.11158001336 ev
CRYSTAL
PRIMVEC
9.22777127794990 0.00000000000000 0.00000000000000

0.00000000000000 9.22777127794990 0.00000000000000

0.00000000000000 0.00000000000000 13.50577602270306

PRIMCOORD
 96 1
Ni 4.081867587307173 0.5686641557244345 0.6100691641663494 0.22442362452884576 -1.8050751131702782 -0.45322815173420655
Ni 2.795950016233813 0.017693328100407312 4.568909340274471 0.4464954609960633 -1.3512697487763632 1.284765337296226
Ni 3.071103691678658 3.358714857962946 12.397573076837542 -1.058909351196228 -1.759645005861937 -1.4830318438137295
Ni 1.3236868377443554 1.7092046542556816 11.704294333303402 0.19646981962839713 0.02678960938901838 -2.0882924107985645
Ni 9.06773375986333 0.6948649973676964 8.228663616869527 -0.28217445818606884 1.3080862714103536 -0.8385159308726979
Ni 2.017947416112064 5.017092949593697 2.5604923660431314 -1.0660984127454995 -0.7009619117439024 0.2648395664520471
Ni 5.985067671131469 9.133214022823843 13.00766900153977 -0.19177858480031487 0.5275379181913753 0.34641732732553887
Ni 2.4879731593697816 0.1543169370793374 7.334068130261575 -0.5922271308396446 -1.8431719200419998 -1.1118661058989172
Ni 1.8451758598254644 5.6284789166806295 7.371965662949362 -0.37919349331529534 -0.9195758715695067 -1.3083760347366307
Ni 8.759147870113813 4.996948725517766 5.605180640479572 0.7905905679463288 1.2347131578348414 0.6410662638295346
Ni 6.104373522289374 8.462105921875516 10.891881375151813 -0.9944499951705779 -1.5164145330392336 0.08993307481672252
Ni 6.330453911597802 2.9183840817580666 3.008667670368464 0.06958459306735758 0.41354600265323616 -0.10200826081370172
Ni 0.2733210401257976 9.196424254120283 1.392539851002512 1.0162802036717917 -0.9973540561912503 -0.04408027814866602
Ni 8.896410963622502 3.9722970345460187 1.9206830187460826 -0.4580507699338305 2.7251556922903455 0.5683552093180534
Ni 5.151818406079535 7.595405986976927 1.5015447414018452 0.49451441207750313 0.7928338554545507 0.9479048004211867
Ni 1.3141730058514174 4.043969131842286 4.68365482700804 -0.47655911315066324 1.5809800756254448 -0.22652832957667438
Ni 7.438884535407557 8.37435904751087 9.104823862589301 -1.1377817973234148 -0.4805929169004046 -0.980450595567692
Ni 3.8223734392360584 9.132198968014704 11.699566946224108 -0.3228791349942826 1.3040437259098636 -1.4227507875354852
Ni 3.2759602077050696 6.689764858491335 2.2414587939762685 -0.921951828000851 2.2677893500180493 -0.7248803702327129
Ni 1.9740878205862291 1.6480060770355391 0.2292455147587456 0.34907636221494076 0.8149849376302933 2.9103255135248913
Ni 3.912178106531961 7.317963824326021 12.941599084012855 0.25301866255771904 -0.7272290729705476 0.49682583381949913
Ni 8.72685067164118 6.9282935108682135 7.159884725013171 0.1487714851111696 -0.8568666654657436 2.9862123946611927
Ni 4.086841355871957 1.80461980631483 3.1338940593949514 0.9536329611542157 -1.7152988756463943 -0.5668413437766883
Ni 0.48581815053373517 8.284129902749326 9.432838824162852 1.1833800547785038 -1.1086257445847487 1.4950676919323413
P 5.131286615621932 3.615726735637163 6.5786228163302125 0.0367786022809302 -0.8697759173282441 0.32814732537175745
Ni 4.276333633196389 8.510597858439427 8.679337801579543 -0.8348497948750202 0.7032334813868985 1.8350703739807879
P 3.3541471113218164 3.6061021704923193 3.692465801985237 1.2632809421702051 2.202250901995607 1.359721479088142
Ni 0.9147369423525848 8.25207262632249 3.4016322980704796 -0.5480247252908175 0.5170269913577225 1.2082341377077064
P 6.312072191781378 6.088926233648463 11.03974256364502 -0.5083824283088471 0.8234608363117882 0.39198293177047977
P 0.47070675275694007 8.87574998437101 11.682212277319113 0.8083365790758402 -0.8126871427350519 0.045084808153780416
P 3.8745749397388245 2.0124107535167557 10.611596136258214 0.7606104766444708 0.34245757134684246 0.2184368108177915
Ni 8.164501079606696 6.0192565626575 1.178259935238885 -0.006528288036821014 0.7754861082047224 -0.6595743499360511
Ni 8.600088781521595 2.7225615535329997 3.8531840438018508 1.390752637362334 1.3442622071102783 1.1880448072440248
Ni 9.126745355358326 3.002144559054091 13.144171726718703 0.8171878588188829 -0.7133132342204037 2.74819457638768
Ni 8.276673863787645 6.181333132364161 10.107019772851576 0.08716528226359828 -0.1329391460646033 0.17666075532226996
Ni 4.60999137673166 1.5416836996636327 5.434575764821937 0.5257988240130815 0.4520323316538925 0.020289860597287636
Ni 2.701180808144117 5.7782271843417385 11.476046340588912 -1.1198946326303487 0.692381369163743 -0.512387435703182
Ni 6.1924618241807305 1.3592506671482198 10.005443238100948 -0.3298856482191028 0.48879627864680336 -0.9803233259612084
Ni 6.729813384597398 1.91705096808356 7.535574965417825 -1.183742066103613 -0.6551965325833297 0.4453826875478587
Ni 3.690157936460093 5.009406216357209 0.06165442910715625 0.86330162245781 1.4181868223138865 2.044715554648879
Ni 4.598419751907465 4.694766908836824 11.092090785706562 1.3789535878448769 0.08239357190656778 0.0768181347013193
Ni 8.514473522256141 7.764929367874279 5.175858595068363 0.0919724738442545 -0.1287780727083782 -1.404568974420136
Ni 3.3213516132156067 3.853092688869028 7.930010499815995 -0.32529391508336236 0.08844132076254446 -2.4251280079729396
Ni 4.3557570581260885 2.664906440373854 0.8908720810126072 0.776122713347457 2.3305571772738896 0.055453810092930295
Ni 0.19420305441593935 3.9645272513706025 11.320379380613419 2.253220451064939 2.0804063231822685 -2.766676694352267
Ni 4.465761316123874 6.871921057876982 4.255683727270087 0.7444924880366856 -0.6313351525846997 -0.2705006213925664
Ni 8.570956708499281 1.9010684687251032 1.6997424978802993 -0.3031706008217618 -2.0626495134194798 0.8329893446275137
Ni 8.039529377059592 7.5554312830388 12.01560241549561 -1.229684080051366 1.0605191188855092 0.28762468266736274
Ni 8.293809834520125 0.6679023733056436 12.96419420406431 -0.11856590806206677 0.30828478211987553 -0.1981181538650975
Ni 6.35774043042168 5.772598244036509 8.887894653773818 -0.9226462829647141 0.9884852929467105 -1.0037054523305746
Ni 0.32325712284998354 2.8073832244931247 9.2660293307143 -0.7983987511368379 0.7908852163686121 0.3910989865036297
Ni 7.137330207154084 7.703315540959488 3.376781910788537 -0.9265291629588882 0.07008364419096316 -0.24773478845096047
Ni 5.200153470536577 3.63801180258328 9.077934137918087 0.7429660240898301 -1.1123684994566325 -0.14602580404523238
Ni 8.710535972527007 1.048440884589589 10.325975400176942 -1.7240948766714694 -0.6250179521174204 2.1568290222173823
Ni 2.406362752714935 0.6909764146715915 9.722672960479157 -0.2547042777902581 0.1380327585374268 -0.553458494711879
Ni 3.8341849861060497 7.137717773535755 6.572517723041785 -0.6664415093695297 0.13121547850527723 0.18468002608232065
P 1.208007500586378 7.067789724957009 1.474344040848194 -0.8103263558123592 -0.032665351443505034 -0.3679631718171147
Ni 6.180161205448154 6.732240288368342 13.341490999398701 0.9612249145688607 -1.587016511627512 -2.130940841596711
P 1.4621956803369882 7.545714440184033 6.551462717968926 0.5504037670459554 0.8297111880968743 -0.8542616237427288
Ni 5.910525737056633 8.303397488581 5.480602963753834 -1.5766140853472652 0.04139398956575452 -1.1320101849469602
P 1.5100139896184686 3.79957161711438 0.9286561121171902 1.4971178895931507 -0.8314983619042842 -2.0948340685718247
P 7.627048013709115 2.43439672098918 11.67822772580469 0.16084281445340687 -1.2749131270924947 0.275264618440113
P 4.457197944643131 8.721332464587856 3.120982562222692 0.6464699513436093 0.784898402657558 1.0630231162542854
Ni 1.1490512717173353 6.125385156838569 9.464698626290454 1.4512890041844941 -1.8677246696806993 0.7033638363171757
Ni 6.643976658828134 5.144869894522422 3.815611328652988 1.4715212720709687 1.3655344862254934 -0.18398300001529605
Ni 0.5344198975724519 6.251178131003977 12.408728529189991 0.9576019731042926 -0.614182294954497 0.842853124795471
Ni 4.085438734681146 1.6174252439674521 7.617189985958168 1.2039799904170425 0.9718641394502616 1.5291111546702956
Ni 1.6956029198132072 2.2881457785341075 7.577847384333006 1.0021676755298095 -0.06317251889342669 -0.17963269346640032
Ni 6.995019522912673 1.3476790423240255 4.965912040562665 -0.03775613570285111 -1.4736861409327715 -0.3341991879927922
Ni 7.347012847409406 3.8383928496784843 10.225330870296524 -0.7349994609445858 0.5643463452689764 -2.2174445790169104
Ni 7.42391709085824 9.095804639221543 6.790919684107619 0.3294891841116325 -0.016296166056862255 1.3237476320966943
Ni 4.898516092344174 4.931689929061064 2.462764734573342 -0.8897988974173902 -0.6799382583043838 -0.8136464213245278
Ni 7.5007290565971525 4.783482699155649 12.389793143114035 -0.2542083119904461 0.6797112298952424 0.9092477501706211
Ni 6.974533871310031 2.639631575626271 0.39284097557072073 -1.9346872517441775 1.234690532127022 0.0822588461009164
Ni 2.4000601851272756 3.5514553106766247 9.960887868642303 0.2518326126694179 0.1606579521361104 1.0511872999616219
Ni 1.7686499549873098 2.6389394928018577 2.8077966286335743 -1.3525820398298833 -2.1974000016612094 -1.60941827636148
Ni 6.2976491857206 0.9008002398230943 1.8860004414719713 -1.2888634186249999 -0.4624329581619262 0.5972811483237843
Ni 5.5669112286208 2.523490849918685 12.024380794040473 -1.9425635691684608 0.18099717791409473 0.1812530026786427
Ni 1.903984444358632 6.340789015109044 4.648890122572097 0.210929703807469 1.6595984967602968 0.9927708076959418
Ni 0.45071847801077736 0.3075763716029709 6.192479356945616 1.700108541059201 -1.448229391422564 -2.982272693287154
Ni 8.937945160858307 2.3048941828849157 6.5196831974489555 -1.663737972849967 2.019180643602567 -1.4070274632629574
Ni 3.5476719245698307 4.912117826786648 5.503657626800699 0.8276789881581939 -1.0582354650576549 0.39243801703002734
Ni 6.668679401774201 6.0930233639689915 6.042862123632597 -0.9851024925174066 0.22008231684101454 0.3468682988200284
Ni 7.28609110331903 4.07013909037611 7.452568397011862 -0.04964183139684354 1.625281725756298 2.561450468687479
Ni 2.1580988019413048 2.1465456326590946 5.137408318898146 0.7892296830430601 -1.6416108019336246 1.326973852343476
Ni 3.731267656230258 5.833206243913152 8.908058256168832 0.32127836616606603 1.4478311275428808 0.9943867460328101
Ni 2.5848647547876786 0.08708155207611024 2.251750526963848 -0.5685693822113885 0.16104747426504523 -0.8444163555175328
Ni 7.410610645087516 8.331385318000285 1.1648030768009878 0.8570510135624078 -0.926246598721463 -0.6345012090175073
P 5.745773113762239 7.586381226946574 7.632329989825038 1.8989106083652008 -0.8463935338485616 -0.9344134508029712
Ni 9.110781311541853 6.208638106730024 3.3857900608311033 -0.5359816780833543 -1.4690620118971989 -0.5521094368831524
P 2.52723732494151 7.656973675036757 10.20721952417017 1.5375063207125264 -0.04946648216124384 -0.135261880660509
Ni 7.1213846188795955 3.5439439050889896 5.37899966846733 -3.0353744582081403 -0.31142821284486366 -1.1133244356119987
P 5.91922752510226 4.615002056380414 0.38322748375106686 -1.2524810233412236 -0.444795190475505 1.2503246391198533
P 0.15693670126401751 4.118363421581248 7.638461843649343 1.4143947022613061 1.4878693744116893 -0.36132844010941645
P 8.536647855950353 0.6867288716838906 3.5860539152347073 0.06710502117861346 -2.524842587656458 -0.7025876202727835
Ni 1.9546079960217357 8.55593389732401 13.331943024753093 -0.17913261390153018 -0.9126588327346992 -0.34634713620923574
