# total energy = -340862.0588631597 ev
CRYSTAL
PRIMVEC
9.37407630945563 0.00000000000000 0.00000000000000
0.00000000000000 9.37407630945563 0.00000000000000
0.00000000000000 0.00000000000000 13.71990822504509
PRIMCOORD
 96 1
Ni 6.205535408480609 4.152668939030508 5.861130907105029 0.8797322572100075 0.7448254458960721 0.738226966742948
Ni 5.248432842212471 3.146821175902453 1.4413860970714072 1.446834053736934 -1.400828533541097 -1.1901603109251309
Ni 1.267122018297206 6.233038948401184 11.11925841904683 -1.002308571983048 0.2067560320457536 0.8506476811392253
Ni 4.362142048459679 6.453760949413413 7.371254293602341 -0.20439036002705444 1.365195871939152 -0.7377783092413036
Ni 3.9200981055507915 4.284102863102217 2.6372548238586306 -1.8062714474712247 1.0982806539049987 2.0145775976129174
Ni 7.585249457447902 7.714883558866322 0.3563592609054738 -0.34095938953476124 -1.259304216910644 0.23436299512974476
Ni 6.7544063251232656 6.778394586424136 3.585053619379948 -0.36077051072341737 -0.21064379713593404 -0.871255587197564
Ni 7.677340383207866 3.729691867354903 1.441743249379169 -0.28120078141888993 0.6269069416100171 -1.019964337391598
Ni 0.6720294061397644 4.438559518613918 9.771703076300234 -1.2986845184804794 -0.8129463099337096 -0.7853087507220992
Ni 1.6530152440539978 0.867735747086537 0.7253894607716301 -0.05370031773693332 1.463713603101092 0.9535679122442352
Ni 1.977198925401399 7.973195605918602 7.7732746802587105 0.4779868467361252 0.4092365766446049 0.5598908806007842
Ni 8.775400935088037 0.2223999606733683 13.452823167207127 1.0232476361285603 0.39166462919911255 -1.2364406820489093
Ni 7.641147074539378 8.773413630908362 9.423889223367357 -2.1474025866971598 -1.3478434967036337 2.0023646004864935
Ni 7.529586192264405 0.8937338103502469 11.384189501388107 -0.13647389869073917 -1.316286804943275 -0.6588055900908267
Ni 4.263957973092225 7.263353050722389 2.332206444501642 -0.48183784505109917 -1.6070988841996836 0.511035549660978
Ni 0.4722350305101823 1.7260580467333184 11.383283965615671 -0.04461635315779413 -0.3711091736452641 -0.9640796104088363
Ni 4.450792688210493 0.93483257315658 5.0734713321601195 0.1218461214752353 -1.2568842946152419 0.9095141164581304
Ni 8.607089394776537 7.665782147106276 11.651604713953978 -1.474756748289131 0.4422405423744513 -1.365607248444958
Ni 7.387512691570387 5.876280351844511 9.918807643754773 4.0294930381812275 0.2764606956307432 1.3553413477425755
Ni 3.7055067504513293 4.299045140755045 6.134047765062645 -0.038831371044900864 -0.13835517487385204 -1.2381643496082353
Ni 1.6523215624063758 1.7039071043910143 5.706068686263107 -0.7305833341547611 2.3011787241117725 0.7239784272437338
Ni 4.096480725573135 7.8257226372647155 4.730898525297315 -0.24335311444349703 0.39163403307149325 0.8100525333256823
Ni 0.8300491480603982 7.607606629469228 13.184076835803928 -0.4414139327080978 0.6037081348960506 -0.943800034224194
Ni 9.035597171480477 5.184604756554937 13.58390275119397 0.2885819043743094 1.3019973849037962 -0.8560205154153645
P 9.117948431944779 3.9443207187596423 11.654170398642545 0.8608580460133238 1.0680956456811863 -0.8233327953743562
P 6.277968896199179 6.5589193375623625 8.393400763226614 -1.4020153547603467 0.4623195725125135 -1.698157330870101
P 4.599390546022684 7.508494520546171 -0.0002971582193191054 0.12846182701954006 -0.709604417910249 0.5732696159005353
P 2.343819050245885 0.30252487801185585 4.338742479151656 0.7946817072965668 -0.6924713577743882 -0.9670443494641151
P 6.21350337335194 3.1640226059482126 7.830500603964619 0.7416285362253293 0.05146474353819524 -0.23369065165306846
P 1.0165904545898745 7.894547105600391 9.78394093293497 -1.0081722298526767 -2.706979792712267 0.4678885819598587
P 6.714079048798004 6.488323168802357 11.783192372877322 0.22419968144349775 -0.19955128676719827 1.7362870478622872
P 2.3725318460116402 3.0215553940487876 1.5018085808021693 0.2752823590519259 -0.10292922996607436 0.25043367543936224
Ni 0.5661098429936938 5.167431448738136 2.2888925874610786 -0.447464509777552 -0.4850468389067002 1.1533508554062653
Ni 5.207111913797371 6.066067901003332 10.373128814418939 -2.097754327542413 0.026558467214818776 -0.3284648566121763
Ni 6.603811789055082 1.7628606703625553 5.667557168520878 0.6023300236016013 0.3429769341854222 -0.18189217892453838
Ni 0.2496466509027977 0.2158709165170353 8.810006275228048 0.9496081562655388 1.4970739237290926 -0.8588705832696498
Ni 7.776405621749327 4.869260829176555 7.9813369912018395 -0.5433365757865287 -1.0526561711976647 -1.6000602321853477
Ni 4.608642759349748 4.37752490769951 8.42033342189935 -0.2731272603821361 0.6630283699229227 0.14680613385468264
Ni 7.933487018630408 2.6287347258920963 12.668935720573069 -0.5744767488347591 0.11719268186362397 0.9797168027254611
Ni 2.328642420685077 0.0014548566447421187 10.213415176907423 1.0495109407004635 1.4222833609807635 1.3489387866503413
Ni 6.086147172479089 1.086436697244343 8.001107855566694 -1.8763985433056136 -1.952915087606114 -3.043320452528094
Ni 5.728629275740562 5.510119556739666 1.3620373532521506 1.0717972629024897 0.623827531353745 -0.27145424355508735
Ni 3.1760589199420837 2.281237716738808 3.6928508100127573 -0.8636960296827512 1.189420861655945 -0.5159633259798985
Ni 1.411332808392005 3.8944975031230165 4.396915184565806 0.6185881373316766 1.1501883985178836 -0.04578800486839211
Ni 1.9364873119470498 3.788420455494783 7.557501254135395 2.969259054636306 0.6419409531250042 -0.5684662809746209
Ni 6.369206781014096 3.7253516700191067 10.110694048601468 -0.11779483422399713 0.316991308754938 0.275564409068719
Ni 7.625567359696844 1.9445958879631704 9.266357870822954 0.42787501768139863 0.5217393092317272 1.6961984073715173
Ni 5.37149571613112 1.9753053619849177 11.626181281568634 0.06418296243581205 0.7897667864934528 1.658979375119059
Ni 2.457685955295386 4.357933088192352 12.189932606960415 0.7914991958035272 0.6297852915990766 -0.5059583922483867
Ni 2.7706582413650067 2.014010923106955 12.114939996406697 0.8645869169281367 -0.3988904575235904 -0.3283252457105184
Ni 5.558649149844241 1.2936319061279455 2.920296621648631 0.6513974705522136 0.39904652348548053 0.49560173160441096
Ni 1.1331664676956283 6.571386859066918 5.949075678909005 0.6905060065179011 -1.7114321936021366 -0.9881453931087885
Ni 8.108444779052231 9.257172213437755 5.3402819168033995 -1.049704030547876 -0.4065873119472159 0.5249534452936507
Ni 8.080116320415563 4.749994456167188 3.8759837023925674 0.1699316641285525 -0.42569549353157654 0.16661648371239046
Ni 3.517200305350945 6.92207105416874 11.847401046033413 -0.6949110775641323 -0.5634297469919781 0.37319588097096373
Ni 1.8735122672345657 7.7616133293176075 3.2638705798623278 -0.1153815967968142 -0.14639398601792852 -0.3618501169408413
P 8.349292921921814 5.9032308212622535 5.785657406436136 0.027653757161526564 -0.13650526614930686 0.3076376354541799
P 3.7625948752353464 8.745910090987786 7.038326473864376 1.7169765204591332 -0.4848277809173586 -0.7062537562704612
P 4.634908921196188 3.698598056204068 13.1671875624996 -1.397019444207652 -0.7701680384259187 -0.8828072965909053
P 6.120071954678328 8.734614329023133 4.228160250444407 -0.11037308783862927 1.2670712624505727 -0.3129441352687578
P -0.1020490070338668 2.3663449556409586 8.269386420561563 2.641913142119921 1.804482731001918 -1.258820078185374
P 8.113862995164737 8.635258494115776 7.482440212824546 0.13761675404593074 -0.11848157587837659 -3.0849018755143063
P 1.441507960063557 6.381833661816078 0.928887533954934 1.4965429909262873 -0.8892571659813073 0.32560784677935534
P 1.7226552570294436 0.07572941295240773 12.470888672769389 0.14733578110590756 0.39558221908596386 -0.5935553627327648
Ni 9.013427480985536 7.30379281596348 4.062368461847513 0.503561866991752 -0.6716011991935982 0.6952764313233509
Ni 2.7593343571713955 6.181575269408696 9.220299284236123 -0.08355339654262384 -0.07480418959508406 0.4122632792860706
Ni 4.245228568606434 8.184806004748554 9.425782786783838 0.822386629411003 0.5081492292521185 -0.584901800822825
Ni 6.566952920967929 4.452039440360948 12.784004382206694 -0.16116111702477406 1.0551989922241762 -0.3571308570883011
Ni 1.9558541536225473 2.0551068736903924 8.944337726290026 -1.0346967585057665 -0.8928189151906366 1.670922149303232
Ni 3.414469802968671 5.271052488370735 0.6363516716688333 -0.6672748039041024 0.7207005278234104 -1.353403250179598
Ni 0.7319335034500739 3.144618267967438 13.403883926967401 1.5584795805300837 -1.087143663451573 1.5421762153843697
Ni 7.774249584195909 8.7533812298142 2.7134960613780676 -0.11638124170592215 1.1796519551946394 -0.7405707843847762
Ni 4.244328657279789 1.1552330433510598 0.1459581179207003 -0.5321031689645546 0.23895112872105945 0.670351128836581
Ni 4.377468663241595 9.092582181424984 11.830360850100345 0.25468602295781295 0.3961609744075693 -0.07648234862845536
Ni 3.475016961914479 1.428843582956298 7.338325975715836 0.5570986625676277 0.35526680729636884 -0.5823839194969777
Ni 0.3755554943919616 2.6682933279591823 2.3173475961280547 2.6582494173860995 1.6270205628242753 0.7194394017227997
Ni 3.586952807242221 0.225328422115491 2.56453917644285 -1.0222109673339297 -0.6808319737632468 -0.4920523236902558
Ni 9.55040269477911 3.9812077090757523 6.598164845480388 -3.2584315414067624 0.5975488001628741 -1.1504768762925799
Ni 5.7001789541117445 8.872919451036827 1.5402788526085944 -0.5871471452135759 -1.590791405288912 -0.7686716563860504
Ni 6.1610929126512115 7.883776291909612 6.2786550785857465 0.13060124196004605 0.16972160500027547 0.645611717108372
Ni 4.280165751048147 2.2495158424745854 9.530588709663187 -0.16275468676413904 -0.1178323723301519 0.20218666750751632
Ni 7.669391166489173 2.2717042811221666 3.2346197121158498 -1.0678359642618964 -0.09058253547526335 2.18911230773112
Ni 2.672117951097422 8.129377091473037 0.7659726493804062 0.8608647308815431 0.385461071491562 -0.05394251565472645
Ni 1.064248258596762 8.858042791918233 5.83284088218127 -0.5985620719187369 -0.5157108436494602 0.07434601901174293
Ni 0.2619201290275455 6.4251043981055735 8.109988689422005 -0.7136158530624871 0.018234006509523434 0.6655891886715634
Ni 0.19029937372584957 0.5662832634055993 3.6660831350832397 1.112593213872929 0.35526552174478815 -0.03155720598099081
Ni 6.591297397168931 1.1749560999266875 0.2981565584471018 0.30759007004569605 1.5841103937243104 0.4770054566594623
Ni 5.003319494617644 5.48119115721857 4.298543627671967 -0.1309092601187681 -0.1424368011423934 0.30404734699976027
P 2.889099695658284 6.035780260415949 4.129349049371197 -0.4763004601726378 -1.1801738891363804 0.3648894179877974
P 2.73648035910515 4.075014090802133 9.44075131185036 1.4236038795644 -0.8301978979253057 2.2743657176839864
P 7.958618917242222 5.978870243081997 1.55646881981951 -0.8824337153015704 -0.4522948412866598 2.003340077025885
P 5.31516689152896 3.0813526268890583 4.244760802198105 -0.8274835843179362 -0.18736528622396764 -0.41477344730243404
P 8.496465920133485 1.35588514696385 1.4790333249770053 -0.7242201109408947 -1.4983635890747937 -0.5319170210956775
P 8.994688702423426 2.7662430514186567 4.982960875667574 -0.3283090477606023 -1.3803234716092099 -1.3274248238379656
P 5.745849453938959 0.5806340368426851 9.956208333453176 -1.0891061864945826 -1.1419516124303881 1.845441175692151
P 6.499581434461734 8.901913469092158 12.653898764749416 -0.4479900432637188 0.014270650986401229 -0.4078294118844331
