# total energy = -340897.2584074032 ev
CRYSTAL
PRIMVEC
9.02968955170404 0.00000000000000 0.00000000000000
0.00000000000000 9.02968955170404 0.00000000000000
0.00000000000000 0.00000000000000 13.21586339393372
PRIMCOORD
 96 1
Ni 6.475795243263607 1.9053818450469466 11.419602550765537 -0.5391986423587553 0.34984692183237814 -0.5501224883601107
Ni 4.6619925079040545 0.292566450742104 6.009121030811837 -0.3558633032297871 0.10064249081442668 0.23964172703018083
Ni 2.574210937390202 1.352033450178754 4.998464017316344 0.5599145347498681 0.5198279511416274 -0.550467016183723
Ni 3.47926573359186 4.2517376006335885 4.9153096078200695 0.3660417864246857 0.5256247603290626 -0.4968546301749056
Ni 5.0026826881944695 4.626659333361877 2.422123879170444 -1.1345625190551685 -0.23686390717472755 0.8085029294503754
Ni 7.302363979378219 6.1241610794451775 2.4345207397196282 0.10155266133352188 -0.735515738459372 -0.2700401368163801
Ni 4.9108778362725864 4.508514877519847 11.50824159359095 0.7193591833041675 0.19434017487990402 -0.5023521629543671
Ni 5.359942348496358 7.796071275894485 12.462162359807918 0.8731484333449028 0.4003618998627943 0.04469091514947142
Ni 1.9512526670950598 6.514902827966437 0.4478581457226639 -0.7756563152339996 -0.3570665795092689 -0.4933173064456085
Ni 2.7910408684613315 1.566750433935069 0.5553990373262885 -0.09144025548986832 -0.13269591970554567 0.12609666922147317
Ni 0.5287984753830726 -0.11456689290985224 4.6340365895849684 -0.5325333145234377 0.021861318849465575 0.14259415265586411
Ni 8.417232638003096 2.23406253846256 1.2243996937677553 1.156409182616615 0.7977058388348713 0.6605182019065592
Ni 6.825054598775215 0.6817099442431831 4.571723606145634 -0.03374032967523866 0.16428783557921384 0.973928221068142
Ni 0.9118451226150797 7.392913704476344 2.4699920685093137 -0.25525140854297973 -0.1513184199027394 0.30468343792186237
Ni 7.7880709711042035 3.921585067849108 3.758300291829771 0.21596443801789902 -0.1961911120457137 -0.5051533798485881
Ni 7.4558054910049085 3.704276563240862 12.665250909581248 0.7974106761919558 0.3596821627552451 0.13731439231416354
Ni 7.958081962742368 9.021788401342716 6.8488035848123685 -0.3093764725221575 -0.10492080647480641 -0.04290091312858418
Ni 6.8163138594558115 0.6888307572878961 0.2683425030435857 -0.37515069070448936 -0.7926078554866737 0.12511810735828777
Ni 1.9237843520024691 6.383204808365703 9.227658998413887 -0.18190657710224156 0.07208884754645004 -0.8679208663973763
Ni 0.13160230489331093 4.800715625842079 1.4450491834464347 -0.4289309697497387 -0.645951616946294 -0.3189350627448701
Ni 6.301287466314427 2.0776863777875163 6.883270812143048 0.3151223738669992 0.14969579669765187 0.06220835520794448
Ni 3.2129892234783153 4.318159995709556 0.4332183103315998 0.32286267993405043 -0.5193597532559572 0.31709440999170546
Ni 5.908351503273938 5.453318366370284 4.652631428924275 0.20149298387460138 0.8461235680166268 0.14532029333777555
Ni 5.3009423580903805 2.8887691966161997 9.235998819524838 -0.3010437842867461 0.19098411392347753 0.22094363640004527
P 0.1496093114540092 5.386272922727126 12.528902599950046 0.23175306831072343 0.5438644232655407 -0.6818655572340838
P 3.873032428055269 6.128892636680063 12.642123166173407 0.7500962073767082 0.47784954982731254 -0.2521599141018496
P 2.562634875605619 8.465830426243834 1.405189425618288 -0.6961058692031818 0.7905134348514901 0.26016324402230034
P 6.459126436668958 7.901185889961824 5.7534995541661615 -0.33089943419559786 -1.4992709313804116 0.2515366786955539
P 4.6876368257419765 1.1528836509127827 12.67886316632092 0.6698903871500785 -0.7377001477052004 -0.020923380416228484
P 4.009236262656398 6.286036320952368 8.114156531792133 0.3240253327835839 -0.20689590005772757 -0.12757479642889644
P 4.716107436355697 1.1262099484855925 3.952600244929986 -0.029912471288716224 -1.0669970133003688 -0.5419430378731118
P 0.46667782432752164 5.454654760398456 3.4962695416624907 -0.9362404767093812 0.10188973295796647 1.0983423603808697
Ni 1.2064658276910314 0.9973382216606573 2.464388243280365 0.7959554318026679 0.10770788230164031 0.27373249806630273
Ni 1.8366568791791928 6.67050243535484 4.785992717308723 -0.054531555388977054 -0.9925059840703293 0.16430171953628475
Ni 5.978268388139791 5.870688668871835 9.283099485266446 0.22685434545752545 -1.1637142009184605 -0.24237609524220838
Ni 8.637954365196812 2.3770025213408337 10.210641819898935 0.1753939727947044 0.19709408347595733 0.03544239996800993
Ni 2.415776007536621 5.29351995342039 6.878486882709763 -0.151969423223177 0.5944125685267375 1.0622643837113899
Ni 0.44418306214518716 9.171816690383936 9.186505286097649 0.9195193072999583 0.26750168666524254 -0.0966678224373948
Ni 1.6646051777412507 1.2926451831294548 11.47764629706622 -1.485917650001957 -1.4420885686321485 -0.6520392179012706
Ni 4.149449279342048 6.991453714661559 1.7102647050578823 0.5132256153337612 -0.9976073098526368 -0.6484054778034253
Ni 5.648955616467609 7.942009115646768 7.9900732492451745 -0.04946185417555353 -0.006618019537149893 -0.548885530629216
Ni 5.505979514831817 3.065010673926253 4.53284266664623 -0.4226777897511753 -0.8442785443880879 -0.27662447490211717
Ni 0.6866157744830926 7.549976121544233 7.036865828489191 0.31616135665447487 -1.3441691331758396 0.34367241759055006
Ni 5.094875816759673 4.540299384135862 7.205856465227466 0.3258191914592131 0.32710294326764316 -0.35762219490242275
Ni 8.01737090320849 7.393627049937328 8.951936530240394 -0.09252243281045355 -0.6634073505288961 0.1671196486010541
Ni 4.6028570721573825 0.373019177176017 10.616447799212098 0.08581133933886512 0.20589496959703896 -0.7081784840969997
Ni 8.136039081034536 6.794073734513979 4.537653685147654 -0.2099406004213223 1.0819122398493044 1.0645089567711925
Ni 7.1859622535864425 5.967486939020609 6.982125142563546 0.36622202075629184 0.6748251054475345 -0.8118744170257697
Ni 2.327266992238273 5.123418664888431 2.551243019484379 1.1265026248651695 0.13065343535422017 0.7619315094487394
Ni 2.3345720109463293 5.179547214071713 11.455946147549286 -0.8052517695029293 -0.29240822009893513 -0.3755373846199468
Ni 1.1658231957936775 3.2168358711540037 4.024851304500454 0.17874000644880184 -0.14013874913683608 -0.4944570764770065
Ni 3.5313941303800016 2.595855102832983 3.0143929441713104 -0.16319948761104153 0.5967412166599143 -1.156725685415769
Ni 1.0750928769079608 3.4944988195751607 8.252486858242149 -1.2084184858043705e-05 -0.0837454579487719 -0.9025862789900455
Ni 3.744801809176282 2.620488095460395 7.087905244738158 0.17435936088260295 -0.4784830696462533 0.15563401655895776
Ni 4.233262856163029 6.915595294183961 5.76660976017633 0.009960710757137684 0.047929219581111 1.1287662240883656
Ni 0.5880657445946857 7.102536953408781 11.089272133100279 0.0765247718306166 0.16704200128558327 0.8291396318641205
P 0.12490588724943677 5.569340845208119 8.155918845172552 0.013670812618873231 0.9373247109124955 -1.1203299203955546
P 8.48856718410154 1.816358137453965 7.929650179792978 -0.02924398446678189 0.051597926681949846 0.6483334869149092
P 1.8197533006606754 3.2882607141462428 10.27488444795868 0.18121752145501693 -0.09885531700701684 0.8190789051940087
P 3.9720068533445145 6.1390690966108155 3.758736425826803 -0.22621131255688784 -0.20169507258307845 -0.2283957218027163
P 6.842021385119389 3.953378604154503 10.361117981533381 0.041688380877721753 0.4389927248611149 0.8775416773165918
P 6.330173442639607 7.8692569083157355 10.272980989437471 -0.11429324882864188 -0.36235765270487913 0.6938181016102696
P 2.3428522361073765 8.429630401521218 5.958675768124045 0.5990827203088973 0.38330468727019146 -0.10286032440135189
P 6.875593770232555 3.984467824688293 1.668489750112333 0.585203905444276 -0.18011606086072207 -0.6532939162439781
Ni 5.207304479224447 2.9799509999708937 0.5296174682097977 0.09409491950389601 -0.42887980479682913 -0.12718013209363904
Ni 1.3741561891586511 1.1039607938543818 7.0765928498834585 0.21074432726954026 0.4427812453692697 0.2764738082568658
Ni 6.891124835965381 0.868655215343755 9.097324461909464 -0.38456529915016996 -0.5775754423647407 0.5798500973315304
Ni 2.7668142118559995 1.5296745293426377 9.308487359925989 0.33640210918138197 0.2705281321963921 -0.6395457134199503
Ni 6.487497720699504 1.8474292986089957 2.4732030260526816 -0.7962220552004933 0.6684312861060488 0.4454294816253942
Ni 4.1120844246894706 6.97317762335735 10.355448239571961 -0.28146200550007655 -0.22252589328550063 0.37429348491051667
Ni 8.266138845615089 7.243833532819977 0.1294324705354051 -0.5309317743642726 -0.44231767546928985 0.34231770333486855
Ni 7.567159620433516 3.9348135627901484 8.257865844205545 0.03179143347898396 -0.5784519314324231 -0.15117495234633965
Ni 2.9611150679251526 8.282274900536345 12.286457246047009 0.028580125630537873 0.3949564125765069 0.5568808901298666
Ni 0.08904266994067875 4.824590124561609 10.263042913306338 -0.2600184909143199 -0.3556758698093294 0.1466176719929604
Ni 8.529552944195316 2.1807061039188 5.695561455231218 0.2688484305011241 0.9302904297735333 -0.0022011214163768543
Ni 3.428040305741674 2.6953622797956216 11.673849708687644 1.0859059343897297 0.7773447586800161 -0.3415000925295796
Ni 1.0961591422304506 3.262806019785292 12.774809936761203 -0.40823821728707754 0.7238735262347533 0.04012180772155026
Ni 3.17338500585961 8.37225575520356 8.1863552191642 -0.05064533296069342 0.07090691142320692 -0.7072266617066917
Ni 5.800076497923755 7.745234124687618 3.56154336024938 -0.7609447200554379 0.058290251100460905 0.11113284882278925
Ni 3.1006237688391973 8.271484421727783 3.6374947865275877 0.8555700581415072 0.9070648835866895 -0.14678196548496655
Ni 3.5382928130659774 4.499259445905808 9.3009674346107 -0.10013752615355011 -0.48414900968277913 -0.053785678361888016
Ni 7.150574900907986 5.904739627522117 11.52937377564591 0.12520423931419083 0.5602078976205707 -0.7046509305597154
Ni 0.7287076715258641 8.961397838772287 0.18561158597921226 0.26231011516197406 0.21928578908164814 0.09327448048512968
Ni 4.621259579112906 0.33890139882432596 1.7383217558980195 0.39870173855155205 0.30557638204977694 -0.018442265865587594
Ni 5.865686220955564 5.603274417896467 0.38689600381450917 0.21189335327231892 0.25007577787931123 -0.13569845397729532
Ni 8.151245077949698 8.93723438999261 11.194998960107553 -0.7508986486733455 -0.28847828891690963 0.12933008855710632
Ni 0.2797135908792528 4.840057982468778 5.705909479260182 -0.6783899399806574 -0.2638584334857004 0.8317125347976191
Ni 7.967111652121917 8.673197242845195 2.4075598931701685 0.16147787693424445 0.7205796859748299 0.29621113878479305
P 8.470264003729193 1.6611016582619853 3.516384077724376 0.044160753677614274 -0.3920857758969312 0.24094836165674635
P 1.7166252182568371 3.106745898238532 1.8266176705270094 0.30383265988579283 -0.2751723158366228 -1.2349090758957313
P 4.800932338387188 1.0360665594095466 8.250082251960373 -0.4623195725125135 -0.5305101134458218 -0.19275560400160352
P 8.641855191008778 1.579184316210709 12.413250338376772 -0.4341443956298781 0.45685674962572936 -0.34109231556819963
P 6.399693021172761 7.718163115927728 1.2710082414381774 -0.9541320122778213 0.10250062706908798 -0.08879793277101482
P 1.9818813734704928 3.2892900987355116 6.142918453193317 -1.40624893322572 -0.8928479686563591 -0.4821795446612341
P 6.9120105075002805 3.934082157950405 5.835992990399853 0.9379944832860104 0.8148491833833773 1.461298051681064
P 2.2718788775841148 8.374197138420161 10.230373497131128 -0.302125447386699 0.9164445250293765 0.09743709650325154
