# total energy = -381168.9850870366 ev
CRYSTAL
PRIMVEC
9.25247233240478 0.00000000000000 0.00000000000000
0.00000000000000 9.25247233240478 0.00000000000000
0.00000000000000 0.00000000000000 13.54192851270883
PRIMCOORD
 96 1
Ni 4.140684978046543 4.759786414961488 2.0961411579697975 0.399371510925067 1.2118419096636226 0.13132063662457383
Ni 3.928266715422599 8.331111248011647 12.588915872889203 1.2479661661900054 -2.696718777105891 -1.110537616895481
Ni 4.9159681500033985 6.926604434273978 0.787273451011406 -1.6354563522964543 -0.9666165178980773 -1.3767599226276677
Ni 4.455713160197429 0.8111587086542195 11.299466329872308 -0.16643187850541014 0.6266562590517918 -1.874911417237126
Ni 4.671924936527959 3.741838647925002 11.02567549220651 -0.5456001750097249 -0.32112924218271144 -0.1555082896143709
Ni 1.7279639982951414 5.057308919227346 0.9672636481747522 -0.13790446048967864 1.0305706521525348 0.7841180728481076
Ni -0.09620165710454709 6.969609926245234 1.78251009915963 0.8075652481274543 -1.1421027932962715 -0.15416051733722483
Ni 2.4131650984292463 1.4167478347957525 9.830885219135899 -0.3519382571437681 -0.5287000568202765 0.006292517876931098
Ni 7.548731429681737 0.673548536324165 11.25473710228267 -0.006821393797207607 1.3851540602286339 -0.38272618905890216
Ni 8.700932572041571 5.830538042299171 5.685984814638817 0.19344208854566686 0.6683089015955715 -0.7752287407782777
Ni 7.661315514515267 2.747836279602287 7.795126621655261 0.4371731551538729 -0.9114061912745207 0.758911234565177
Ni 2.4311889147717607 3.6627485133788977 9.81972673735506 -0.21883353203557795 1.9403467640228005 -0.05117986530792476
Ni 5.600697374042294 2.676721776312469 4.506930221472577 -0.3884294100912665 -0.6591521747969681 -0.32515327574044
Ni 3.9639905115716996 0.061802815011015526 8.492102418235712 1.4691067490922054 0.18197959643202208 0.061151374698339846
Ni 3.431769791010044 6.521679229749443 5.390811513129307 1.3289458884681822 1.6497221181868489 -1.7170605955325073
Ni 1.2192353052969578 7.206621260654805 6.335239134037654 -0.35699844527549485 2.7110238808746536 -0.3333972609167871
Ni 2.356419684862183 2.874641414599288 12.03017571577677 1.2038853738207071 0.007567013713980515 1.0026019348537505
Ni 5.42402141251236 5.197779956040514 4.170168906771932 -1.0962420262084152 -0.7446871205459948 1.0942604770020123
Ni 4.618538170462093 1.0800873720448676 2.8106133799628235 -1.5266382676497707 3.0780203179031247 1.5362536792523478
Ni -0.15980592850256856 7.866054225001486 11.656634897819899 2.3745528661285493 1.0390712334243783 -0.7110339512679238
Ni 6.432929513960225 3.7429396921471576 2.6801914534831277 -0.025820817717845855 1.0270155878114249 -1.837325745673868
Ni 7.16312538764343 2.7373717332555803 0.6382947657757833 0.19736584908010527 0.26141537126184655 1.218332916704605
Ni 8.666698423957742 8.186199024420036 4.3964686538202455 -0.26255025619723815 0.058650462653357056 0.19219073263706898
Ni 5.333226900310568 7.035626317212297 2.924379930776112 -0.45448156452533345 -0.018148902994884874 0.8772573133069537
P 1.752427535466398 5.399123009135715 5.6684208461773204 -1.0383029877997858 -3.447699701080398 -0.41580188856694844
Ni 8.928978260642163 9.194774036859517 6.463319259738966 0.5415540299648093 -0.31027610151829144 1.6671099746459932
P 9.238454959319995 1.2299311634550412 4.112033771842113 0.9146213557777086 -0.9827645884128495 0.4821941999492534
Ni 7.132018575249419 4.003498568954932 12.348180418316458 0.055958517643490725 0.4313166963730959 -2.1372189612959387
P 8.154379771646983 6.143142076666823 11.292127268720932 -1.406806605501403 -2.3473166561204155 0.7581746135094685
P 5.860793627227314 4.8272739490489105 0.5254025736095002 0.7907011253822641 -0.4600467173179368 0.6196152930446104
P 4.065295832482474 2.303634329505897 8.63434715401852 -0.05792541156187444 0.49528985679094706 0.9714075115288173
Ni 2.0028734598807594 1.3859556064652148 2.8615852507179107 1.5517849421187273 0.5062142170129346 0.14821535549738343
Ni 7.773585015285322 5.095466115632134 7.64808817989347 -0.6191658642120176 -0.30579389737722174 0.6501720827855447
Ni 3.125623982416044 8.53874598237631 3.1824341632902935 1.2025566277069548 -1.2716267430317392 -1.4798462469968967
Ni 0.09681694652281055 3.9916831616297825 9.051817785944912 -0.19349633882237 -1.0769736648971064 0.07840244846930369
Ni 2.9915278991244327 3.003824435017247 1.0330348486217555 -0.1840130819222831 -1.5965038822926572 0.9859738393787665
Ni 5.322651324294401 5.86867673375905 6.436017989265734 1.3543018507344675 -0.19405221132584 1.4261119906982342
Ni 4.010169601595051 4.870890104202203 8.382142334590448 0.3693893627406799 -0.09039715893733463 0.1372097484154992
Ni 9.486097384580464 2.1939370160783565 11.38093434983937 -1.0881926735413774 -0.974494120873941 -1.0313954620466754
Ni 7.687176175027242 1.5657033888502376 5.663532764979298 -1.1192904233874466 1.353307090921366 -1.008178914720896
Ni 5.643379029477622 8.897362562263122 1.6954498848407114 1.811803175922731 -0.24528247025572597 -2.3511496567132606
Ni 9.219718702598438 9.169968158207423 2.282274996843323 0.08806054038435801 -0.5700850475249666 0.5701287562787084
Ni 3.8876946237070324 4.590928792656106 13.216313076607381 0.30569516701582833 0.9831890775447776 -0.36809224119581124
Ni 6.101034074523711 1.3132774353304872 8.978583541215635 -0.6784904701142637 1.4718606576882587 2.7787935322204596
Ni 5.450159647197989 7.381354202969169 8.427534964455116 1.3975480630176125 -0.1609346028362648 0.3894308547725874
Ni 1.6607262809640064 4.2709227803243826 3.6908251410438666 0.44003119342795827 0.4379105475405297 -0.13734010334577637
Ni 5.547939776103373 0.35885066743992594 4.928449735345314 0.6073755564453088 -0.6310217351093391 -1.6158846008121142
Ni 2.360657317246613 8.239160176752968 9.861489622275599 1.0125415625649659 0.6542141140654023 0.5772995629955348
Ni 1.4045715810448547 7.03023212577098 3.803142754670688 0.3471583192566215 -1.2642615609159193 -0.19505082779368343
Ni 0.3129611798044188 0.20096277647729746 10.002555593067628 4.534271294078585 1.6488235176319797 2.9390745606331254
Ni 8.376568645183502 5.310558342795599 0.40299143778142127 -0.8228509706419314 -0.3770677052215442 -0.4224214507659951
Ni 7.879488815006275 6.824864247157814 9.328777595426576 -0.6889836563361037 -0.9702044923596518 0.350678416594738
Ni 8.516142192168525 1.1110183874622317 13.385397384487913 1.4330562832265512 0.6320362924167825 -0.02307307976937962
Ni 1.5997617399574218 2.4769423910621775 5.182617929428358 -0.526335670353158 -0.8442296934280235 -0.5125771831164849
Ni 0.3722898836809434 3.3478406133699274 -0.04785563803221368 -0.3060440657148149 -0.384235426614577 0.3446988019725354
Ni 0.4582101933933951 7.751887967378137 8.418976427434158 0.9895780117902571 -0.03259258922404064 -0.7509948079315776
P 2.7262965237268384 5.090201458805188 11.475457608440564 -0.12732257120877427 0.22113955446093528 -1.1853451489246747
Ni 7.394946085005696 7.223433003105703 7.071757222149421 0.14620372438399337 1.739263613992108 -0.8422273182860139
P 7.26802066786678 2.8452740670268337 10.405333298735338 0.20670975218885043 -0.0421213546500823 -0.7073027663602658
Ni 8.001556684106271 9.186502326484668 8.888515348101565 -5.012795501375419 -0.5043411683599379 -3.9622118964360666
P 3.7116015679417695 3.265826697528015 3.5803367412214158 -0.22489130819388367 -0.9963207298307294 0.029506236989233055
P 2.302301973472364 7.127836457699718 1.5801807325007162 0.5291844526558628 -0.04348815309062187 0.2515978709507925
P 6.017160411718325 0.41702466275405536 12.767005612210275 -0.06306016168527849 -1.2451441233601783 0.9253968491266578
Ni 3.7551992181501515 4.041951844478284 6.046363065281079 -1.5483082964240367 1.6659547779956276 -2.2798347112183572
Ni 1.2866303146598292 6.32747908538957 10.097593289137325 -0.3246809640897118 -1.3345372665130306 1.426753223826659
Ni 2.2632565397118865 3.027362724942994 7.534634362649164 -1.0435470098075448 -0.7778561510987958 0.10816862398814274
Ni 3.707336178139973 1.6932209642262803 5.534667104366547 -0.3014523325790744 -0.9265764712570559 0.35327523078763673
Ni 0.3654856154374706 4.449217924533956 11.381788353046977 0.18341504332696798 1.4740052148350873 0.5551556799086439
Ni 7.820680100081727 8.29570203592602 13.344975182826118 -2.4225918718146473 -1.3397923442643829 1.852747993766209
Ni 6.42359376925304 8.059060800414652 10.696742694450117 -0.9559837207745795 -0.4052140857487731 -0.008394394711282317
Ni 6.927927537835056 4.016886896597446 5.6648188586505555 0.5354139785053424 1.3198966337817204 0.4323410238725522
Ni 2.0117003186029145 0.3656956465622011 12.105197538184374 -0.04011640840491156 0.08577482967397486 -2.251626367104942
Ni 8.353428211573323 3.1567863096447857 3.868685419048051 0.509304168792168 1.3849357735702406 0.38501421376213046
Ni 3.8224461879537417 0.5869509456280008 0.5672635347380615 -1.020729754802713 1.4976794185235756 0.7882251530379457
Ni 9.247124526010413 2.0336286783214765 1.9556035033549526 -0.005638943453332224 3.006987422425015 -1.1822274292312995
Ni 6.196704639709336 0.31215158846459845 7.055263764750979 0.28645765894245506 -1.4142471209398482 -0.13904320207981216
Ni -0.049327706399818406 3.669743382554945 6.2004833494599945 0.7583003404540554 -0.11381090987558463 1.0111778494482198
Ni 1.854621093732861 9.188685909984068 4.919985573543398 -0.9309334626741709 0.40566917100832073 -0.02525980300805327
Ni 1.173213507305343 8.532334018964933 0.3630309344951354 -0.40719434940359545 0.39258251302769165 0.5988330661919364
Ni 2.0229235676909383 0.17135856560999324 7.212891661237619 -0.39519603939113873 0.632503204750872 0.840801641583081
Ni 7.087976806363193 1.397965315711921 2.625278954709417 -0.6660100782590659 -0.7747129774841238 0.9151764569502303
Ni 6.010110027707547 6.275387665467417 12.340976443262925 0.5067752317227272 -0.09672335826567859 -0.7288884629508415
Ni 6.444763426230284 7.391272853441025 4.7896719009914275 -0.21242171497196316 0.48886389865994523 2.1532065949734465
Ni 5.327212793214759 2.909402953613059 7.022817194345472 1.3640252486698186 -0.922903650391159 1.052589322515471
Ni 4.294923693872884 6.744848865366201 10.334631455717016 -0.7250662609912739 -0.7271617100677219 0.6626519604201104
Ni 6.145196125551853 4.7474898790686755 9.612129012880219 1.3360668157836797 0.42695841940440016 -0.3313025831712875
Ni 5.182892727860274 2.3400243036717643 12.99323689096242 -0.6481545381348838 0.9729735704643565 0.4298357409521952
Ni 7.6571148920206555 5.894768706082401 3.6210846299136294 0.5564805693676544 -0.5103331242773147 -1.800631732686944
P 7.427329738598509 7.9591896127344155 2.4717813619267286 -1.1460260396100779 -0.1174356511123655 0.6957464289812341
Ni 2.0652721341178824 6.86056028588955 12.587845361826151 0.2133704520384777 -0.7210180590638292 -0.2582714263162261
P 9.183430505629579 4.783981630431548 2.456505529903376 -0.3618961396874283 -0.5099392312730057 -0.6951733300865833
Ni 1.518238205155629 5.549161102467445 7.985214967256092 0.050937410279815507 -1.3737159935950212 -1.1444260421128098
P 1.643646216811911 1.5387139266987417 0.27361596593639637 -0.6392847464490796 -0.0856922972624976 1.0767458651570168
P 0.4971695791600403 1.6519734420214918 8.214696639581712 -0.31603331571704285 0.06943701174589977 -0.2556473584298178
P 4.08139513455433 8.75753919852181 6.198817904418078 -0.7482110745388533 -0.4858076283321247 0.7089220471312435
Ni 3.281074772134002 7.094509051916487 7.703637248772091 -0.39841506054906867 0.7192843642021741 0.2605710209836803
