# total energy = -340852.66034505545 ev
CRYSTAL
PRIMVEC
9.48300388582821 0.00000000000000 0.00000000000000

0.00000000000000 9.48300388582821 0.00000000000000

0.00000000000000 0.00000000000000 13.87933474363362

PRIMCOORD
 96 1
Ni 5.560378210899533 0.0821010015084879 10.556843914400664 -0.049709194299669225 -0.38667591773526955 -0.8157205302447371
Ni 5.563763643235896 0.9914954563821743 6.574113207660527 -1.2146333563658307 -1.553123715534809 0.3975375430401218
Ni 5.583573638055679 3.2217367257459437 6.930729149830837 -0.10904485594550897 1.642141477626114 -0.7359973060814808
Ni 2.3242842174862126 6.376988112247514 5.617105539292036 0.2079135426889645 -1.1266319513541823 0.9435501229969171
Ni 6.65759019301217 7.580409736285265 8.728685796954899 -0.727365855658728 0.38461826387529247 -0.5951988118734589
Ni 0.5209364827340773 0.5415525328720414 2.527413002569117 -0.22009594368776933 0.4920081007158818 -0.2083909965460153
Ni 4.843292433837631 7.374950977182629 4.138776378237489 -0.6490950476712821 -0.1503174894420508 -1.0067920616756985
Ni 2.843251080342803 7.12816528776663 7.884752516921306 -0.6845567309130016 0.9349076168305704 0.20276105195374758
Ni 3.6140106585918623 8.921581472698392 5.590790203904341 0.2213822665993607 0.22240556565755246 0.17146841248805308
Ni 1.4603636104628386 5.839282833994135 11.156375532159327 -0.5093147103151293 1.1584362403489727 1.0168954686582874
Ni 7.2619515045773015 8.86451275617113 6.559012472499675 0.03779187403679298 -0.11640952384069628 -0.014493308520168587
Ni 2.232318047183555 1.8824995220964522 1.5670739549856 1.8662316300749409 -0.45157904616655775 -0.6277263521875188
Ni 3.3875660122052724 7.403921553618453 11.206299753666377 0.7131106312912945 -0.9439753834597936 -0.7064612442955769
Ni 6.284519342746462 4.872433704340834 11.175807155129752 -3.3283663187246875 1.3436803664648793 0.8625387761498565
Ni 7.502288751447846 0.37394802811196476 0.7640569912032847 0.279095562150429 0.48566107545193127 0.31193909104301115
Ni 4.679217503070815 8.344986396093685 13.852200043107077 -1.766958765914531 0.9219842239006831 0.7382593626427801
Ni 5.661960146997911 8.869557714162573 2.297321192942848 0.5129687621279488 -0.22013399601455635 0.6250212945515301
Ni 8.087134041309238 8.697166189112872 3.0003237611455558 0.6608120789978942 -2.1456804617997305 -3.5497164465345317
Ni 0.6497687783892413 8.800786971016061 8.33433224138807 0.2774238308749609 -1.0977774890163352 -2.0556525132763563
Ni 5.319680609886742 3.1267928922678863 13.81977860160906 0.2497561897563634 0.9793252237139974 -1.1869649439162848
Ni 8.209967388796382 3.7102062485640372 3.2508457540364195 0.3872623863663589 -0.3466106742832676 -0.13548993751091504
Ni 8.062117877434376 6.37425700716944 10.241186013698103 0.5557681166816621 0.18291856330652367 0.2706304621022113
Ni 6.025747136598915 3.235970714364658 9.118958816010977 -0.7970386375645176 0.8050149709017749 1.805764168817503
Ni 6.213358882656634 4.574032025549978 2.0743359463218187 -2.9569457844865914 -2.032987467578673 -0.27845844278706233
P 0.8696521344858326 8.124411729024205 6.259371365119567 -0.5645715739059052 -0.4976377881978332 1.398335334805598
P 6.784406402071505 9.335789593202596 4.392587076826535 -2.171554244242699 0.3150475547650058 1.1270476987353624
P 2.6499021170203783 6.992795409330826 3.1339260076836064 2.64713788085397 -2.428999575113204 -2.620006571854817
P 6.65055380423463 8.276263067965889 13.56185891749804 1.1871984000833296 -0.7003155364091551 0.17989211777537406
P 9.211846734277485 6.277947621152345 12.819661198223468 0.3536940634926102 -0.19989812858365574 -0.24011172468806385
P 6.180187335562523 2.226618761933824 11.082967600182334 -0.6109079950785995 0.5036863083847584 -1.1360684141767339
P 3.2174693740614524 1.3914601052639206 13.524203806234087 1.0290547297286405 0.5015998581693748 0.41874425902472395
P 6.974019061919065 2.708099310993095 1.125306329002578 1.0239924847143849 -0.4984852237997931 -0.3510057180271697
Ni 9.070104277326173 7.943314806538141 0.5460161827340193 -0.9516205587098773 -0.7221503728960594 -0.2953279648488914
Ni 4.783160707101278 5.719607326753515 9.18263718614733 1.9315057686924024 2.378027969161343 0.5142142044992757
Ni 1.651730626002911 8.103833610901214 4.366424417799107 -1.8261203638763517 2.5845713709756586 1.2435554387168195
Ni 9.266336073786567 5.0707991766434715 1.226280404561009 -2.9151856698306697 -1.6921723169312597 1.041184166002323
Ni 4.89523084533976 1.4896376430184484 1.632751342311043 -0.6681608060534816 0.12703872141976832 -0.9417356954959974
Ni 3.268336206140588 9.166916262541664 3.055257853530198 0.6964290568705555 0.7078550393193099 -0.5216462352972887
Ni 1.7682103609820343 8.445629514821475 1.2755578852127647 1.0179349656663954 -0.37919349331529534 -0.00028924910564466315
Ni 1.4721035690970612 7.886473682100719 12.807100011465073 -0.7249639310854548 -1.728288860148159 0.6443942997615031
Ni 5.354198743512404 0.9168831829297813 12.681228309578572 -1.5945552432067185 -0.6434897856693628 1.0899546505378068
Ni 2.6056164895391025 3.075783815132601 3.9758744950337226 -0.33942392672684124 -5.668234746097174 -2.9623630988474208
Ni 4.698392136639796 6.626372144689181 1.8834392877674149 -1.1683632696546975 -0.47309275186861754 0.22330262355052508
Ni 2.782417611329445 9.439230198034664 11.980475109863777 0.5940960657275833 2.1444185643681712 -0.7893764930335696
Ni 1.4755743484671138 5.981546856151329 0.547154143183217 0.7735917193954871 1.2602578390731651 -0.41653336741633423
Ni 0.43889237924804925 7.016664129752747 2.998644321182615 -1.7946598313742255 -1.8413083844706999 -2.1557820690101064
Ni 5.882146010913914 5.797073984332646 13.774087592973029 -0.24460061369735292 0.4985219905749995 -0.5654465203116907
Ni 1.1512461374420386 5.866451639718729 8.549781344934289 -0.6960557326915368 -0.807746510900325 1.1386171487405163
Ni 0.007286740076362324 2.569533660295794 5.854733491993117 0.7170292496194103 0.4388173756255152 -1.1582824883799279
Ni 1.802102616360638 3.185113365289266 8.159299699795856 0.7157755797179673 0.05101068671991215 -0.03445329658186324
Ni 1.6161598789617408 0.7061898057608353 4.710396671078456 1.3251236865086147 2.6796114280016434 0.9661912574352005
Ni 8.194500609691037 7.351233984820602 4.860057436155435 0.646145478124655 -0.898596183994046 -0.09303099701575591
Ni 9.138761224427766 2.788505699732653 0.11460020363719861 0.42469353462962345 0.17973733736506467 2.3302460737913737
Ni 8.019046074432245 3.9439528078329795 10.370485821437812 2.489923150071454 -2.094699342766173 0.24570413117417686
Ni 8.846959716242257 0.6676015669285429 4.534462295830253 -0.5515941878096307 0.45962197107569225 1.8975116711351452
Ni 3.4808692860357366 2.0070398102573925 5.816079820434995 2.471163095855131 -2.5617142638718264 1.5201665438824983
P 7.907506984403388 4.338597491614727 8.313304628887646 0.0982135696579599 1.155416222575726 -0.9897443621647921
P 4.0647947245340275 5.123875548594799 12.245389457535868 0.9216828906101804 -1.0029408062504082 -1.2638658681393975
P 0.5623364321762624 2.882501232836379 2.265398557441731 -1.060269464768548 0.6134647000621822 0.4322253242302943
P 3.4975783386314556 4.2040052194858735 2.0836074790816568 0.19765535529606604 -0.04132148445660625 -0.22259865550496505
P 1.4028017777409238 4.008712240396069 10.20677977951661 -0.7424901128946761 -0.543209049069729 -0.9447094334123408
P 2.239259605923661 9.13548010513258 9.61028746445768 1.9517426645645677 -0.3918919147185702 1.7228427494319232
P 8.257515169565359 8.944843280880741 9.117973531922049 -1.4306301902835619 -2.5853056780385217 0.3510759091434728
P 0.3256188478345403 2.3997594442792467 12.06685958416312 -0.28183687234099203 -0.3379247164734954 -2.003262686820731
Ni 7.732071415152083 4.475845004791707 12.958968419813495 0.8867182016095374 0.25314413239198985 0.36143488378029365
Ni 6.9026594587506285 2.1844193952760773 5.160516926758589 1.0039229676580195 0.5915195632496587 -1.7688971205878248
Ni 8.834593879360975 1.0737794798629081 10.166432443489933 0.6550386668492267 2.4213052917927396 2.3056786688646547
Ni 3.1114304262037176 3.925385086503571 13.86832778757333 -1.025598138638608 -0.0037579243805354635 0.5445519362508686
Ni 3.617462471954428 4.980160626864879 7.4960347104791305 -0.8401694073157208 -1.5044689306415833 -1.7185947727888466
Ni 3.5757182894763613 4.142356212150591 10.107874895374971 -0.6031139529554774 0.34265606051089376 -0.9696254799277301
Ni 7.1824934162120755 1.4744363880179163 2.8869430717897475 -0.49371248500149817 0.2369677797424435 -0.2733085231550067
Ni 1.7285429563237529 1.7708371530189322 10.215523108967947 0.05743535929933335 0.14360433908793332 0.7038865415898652
Ni 3.51321581180418 2.7750493174208906 11.770133552133709 0.908923276951667 -1.6201222930425454 1.6733608406517115
Ni 7.652983163932846 8.39056171208405 11.696865020311742 -0.4924688424023841 -0.023445375507133815 -0.16492546916321274
Ni 2.622799692321988 0.6873679399311061 7.638810814838464 0.12901461419921653 -0.23801936093540946 0.5639671075526868
Ni 6.65421424367955 5.318808173542357 4.626037766378685 -0.2151010615763392 0.7143478461325052 -0.8620273837310767
Ni 6.438077622361942 5.610059667510754 7.043748536744026 -1.34574907606845 -0.7983902664964057 0.7871715149624507
Ni 4.75615311244032 1.5209220723676404 3.991335584336821 0.7919691934614101 -0.6077594221472887 -0.13968957741455942
Ni 7.434930975859089 1.7902109296665225 12.703602508610546 1.552494309480926 1.0458455760337342 -0.4748236185167951
Ni 3.7196228712811483 4.758779904477217 4.2500053740439405 1.3858860532986519 4.666428824782157 -0.09632997948200184
Ni 0.4662413620437663 4.742820009177221 6.640054222490034 0.6966918236136389 0.4300303734615045 1.3268645804591213
Ni 6.977641569349011 1.11015628222226 8.708671917554636 -1.0041656797964449 -0.25432066919859425 -0.674392131675174
Ni 3.4272523828710404 6.46643180355445 13.694308979081276 0.6181880736797805 0.2891871420584762 -0.4800555563396958
Ni 1.1152865872473927 4.554544452857469 3.6379817954542113 -2.1053051433064773 2.491874874481186 -0.28408761604838173
Ni 0.04821822913362768 0.4663380886819481 12.945324274027614 0.23887656672938218 -0.7332863349082209 -0.09844779715595303
Ni 0.3884134020220156 8.502280979184029 10.77660968125084 0.694050786446366 -0.48809333904250773 -0.355831164440271
Ni 8.361211815498494 6.776345848889689 7.12771863829032 2.080770648500223 0.08413112342296479 1.1028410195821716
Ni 4.4999318342997245 8.555641841247656 7.7532185134996725 1.9782833911675735 0.12457277637777898 0.31638607107077127
P 5.333563727366954 3.6390268224667244 4.834491258063461 0.37319176720590563 -1.1711027800730476 0.06035690382150251
P 7.517025339264957 6.000977530821379 2.246425911852483 2.1725497753867486 2.963095863248387 0.839751860162328
P 4.092143707329744 2.274451032815098 8.184851653382216 -0.07743005725370536 0.298088558313164 0.01436526758273655
P 8.719650390988269 4.860835990762761 5.042653621533317 -0.3974886920800574 0.77301373540483 -1.186155303530796
P 5.640348381466898 7.385609873390114 10.623728488102632 0.1394445512832889 -0.9231944421587005 -0.04015420362138246
P 7.970085326105516 1.6289998660301879 6.876918793389778 -0.5395508834918514 -0.694636740856823 0.9710357300116954
P 2.1705267947921225 3.4017241367940394 5.954900563932991 -3.3885825832032674 3.7016773851172764 1.483872080326838
P 5.476112239636447 7.295284262735049 6.0634923363984266 0.33237473318954375 0.6478197805032843 2.322952625453754
