# total energy = -340859.53072818 ev
CRYSTAL
PRIMVEC
9.26756651847761 0.00000000000000 0.00000000000000
0.00000000000000 9.26756651847761 0.00000000000000
0.00000000000000 0.00000000000000 13.56402037977132
PRIMCOORD
 96 1
Ni 8.559533877025602 9.164872799113775 3.929524277297932 1.3297087347761358 -1.4528236956614657 1.49553666114896
Ni 8.229237799631585 0.709835370479201 7.651884148724857 0.9980497967066939 -1.929549159186664 1.5354756634357427
Ni 1.9533528372774795 5.148188910461319 4.098857549119272 0.2521249470988561 1.0401328419196734 -2.0070895167659883
Ni 4.728961262958631 5.200124354280513 11.140794941589842 1.1037301070553442 0.5457847802167052 -0.6522947855555024
Ni 0.17853318529016787 4.32531239508836 8.898770376020687 1.351388790852731 -2.0440632657768605 -0.5878958504541423
Ni 6.791773330598084 6.45101417039324 11.713522223197042 -1.1109420514227513 -0.771244045098917 0.27882096833280373
Ni 1.0646024577598325 1.457130245583167 9.685986221466473 0.47086643364126 0.2910619904836858 -0.6981619804012621
Ni 3.827644062987946 6.004150638973914 9.398862176814664 -1.0190670223883096 1.141349202959699 -2.5872468609252928
Ni 7.731263637829879 8.547217280873621 1.875633169369463 1.0934217831508006 0.4363347184129776 -0.9496827182572162
Ni 3.1273033145988167 1.4559532646115327 11.027738968589356 -1.3568354157895988 -2.189471233732436 0.19806930290503308
Ni 1.3103597916637206 8.289968164254566 5.460766327070555 -0.4974398132544143 2.55263081351332 0.16879523653126413
Ni 7.353563956735794 9.170868914772415 12.561422095432281 -0.7419738353798898 -0.28086679511823887 3.0863620049996006
Ni 4.0085191623846645 1.9562721207898004 13.204763601554177 1.0298268320079749 -0.6369345010493482 0.7177686988885961
Ni 1.6688014691431943 6.540798356638842 10.853467937227174 -0.6919741064229954 -0.7040585483913553 -1.3821921493868325
Ni 7.215106510151434 0.378471669400677 10.497005811996058 -0.3790711088048181 0.040207168346504944 -1.9720682634957971
Ni 5.136419100744977 2.373062398248868 10.935924258478517 0.33100999163153316 1.0543194178327002 1.6640588465244952
Ni 3.0238123971953654 8.373385532173295 9.921864329262 -1.1837991445937934 0.1076304920964856 -0.3110196645525353
Ni 3.8481161178410144 0.8946009943790062 8.541277697371886 -0.0512351440258924 0.9504555918674987 0.13577815817529518
Ni 5.081119530211585 3.21692995221042 8.3841516644154 -3.5073297540382047 1.9835739501425516 -0.661673655667241
Ni 3.349706380404138 0.2470872297261676 4.076584806055269 1.9262087819595215 -1.9264378672511921 -0.8146303825043519
Ni 7.258469454767781 7.498684783781611 9.604425147158912 0.2621026271368583 -0.4123797502592769 -1.5978933064410157
Ni 0.21538103051235122 4.117477944144525 0.3463113594182774 0.37343242246180197 -0.11905184655954981 -0.5800735261962462
Ni 5.235813753664474 8.139027305317518 7.746696916665015 -0.4278446786640954 -0.9423684439839899 1.2607427491293837
Ni 2.1290473668856666 0.45541842224543155 1.7908581029283355 1.2041517401082167 1.0279488982589715 0.7615293889143143
P 4.649158246055154 3.9565003104651177 12.660616568910934 1.3457657882389984 -1.5072786321762364 2.7219189305206024
P 6.1159730988458625 5.552597718801463 9.116012333927559 -0.8462919752736907 0.05558570768510427 0.11914697737651737
P 8.389640844175235 6.7733679431204035 4.434336049815162 -0.46530050951770824 0.5609465755588081 -0.9231211657186036
P 7.468583727121237 4.2249724503648745 11.637007338960778 1.2910766242262346 0.08073958124291257 0.154422769859676
P 9.099295497103673 0.9360798426840682 11.593697219474656 0.08519041792541457 0.3630873317820521 0.32331776519359806
P 1.8103079451737571 5.496575278065021 8.42150737229306 1.3545790156552542 1.1690317564766317 -0.19453403605826494
P 5.786214540320779 8.041467630605766 3.4085026038556214 -0.4025913034139454 3.0963237441980027 -0.005685994641183756
P 6.683222321773277 6.96211120665033 0.25207132710053637 0.5276603027018526 -0.03976776681624118 -0.049614577703333905
Ni 2.0979824832878906 5.261132745904666 1.2715212731131356 1.2663228143203225 -0.20111143216546654 2.3580954919034744
Ni 5.503683501728354 1.6157817200194238 5.026812516072382 -3.3295256291401114 -0.6565371057716242 -2.6387206033245523
Ni 7.285651227915834 3.352866620650809 8.230023689288235 1.5201878840387366 1.0220847261687107 -1.1496507808468588
Ni 0.11442664611627221 8.447961641454711 9.527449664857368 0.7006261256710385 0.5662823859494247 1.9432515963744212
Ni 1.6145862039143781 2.224642317455793 13.254747295825135 1.6688400699632226 0.14453070755694464 -0.809080142110084
Ni 8.601729108237022 5.684382517357663 10.351667197132654 -0.44630699913434096 0.9982328592517775 1.5040344142073259
Ni 7.1798434188359375 4.605813836572219 0.2167720922748889 -1.2404246063973217 1.7146473581053245 -1.563208610574637
Ni 4.919187337161483 3.918494019404712 1.4842564133309863 0.1300929348650598 -0.7339856749680908 -2.6808368157683122
Ni 0.8807228132370999 7.445535288723961 3.183855860150831 0.34481398739416097 0.304426841826366 -1.0898145254155165
Ni 6.638302425950359 5.395975841473772 4.7579604059376885 0.3640039300590505 -0.36495806644220374 0.07799415728729148
Ni 8.867244894357635 1.8460992877914815 0.34140140257755486 -2.198100884382976 -0.5130335539276132 -0.9726131018011444
Ni 8.493724885847856 3.756469150687551 4.5969818455016105 1.0556635905654206 -0.2203970198679559 -0.38188389566326486
Ni 0.6853838224826696 3.9805959839001472 11.318672909913913 0.09314104023105894 -0.23375312945988777 0.4324518384188036
Ni 0.5866017557224256 8.787692101755214 0.36309399596577535 -0.2664151384692831 0.43760330071275605 -0.17259764099648986
Ni 5.02110276822495 7.058725589558092 5.07149238191762 -2.0746465378803562 1.2004562935345005 -0.358924201543298
Ni 6.062091466018455 1.180493379415618 7.366469970130264 -2.033601704123904 -1.0052851381128687 1.011682299888464
Ni 1.0812840778302375 3.201981367113996 2.8488379575202174 0.6752485661381984 -0.11554460473723972 -1.2900553820505716
Ni 4.6708443521466805 6.244199151787041 0.8651014027978363 -0.3062736652271177 0.14209227331878108 -1.408894084158051
Ni 7.41691704273651 3.8224912958995314 2.2660868757640436 -0.05299120748505067 -1.301109068761572 1.0889771171158857
Ni 8.775264294802762 7.285679030615952 12.476403291986792 -0.08899590771443382 -0.6425310213005192 -0.22407292605764637
Ni 2.413061216151017 3.2575774997819735 8.124129691837975 0.5853260328444371 0.19371333992918252 0.15668251242813017
Ni 2.620969807628497 4.657072748021891 12.69078249853825 -0.04580291726672757 -0.5533659349980729 -1.1455298166999497
Ni 3.998259966041365 4.904572384466466 5.359768385110959 -1.4293065863761318 -0.8624511015320566 -0.5515512503868372
Ni 5.138152135718959 1.2699439332598117 2.3691329499656173 -0.455020467747939 0.3827634700547408 -0.08137052995869212
P 0.15500932072088514 1.211447052212925 5.57322546877519 -0.7798150745973795 -0.39948721056732495 0.3182948580577099
P 5.004393345454428 0.16887360051273279 11.931631625347578 0.23528679249559478 0.7732582473154683 1.1184306464903127
P 2.6897166174519773 7.203809346337086 4.490979417520893 2.444877679796041 -1.445738249569594 0.034641501333269376
P 8.04130081440506 4.431611385203663 6.527576319219705 0.25253195272928763 -0.7293193798406731 -1.3482214488683426
P 1.704907909028915 8.854687341471301 11.77533318609792 -0.025886123738142513 -0.5470875581885287 -0.02633915211516109
P 2.6678914978598645 3.385599666255626 10.387774563775045 -0.4645654311238967 0.7976968399738068 -0.45189889139982176
P 6.257405434342778 1.8637818050661108 9.342083502635028 1.3200506428610814 -1.5016139776912913 -0.26827687426837027
P 6.985094772080666 1.6444277687069915 1.291731982585102 -1.010294418402002 -0.4117107492167103 0.33188622358889935
Ni 0.4177161073729752 7.734414610509845 7.440245361648301 -0.18876653744686844 -0.7316089472057982 0.3490601642650246
Ni 8.128971995441745 5.909667796408482 7.947362904761929 -1.0768458810699906 1.5072999723324751 -0.2364139641215025
Ni 5.55528531314614 8.498034304366044 1.2551334349073038 -0.7087554396463922 0.32422253639605453 -0.42728597794714795
Ni 3.3916791900146177 8.485708440647356 0.39464635357227573 0.5615199315637749 1.9604149955275851 -0.9372228952273085
Ni 0.2648892986113014 2.5370149208408317 7.284733738811962 0.1205222604574892 1.2548135281291422 -0.4379138899746394
Ni 3.6062326268201432 2.719743533578706 3.63810100845131 -0.6198083828920229 0.6130330118414024 -0.5997954301052058
Ni 5.808141603146656 3.5447793919941124 5.944920693400601 0.4190180815114009 2.0349209371559596 1.371322039441548
Ni 2.9959726268112004 6.732942817149789 6.847348147862638 -0.5459364753032211 0.4645618315794709 0.35943276574860034
Ni 0.6732961352283201 6.058458579869788 5.711103692440441 -0.893223606828223 -1.22110996522911 1.2286139869156387
Ni 4.0809544637570445 5.52987364523889 3.007970418668504 0.08126768583224069 0.7186953244679236 0.9812154987581747
Ni 7.272157650792217 1.6167826172236481 3.57308902801026 -0.16519440655388323 1.4382067170792392 -1.3993576054225254
Ni 1.4544519188051963 1.2416963899405926 3.8880046516993647 -0.9283417906875947 0.3074106070450383 0.9671060559399859
Ni 3.467719574835547 7.419252469546366 12.099865763757611 2.396368933562376 -0.9927055016756452 -2.1012703111154716
Ni 5.266072358958847 7.972331582980643 10.468643350849685 -0.5807235010754191 -0.5256003348490302 -0.29621730943238017
Ni 5.28658148407874 5.88601696617533 6.927131702876032 1.5350691720259433 -0.9998102310412265 2.7791336891686975
Ni -0.014917075369624342 5.239502245213374 2.7550427684043535 -1.144896296881009 0.36222549800238907 1.3712593045244126
Ni 8.248199241111612 2.6037599362558628 10.227326108154537 -0.48297427264838755 -0.14638164472275433 1.0313383835564947
Ni 6.708457905913117 6.444267381831431 2.6599047088728223 0.9415336067875203 -2.1635061771272417 -1.9469231316887372
Ni 1.662212229215384 6.770133562340087 13.153370310387272 -0.5731724282010386 0.538672594651956 1.033654433284181
Ni 2.2332889571922863 1.2537442266581074 6.173799934819921 -0.3228521384110891 -1.145294817871008 2.081953613064731
Ni 7.4270464931459275 1.9699139789807094 5.895642260955953 3.70102766734842 0.8722806860279688 -0.5784660724998103
Ni 4.261885168553998 0.14521628298288686 6.20719468468753 -1.035799761761958 -0.7994351628211522 0.05423407875321628
Ni 1.9007779313555866 3.3637374763966896 5.310178562424998 -0.7998072014485903 -0.4294549605740087 0.9213946699458003
Ni 6.544866818422679 8.860637119296413 5.367459538720086 0.7820946146601756 -0.3184013017285871 -0.029451472491897664
P 0.021174536409367353 6.1537106304718 0.9657499574926245 -0.3023190514547439 1.704555006866329 -1.7145535128399374
P 3.8031591517512733 2.6940631062369884 6.196844666190515 0.38920202659123293 0.7531398792990384 0.8879176212342773
P 2.0552311980741247 9.05342104191006 8.037170259924295 -0.2655800441624975 0.10106389462256143 -0.1253983576028679
P 2.979986074243729 3.0936898501569505 1.292364030634436 -2.0120923692972186 -0.6398668442047948 0.38698136479083034
P 2.8970042819601702 7.421152320721052 2.001276351469741 -0.37571453362775936 -1.5017078229566783 0.8089770408733165
P 5.549743308256083 3.7051268311375267 3.3895541369689823 1.391214407490101 0.1279540341451861 3.05997837279975
P 0.13295807250115094 1.1170012799143156 2.2233189089302074 -0.6645136962191974 -0.8539908865798455 0.23680014381632766
P 7.272815648028328 8.006630847358736 7.293658405549628 1.3108391515651425 -0.3942143922041598 0.5101495475115989
