# total energy = -340861.2960173196 ev
CRYSTAL
PRIMVEC
9.40741041268042 0.00000000000000 0.00000000000000

0.00000000000000 9.40741041268042 0.00000000000000

0.00000000000000 0.00000000000000 13.76869605457866

PRIMCOORD
 96 1
Ni 2.8988652462831115 4.5365166300000075 11.645507466921012 -0.9222385060033342 -0.5766557587639488 -1.1509062505205145
Ni 6.797107905646324 6.121608812650582 4.227058929087756 1.7373378577243048 0.8707441947787842 -0.8523646638303322
Ni 8.32189858859489 4.4591406806943885 0.23516361920450737 0.41791919202026734 -0.7229368733530969 0.21561862464270606
Ni 9.036203248871564 6.961238992276735 4.955463415847016 -0.3808248582711312 -0.7621001738161198 1.5218187347739403
Ni 2.855854566620462 6.360303032921886 12.846220392687922 -0.10734201432178933 0.7590025087274026 -0.1147997561514152
Ni 3.9270387421382273 0.8361306230131819 3.9369936636646963 -0.8390656327285807 -1.284449348717704 -0.9785232966379923
Ni 7.903494610319301 9.135752464136253 10.173482948064267 0.01803577445578829 -1.4134547069455399 1.2974809850906814
Ni 5.993366996123628 2.996448312805566 3.6257654881434087 0.9265425326953269 1.9815574339331548 -0.1871076616872068
Ni 4.18551674616512 8.859701417762505 12.419405248907877 -1.2758700916891252 -3.5847389853563034 1.5748436237104038
Ni 0.31280485747917425 9.083720078043928 4.410650184561159 1.4208599982706756 0.04838996126761344 -0.8471772060921215
Ni 1.4164831687411994 9.05149029052769 13.245677846720165 0.9023286544532847 1.68255176312236 0.07140930498092218
Ni 5.649036966155935 2.126789679661657 13.522181389526933 -0.9218764946782252 -1.161638035115722 1.6504859929360671
Ni 8.668251211766316 8.057352804956796 7.684612396034336 -0.11312031156646327 -1.220840513617807 -0.28724724472328594
Ni 4.975569873774177 5.751869367597847 9.426861952097054 1.1589602311732428 -0.003529867530129405 1.2175983525314256
Ni 6.898999566063242 8.855769120278037 13.583148933874638 0.4363100358226292 0.7526621683316714 -0.1925458019836426
Ni 3.1370420589906693 0.8827245852400268 8.28933295653273 -1.501997586282955 -0.9226951339247788 -2.0205140177020104
Ni 9.120964015223374 5.501632254949887 8.977519823732543 -0.791252884120676 0.6990868062083767 -0.6972435823520509
Ni 4.83789242476655 6.251431074099522 0.6077600947501441 0.7019708126243911 1.7043981695734904 -0.24108283035208158
Ni 4.995551213145014 3.973417274670349 6.557519981401277 0.41220954322999975 -0.2341321100658613 1.6442443829017295
Ni 7.286302646052584 2.857482048593699 12.052455100994244 2.055233423461067 -1.274784057713798 -1.3130947803685387
Ni 9.275057395117118 4.481925428319703 4.299330417591767 1.9284492412542658 0.11255312620908356 -1.4264148666506338
Ni 2.0189807581975363 2.5308097276651127 10.189330671371286 -0.09989712800796988 -0.004511000496476103 -0.14166084220831732
Ni 2.19145621771963 1.6616402798542003 5.202309157099878 -0.2796061832382604 -1.2696061130572844 0.17166381632831082
Ni 5.718510690851619 6.7234949204406735 6.932483361365795 0.9625377198430133 -0.19377144686062756 -0.6736606528257881
P 2.674837178591438 8.48014063640885 5.1098107958175065 0.11115341764807954 0.4436806172550875 -1.4103902090876033
P 1.3193516579107416 1.9843708958880688 2.5199328799341516 0.2379861937046288 -0.37845044450168375 -0.3617241328859383
P 5.896009707447171 7.499963747648842 2.627563060603524 -0.44587531091356114 -1.0622085907727898 -1.4812832365537392
P 1.0826518086124217 4.421369928540947 12.880339188182342 -1.3497921357895721 0.988527973259188 -0.06956145313890601
P 7.202952991238264 8.367421046794268 5.8451419587437865 0.19093860539752278 -0.5200287542985238 -0.15119500695099766
P 7.824039623348449 4.486713800136914 2.6340758107195454 -0.7761378828561084 -1.8974481648870614 -0.3819206624384713
P 5.198600755979358 5.132824143511894 4.929592096918702 -1.2542995646072013 -0.2828473158833774 -0.6215510766147425
P 2.885657242292219 8.0999777807992 9.218678785489328 0.32327225666764325 0.18334742331382617 -0.2913676946495627
Ni 1.018954233810191 6.936695058934686 0.577975293157862 -1.674763120315877 -1.200225922691249 0.06027565696160587
Ni 5.067941235018174 8.022357238827082 4.480265020410591 -0.9478464363794256 -0.6774478877823623 1.4474421196345781
Ni 5.052099156157303 9.044030214199502 1.3092913733894735 -1.3121182753878822 -0.5724838867744463 0.25662360630015807
Ni 3.831497083640006 8.233384265553362 6.948661284772587 -1.1366337997619005 -0.3800527559917971 0.6731955402639116
Ni 9.261510724357228 3.8077245579384504 10.66845383836398 1.6507492738997829 -1.5262970822602682 0.0412399804863935
Ni 7.232614555756272 6.276219600108071 13.213004970181156 -0.36659945870036864 1.6879101992207963 -0.05730140482463034
Ni 7.885009049178202 4.513694252733694 5.995275759663337 -2.0142495248495376 0.16778170766508524 1.3063991135159179
Ni 7.1811466142789415 3.103053085757696 9.568748276450497 -0.49388783423709776 0.7951524762853983 -0.7148016458404722
Ni 7.641874531268934 8.524045020045241 3.4686099962133152 0.6188766151063728 -0.8533154577793756 -0.5881573316456451
Ni 2.480141416059026 3.183270072958792 0.029861942356331495 -1.2467803734120206 -2.250233086301841 -0.8445379686970617
Ni 5.075749385525611 8.63578623899383 9.95215104415022 0.030646521241263346 -2.1286438180324176 -0.9921306030087816
Ni 6.201778762800428 0.6639166894960362 4.267001852267905 0.46966958511968143 0.48533068869570606 0.4255797938893187
Ni 1.8835893098806404 3.8905944348300245 6.070204841562951 -0.6476112640369039 0.9103489536545999 0.08370714851166874
Ni 5.884664370685764 9.382057279299744 7.386202757719595 0.5710998619427261 0.3786106242286318 0.28923265058443093
Ni 4.8876952546296435 5.22171476296342 2.7361010563620134 0.45526677943079014 0.2128348912499818 0.9348212277643513
Ni 3.333346488675818 6.232089438625681 5.39339059261427 -0.531933990376542 0.10948708568925015 -0.33476457357795897
Ni 8.31208665970422 0.8514647017205568 7.579652979134917 0.735645579169017 0.2103884865920183 0.7859839224122528
Ni 6.9728195142943905 2.616868716631411 7.140762483558071 -1.4749138426922859 -0.08972121591623257 -0.6773931232850269
Ni 0.39790240911793034 9.110653493589457 1.826376262963682 -0.27677385599578785 0.5281824937539097 0.6201130586166353
Ni 9.134247278496266 7.799796727134397 12.4595955869776 -1.8229607352014474 1.4563360796900982 -0.3341284826558568
Ni 8.704639074613018 6.3130402038262705 2.548557747842618 1.167372623606654 1.3368656575358913 -0.3385644069400234
Ni 2.231654081717552 5.821851092447027 9.460346688140632 -0.3243276945153511 0.3422220582972687 1.5479642828210565
Ni 3.8370380482772113 2.974124528282498 4.777847747364365 1.25324566942139 1.6752698847489664 -0.021731735250136767
Ni 1.1890308037185542 9.242648866806132 6.480787498956753 0.04111965285844531 -0.30343619577832254 1.2904006812051325
P 5.051158415132311 1.7517538626382154 2.209971882573529 -1.5336733201196813 -0.08785870878619707 -1.1328694476234618
P 2.1023586352426067 5.264132775780324 3.765215293242122 -0.26523037413256256 -0.590344569104951 -0.02421979177931313
P 3.110748347342134 1.1542704228450875 12.39212940362925 -1.3482029369255815 2.4491030307312984 0.09812203838541811
P 3.5270262509012387 3.9968793558336575 9.465826504611211 0.07805894908695589 -0.04594895592628861 0.09123071058222353
P 6.213848470151079 7.9281984696356 11.801562291851866 -0.30305824361361355 -1.171687448931924 -1.1749177829437638
P 8.70573974161226 0.7071597321918586 12.743396457915235 0.2166375528255237 0.5454199406781188 0.016823756425558122
P 1.1407990113671975 1.9743896336129 7.399875487776834 1.3986862903871138 -0.8721747565777237 0.792002617802507
P 0.2404938578521139 5.44864972042232 6.795223601373264 0.28740382490580824 -1.0655034594739776 -1.1289292320287911
Ni 6.893035267964792 7.369539411943905 9.080703121576777 -0.03490632495888182 -1.975880695263352 -0.11898474076704024
Ni 9.119233051737387 5.721671580695593 11.654980729042684 2.1548528723276177 0.7994477612266425 1.3035683289353421
Ni 9.024726208366658 1.9838534883243226 0.9586066377979582 0.11146400690996287 -0.8863505338574735 -1.3168431916673773
Ni 1.3910267166049068 6.978868479085091 7.565333959993509 1.3510560901036603 0.930341594726443 -0.2700200822117221
Ni 2.7069258549539263 5.743496772475415 1.7431855933825853 0.2670941668141787 -1.1179151403064749 -0.09552933795757741
Ni 0.7257139674277822 3.938562819694383 1.5540590177181275 1.1052048918286579 1.1685077656523617 1.3668323791013104
Ni 4.048535445515987 1.1468385687476481 10.276293712462603 -2.0554367977211245 1.4862611493843048 1.0280915944844229
Ni 4.379855027108035 3.9355712632349076 0.545839579744124 2.5075637459713525 1.4959678351491077 -0.5932563434351074
Ni 4.756358400130464 3.3508348643304258 11.331870994375745 1.383934585999236 -0.5801498879601363 -0.27816353725446286
Ni 6.96670469763194 1.0829998827916687 1.6188271558067995 0.6151361742273342 -0.2935922131047073 0.26758807573146176
Ni 3.6815523716664793 5.568133238006594 7.669976347167506 -1.5843168533081617 -0.1870330996955295 -1.0980824218512637
Ni 0.005576712796154525 1.7972292837863446 5.612257755042835 -0.6014126539936545 0.9634203795582827 0.49736139460799506
Ni 8.738007158769497 1.528779424894534 3.3701633294299183 -0.25040539330458805 0.4335237313267437 -1.1269759649571625
Ni 1.0567438007841328 0.18760539742704518 8.954540342715056 -0.3540108234020806 -0.9915137953603892 0.357036754712598
Ni 5.6970994251227935 0.8193242846016939 11.627154550264438 3.5668747034813735 0.6447074601265477 1.288770601800877
Ni 7.305710133398176 5.019624775974568 10.747196684378913 -2.4096440534047274 0.9463001749382283 -0.5646487070007437
Ni 2.627677831008573 0.6485035885425617 1.2615553515582878 1.1863638199971762 0.7746034484894531 0.46681566061065416
Ni 2.3482777465858513 7.89747386775935 2.8505741872471804 0.03269980422586626 0.12010471330409637 1.265174302538176
Ni 9.044086658661 3.3095363333332624 8.050859810402299 0.8869336600544533 0.21087828174424328 0.006060090151150854
Ni 5.299758638396783 5.795228121439743 11.858193020074355 -1.0902341294514384 0.5499720788251755 0.38518879166678177
Ni 1.6790345814063083 8.120438898092782 11.117643566682442 0.4211022177339393 -0.6212276318370527 -1.299671307873781
Ni 4.784439519726486 2.4031793928044034 8.390698742716678 1.9406545250712062 1.709581513546643 2.7822097569908597
Ni 9.047266363325475 1.6238318980597584 10.124025370157344 0.09457571579505647 0.6707504211575287 0.16137888946253498
Ni 3.259347799649922 3.391917024891841 2.376738925555969 -1.1370392627304353 -1.4338769793556339 1.6220483064206646
P 8.424467582549804 7.73558174476842 0.9154106321533854 -0.5892526215923529 -0.40577972844425597 -0.23689938839835328
P 6.274008858699339 4.2092328274051765 13.190038659538018 -1.1021090265121536 1.6162126735754936 0.2834026741662151
P 7.482823446173481 2.2212965230323864 4.999936947803528 -0.6573979111100228 1.079546310720289 1.2839965774510016
P 6.462241730390054 1.1772339112651504 9.676653153499167 -1.0262810236382454 -0.09105767533946899 -1.7613591603395666
P 4.505189953867762 1.547123874881884 6.603398039708103 -0.5620614058895417 -0.2900361203223327 -2.7356077408616044
P 6.72263884610793 5.015739515541349 8.159604769186288 -0.04357891303221527 -0.20992748779519974 0.368397688251372
P 2.953230670117418 7.751903601552038 0.7053356353443985 1.7971031507083952 1.549958173322634 0.565929116375064
P 9.272122283119142 7.338457328478159 10.030123423265685 -0.060290312249625194 1.0027114638484216 0.32765213090289375
