# total energy = -340895.4819998282 ev
CRYSTAL
PRIMVEC
9.03734941286587 0.00000000000000 0.00000000000000
0.00000000000000 9.03734941286587 0.00000000000000
0.00000000000000 0.00000000000000 13.22707437501218
PRIMCOORD
 96 1
Ni 6.346541750937248 2.013891937453962 11.419977657544951 0.43809309586498096 0.5191872322338349 -0.6148536099899088
Ni 4.4785668539836045 0.3172299360427512 5.91329574802228 -0.08157133311558856 -0.576424359479433 -0.13696600783580928
Ni 2.605033987259883 1.5687482642913377 4.79650712567502 0.4960077087935781 -0.7996920160269647 0.03340531493332311
Ni 3.53610689061337 4.4673063168559315 5.171773110936459 0.13325616308438987 -0.17171703816374942 -1.2777174293105091
Ni 5.12366187863078 4.568217358242441 2.7333218706374485 -0.29499295010697585 -0.30986112546805994 -1.0491427587277673
Ni 7.24702322718225 6.115465768740253 2.572546524285118 -0.2600056353985135 -0.40794382597511036 -0.982527789811695
Ni 4.943628844826317 4.598456328731358 11.418284962036113 1.20604227226271 -0.933066964077406 -0.9381088973766876
Ni 5.610540030489705 7.795201718797999 12.363385638848328 -0.006639102583072437 -0.10475317054869054 0.549663289335505
Ni 1.8194533689933916 6.4317278046815805 0.4869414133034627 1.5977945760796226 0.7230281475153225 -0.39471858553408795
Ni 2.7748096297000533 1.5585089476254848 0.3268158523600242 0.3119000102749596 0.7491526125165163 0.7262816214556137
Ni 0.5073495553112555 8.991141253080716 4.659077963561787 0.4907498028287484 0.6198173817530874 0.17002190984951365
Ni 8.58558116950012 2.3597964788357118 1.3382091006379904 0.0012660111966171744 0.37575567127834 0.09268929740562101
Ni 6.888665218575837 0.7422501436980015 4.722316814726223 -0.5055135914014843 -0.2352448835140658 0.010183111180588914
Ni 0.5702775216625359 7.412768211870461 2.5369267160708264 0.5847076825341478 0.9011665158243835 -0.30984415618719546
Ni 7.505283555831925 3.797647777029773 3.7222970704411744 1.655782465448316 0.4831912737552001 0.7468812999838363
Ni 7.610306591113369 3.9348528128823586 12.594886376458645 0.6817398302894969 -0.4482738930527247 -0.9374632933728886
Ni 7.659795115440121 8.86929971090152 6.867655189110016 1.276185308936699 -0.49306970921117665 0.4763986763133989
Ni 6.711966966633421 0.7668787277913665 0.32611455406058004 0.6310890980121648 0.062404530379150586 0.1253513064150164
Ni 1.5837231519482826 6.455270099398745 9.30372508788965 0.6617947546261377 -0.023410665614456455 -0.5972184134066489
Ni 0.041401000510096195 4.975530687571649 1.198732978926509 -0.4515988436608997 -0.7112679216556009 0.596112839047296
Ni 6.165776691845993 1.7641086423723116 6.922336574298374 1.4591696924841515 0.8487625483013704 -0.34263703434750026
Ni 3.4655703799540736 4.388139137691879 0.6413228350828977 -0.03915198760911322 0.13219404036846266 -0.31569187321722403
Ni 6.024929604257892 5.510586948120479 4.705240743375712 0.15383758678016732 0.9124881114847898 1.22728035570588
Ni 5.401036200879994 2.9280198110206226 9.062436901074461 0.19741598559175033 0.38911666596627825 0.6318961672944924
P 0.28433308114833694 5.734839731656644 12.31091388554417 0.1449456836071762 -0.9978991300614427 0.13651606478258427
P 4.00902233792795 6.049556380881413 12.547202610771054 -0.6886992923264655 2.0011327849619214 1.1043037201706272
P 2.458502407012628 8.495605320669375 1.3926392475180427 -0.4740610293191578 -0.0696036192307511 0.5287807894595409
P 6.19604277438257 7.663916146684278 5.735655804291177 0.0054221994568358235 -0.03883548480995892 0.10691546830733199
P 4.7602971785566845 0.9698250568073068 12.452999089975362 -0.33322705388751 -0.09248206649082137 0.6839620347517963
P 3.869774861151726 6.162631694317558 8.26831056538588 0.4196621428533031 -0.5931820385537461 -0.3316396547957321
P 4.817973541276432 0.9337118093256224 3.7081310255393873 -0.32032397267259677 -0.3528905937547084 0.2803674868843172
P 0.09019364894693656 5.578710486538131 3.542620108195965 0.5103374951526889 -1.0151427476332389 0.13407454522062714
Ni 1.5074569618837343 1.244741220068778 2.5274555740886426 -0.18749101316855452 -0.25654441632279046 0.43044097863636194
Ni 1.661218421506702 6.524378708881338 4.744855963680007 1.3102521687134208 -0.31226202160006866 -0.2789613505654099
Ni 5.94147872156373 5.652518517614936 9.118533535150618 0.48250350365955613 -0.4776716294885516 0.6132700675528728
Ni 8.685552326567784 2.2728119925966697 10.222239690767527 -0.10938578422469548 0.48658872947252324 -0.5416494178920929
Ni 2.3415139213643785 5.101050430883238 7.117051685645065 -0.9821009866869216 0.7297950339255109 0.06818642716825032
Ni 0.2672750844962651 -0.2059322691981096 9.673912082889654 1.038902569056998 1.5040637247833644 -0.7683039886339865
Ni 1.7081945627503945 1.0659282284089664 11.404039388461195 -0.8695283200938122 0.36313695407306495 -0.1182730594119963
Ni 4.232624432320301 6.986846980498013 1.6209380522998411 -0.7033409534990402 -0.7696052239439132 -0.38045539074685447
Ni 5.584376904498845 7.903216116671145 7.946984902676787 -0.12220556169718308 -0.07043845642722062 0.25346294918398926
Ni 5.248259812321967 2.787669777639602 4.699434246502092 0.09790015218259915 0.5660766976965218 1.070724341553285
Ni 0.6497022652793486 7.283425669838963 6.730028109048873 -0.24241363334836316 0.10342468154525415 1.306223764280318
Ni 5.17120737287531 4.732344657420335 7.023272016527775 0.03813408786756013 0.48109891000254557 0.14226273745837434
Ni 8.121730183452838 7.106239401038687 9.006896967710238 -0.6615628411209897 -0.263981589327126 -0.5274139910190013
Ni 4.709127707275079 0.07950517602486745 10.393927636302571 -0.5263904348504934 0.6019564423122665 -0.31185013087363067
Ni 8.122308573802895 7.170305169656721 4.6977804115948985 -0.8857111005012617 0.003058070100033443 0.26139711642940144
Ni 7.2855946336516775 6.09617102815632 6.98165954204594 -0.8124554863402201 0.1278820432566701 -0.9055183650351761
Ni 2.2558579254606235 5.2934194463725115 2.5603117609115684 0.35563138972463915 0.5819681721157977 0.6585127414407562
Ni 2.3743556484285526 4.991761766770123 11.458230949321846 0.0376967432198254 1.3038742902115352 0.1395885330603209
Ni 1.3871788811195356 3.461060742693473 3.816262005217467 -1.4499774844619222 0.05169434305049807 0.51466286200092
Ni 3.650998711242663 2.580515658826997 2.830236596199032 -0.31304877916742213 0.6246844800374015 -1.0624888410173703
Ni 1.1281503777861928 3.2731381030202633 8.232253349469357 -0.7765050363875401 0.045387941216496024 0.2713606554000165
Ni 3.962968006304661 2.8241264443916334 6.964332232387123 -1.7183309776044988 -1.2380247387065775 0.30366270996683187
Ni 4.032492333851358 6.839935831583533 5.961799201284092 0.1410625465026861 0.2788942447729003 0.3213709258798723
Ni 1.0160239860181102 7.716332772158194 11.776858059553954 -0.09134615311416526 -0.6581057358103246 -1.222995612287597
P -0.02156401897298477 5.3737614809351175 8.022630226849946 1.9776866381238392 0.40080310116527107 0.14432476219372564
P 8.593994941623604 1.4597578327024705 8.109029996594478 0.29651864272288286 -0.168769011279019 -0.19477366287289682
P 1.787768422629331 3.155381442688345 10.519995042976873 0.10082452491824571 -0.905780103336995 -1.293289058496521
P 4.012167335456385 6.113730597690082 3.8762338546390027 -0.6931316170662063 0.5930092604213077 -1.6140691448699298
P 6.85360934095285 3.9854167817662485 10.437986521218164 0.44791959503709955 0.39948823900858943 -0.8120302258773434
P 6.525562601629111 7.818518079784671 10.289578787272912 -1.026340159010955 0.046531825012952124 -0.7077018015708973
P 2.3703069159781536 8.41754069811012 5.800746408310719 -0.5290291580249211 0.6465843654342865 0.22270381362426164
P 6.942527819924895 3.9677035772957523 1.4216328712844943 -0.4458136044376903 0.46701543532628603 0.6999242145080075
Ni 5.102505444107601 2.7977102726226235 0.5242295161837004 0.648515006798096 0.01494505134560652 -0.47244534809260574
Ni 1.7020491652810388 1.153726076077776 7.082661860659566 -0.4817861658775574 -0.3120792161653012 -0.0028932623873950173
Ni 6.7735203521683935 0.7695167300285796 9.247642913572248 0.6633261036689996 -0.2855613723804308 -0.3341642209897987
Ni 2.9448563926168134 1.4764136673142685 9.332361736361927 -0.9370331478140056 0.15161178277344212 -0.46870156477945735
Ni 6.291504294189635 2.214810285305015 2.599688395196465 0.04345498585984129 -1.1469485514243474 -0.8271832794686981
Ni 4.209904536382124 6.773484202771515 10.338638037511732 -0.8885603970245987 0.1972267523990797 0.5369910931844751
Ni 8.461136870745666 7.3366646940918665 0.3442344392459597 -1.8949855622791818 -0.509796020826922 0.6164032138652158
Ni 7.594861761297003 3.7054487402909984 7.962896963447809 0.23524565484501422 -0.5256977796588429 1.1401202156486043
Ni 3.169805052042891 8.4144951114231 12.467469693545851 0.9896790561444956 -0.9308254763413969 -0.05454621067699638
Ni 0.16767355501168252 4.765358094119684 10.258059224399572 -0.5456749941117183 -0.9236240734969512 -0.07647874908402957
Ni 8.63588305525664 2.2210912430126655 5.954577455522677 0.10793028272509153 0.5288044436086248 0.03224677584884769
Ni 3.7343682577938484 2.6368996806083356 11.465002635092125 -0.016602641553687535 -0.08701050185328886 -0.11470513955507988
Ni 1.177882910541876 3.306151539719611 12.708823853010342 -0.8225360105046738 -0.1105479228535967 -0.12978543092697004
Ni 3.0561061615105913 8.240634587135652 8.029813112009716 0.33281439183012357 -0.004268802578682971 -0.33522788636762263
Ni 5.7228562065914 7.8388792275765224 3.4240790059517816 -0.8458530879640594 0.17507438467175654 1.9667165122655805
Ni 3.111161692956643 8.398444779209019 3.6266656484687796 0.30019326336099267 -0.4414674116538526 -0.25807242293154264
Ni 3.3271543393060563 4.089039027918649 9.208225611215864 0.10656631249802936 0.8132234748544962 0.13851561171111626
Ni 7.46513965059828 6.13013338652373 11.236783358983457 -0.7494927694647544 -0.2959987656636709 0.6973369133968055
Ni 0.6711623547363074 0.2888743491312064 0.38148910393408475 -0.4627887988394481 0.21207435893487347 -0.050219301166868346
Ni 4.587439800032616 0.4514219196655087 1.50364048930828 -0.25884298254898 -0.6066957567694647 0.5357621058733806
Ni 5.984559765293757 5.600689319840297 0.2658074189829954 0.1364286472751005 0.3586400946439759 0.6775185931192976
Ni 7.932994182349862 8.80765595187435 11.641478568243736 -0.40226580175372656 -0.22680755137999 -0.23509421686881443
Ni 9.074131230964678 4.839238423990247 5.763340819890625 0.06811006540436013 -0.7932087222954661 -0.1251931835705973
Ni 7.6987460905767735 9.16215501236398 2.5079855089298486 1.2998962794003934 -0.35712340088913336 -0.09225041009598951
P 8.656533398223518 1.7733538506240043 3.7251935408660692 0.03190867578313859 -0.11453647518769952 -0.6242121683866733
P 1.7876690117879153 3.3007833542831446 1.590304149650025 0.10677225786124837 -0.43063946780041323 0.08156876201242726
P 4.661229756410982 1.0192051329434237 8.208312507651605 0.23795225514289986 -0.7353121070889981 -0.14482072799353768
P 8.521027384024226 1.703251132727251 12.27073021597396 -0.1626857811994166 0.32125625467887897 1.9108343563859802
P 6.3072021697841505 7.864961017424405 1.4126379976061858 1.0194634864957797 -0.7868853511805997 -2.141413201882944
P 1.926609218690672 3.212208294581446 5.989086573517875 -0.721975280770776 -0.1967978923917772 0.95572532490687
P 6.835932285879233 3.77734085333324 5.974298758989777 0.043864819703750266 0.02644431023445768 -1.1021455361770438
P 2.393352156488237 8.299124311285166 10.092984811023458 0.03862439724041735 1.394061904241225 1.4849506581029974
