# total energy = -340870.8094067842 ev
CRYSTAL
PRIMVEC
9.20921777322353 0.00000000000000 0.00000000000000

0.00000000000000 9.20921777322353 0.00000000000000

0.00000000000000 0.00000000000000 13.47862109311025

PRIMCOORD
 96 1
Ni 1.3773858261124212 1.1401195461827554 6.167425859404177 2.6025027586430984 -0.16891325016636713 -1.9562930029394114
Ni 5.683781699740372 4.01924326244619 2.581021345462189 -0.15263996692764034 -0.5227492385534803 -0.656992705251804
Ni 5.131606227053568 6.691951577438721 13.331703468186815 1.3709692840878194 -0.617531156822072 -1.3798241633752881
Ni 5.034734468065051 1.656922414413348 1.8923717157282756 0.4652156631133859 1.1346134268977621 0.24469394474210765
Ni 8.941763415150932 4.6352201940428195 7.88985896349722 -0.672094851000565 0.8230741423963308 0.555583768584998
Ni 4.881106301561919 4.083643320494169 5.402810315351376 -2.7280052459239985 0.10245717542566225 0.8823434695806095
Ni 1.5178632300111607 1.601602644830306 2.222314956070618 0.20191978699937482 0.4863850981021494 -1.7747517795963885
Ni 4.710496337970202 2.9750837627184534 13.180123431657925 -0.32869445612447906 1.6328546530075492 -0.06216927443989293
Ni 7.188954628022645 1.0601743289777628 5.35924795376345 -2.55882382969791 -0.30893707099189377 -0.7904689547667999
Ni 6.565628740852973 8.552167468387054 1.0495303153796138 1.4947918125631352 0.28589792978424305 0.38113236220922103
Ni 2.243070690494833 4.333894597113047 9.750541761773315 -0.2499814183932921 -0.7635119665619818 -0.021985503132155686
Ni 7.07363680636144 2.8168141505902424 0.5197083763550226 0.6962917599617428 -0.12809210238494717 -0.0071921468730650326
Ni 0.5537189375414941 7.418227307153563 12.458490989411665 -0.6114289005790761 0.32836869735394414 -0.23027288422077113
Ni 8.328226926194473 2.3153998848189907 11.453296609890822 1.3569665420508243 -0.5318334602429357 -0.06812214958921817
Ni 3.147719754162388 8.437917915957021 8.43591859483558 0.15787653273623134 -2.0763671201158886 -0.09427515383550215
Ni 5.733419382119696 6.713832678242668 2.348326521104526 0.6468851845041569 -0.0022931669095508896 -1.4246426052415595
Ni 3.838144000110493 5.248001527163452 3.4453644268533825 -0.4252632910901644 -0.138870938168006 2.6173614209224856
Ni 8.626752921001183 0.9287311674564103 1.7056658817724435 -0.6470060263527373 -0.4922839800850876 0.8350840223730134
Ni 0.9590847483696294 6.55944935590371 1.71555842322177 -0.35463483013932473 -2.218235193239005 1.69995453197984
Ni 8.20486945764697 7.609521173272916 3.2459351379856254 -0.487260044507935 -0.025687634574091244 -0.24512306185972627
Ni 5.2630309701399005 2.7976313505167485 9.131172154445974 0.21865535458650087 0.10698231698952544 0.1577405213789993
Ni 5.451009517955625 5.590004237835243 8.973594154552767 1.3688360397949006 -0.9752441116660882 0.9327280926807484
Ni 2.8008822042978063 6.867764748923633 0.06636254229937766 0.2748928369229911 -1.82672817266368 -0.6641838236836045
Ni 1.669318021181914 3.3489872028451564 7.424738223933188 0.06230605712807334 -1.25846835127291 1.2160261229482994
P 3.02617650146437 8.619109270467817 12.424201388934637 0.009167525431880987 1.2203933987780595 -1.0800900990389013
P 1.1556831237747882 0.7839309568584398 8.237593491147283 1.5006757821477381 0.4479046826387641 2.0406223584161114
P 7.328989989480901 5.314105290450796 3.0060967236053946 2.528427733904555 -0.18051458185072136 -0.23369245142528142
P 8.568357272769774 8.925619656855764 11.053776810338086 0.7426973438094758 -0.23023200368050672 0.03836702981397263
P 1.4120124839503168 8.71432337030452 4.3977909109632245 0.10403377588416278 0.880667110319451 -0.09798217037344416
P 0.20025903936541498 2.3937795350472704 0.22554018327408284 -1.0863491925747355 0.5048782718103305 0.4769128969456561
P 3.4644707904215424 6.260278715871296 9.095346456488265 -0.6607963952686104 0.10423689303390436 -0.1230735661244332
P 5.123142956161805 0.4047939184207595 8.696945576863003 2.1554763648442297 -0.6968298918533999 0.9009909094784676
Ni 1.8905142165564928 6.5043690259759295 4.19008529831916 -0.1328031347073713 0.48512757154596453 -1.136892452739926
Ni 8.763868960508743 6.08047795320452 5.077247899778578 -0.6759376217854229 -0.8562262036682674 -0.26360158027988795
Ni 1.3404844915495362 6.628233001486487 8.565016168657117 1.058337280742842 -1.1841490717340444 0.38455012964151836
Ni 4.333443345455053 8.58424317297466 0.8652695286727073 -1.4894953400508866 0.43995071789901 -0.11481132611564099
Ni 6.029385214458603 6.043604246294165 4.490240403703402 -0.33808823863455323 0.41408130633141593 1.0658528723935965
Ni 4.477797829925535 1.916778904895237 4.3100850861624895 0.012553411184978382 0.26588729099027114 -0.0309599387166241
Ni 8.563761873232243 3.371844480705172 3.1759542941265377 0.14885633151549202 0.7365485505992606 -1.2849599698055354
Ni 6.430501892327589 8.6112353894967 11.67468251514611 -0.3784746128713998 -0.270247881951812 1.0571175494031277
Ni 1.8746651532216474 8.454227440167369 10.48109701486509 -1.8422872034442015 0.9752369125772367 -0.16333447052700903
Ni 8.940980631662576 2.4865439830262925 8.843996520220436 -0.10200928925496626 1.1308287630443492 1.100608530707227
Ni 5.079739914036805 6.842890652428911 7.156096139946685 -1.2069935804323857 1.0044227901125735 -1.5867519451122156
Ni 6.90248349893663 3.8615998771086635 10.766452907710635 -0.6667351293505485 1.550698393922768 -0.3172157660609182
Ni 1.5248438168838003 4.241480099399407 2.3742587566911566 0.8931886398252296 0.3345241754323787 -1.349319824138844
Ni 8.862066846818712 8.510928592376922 5.760991779344872 -0.21731992360452895 -1.3970793509113102 -0.5691496801948908
Ni 1.3946070628562681 1.5622608676272498 10.385668340260402 0.5975048342988162 1.1239137810920707 -1.9577796147872668
Ni 6.834851005542612 3.4787266591271444 4.704106061939958 1.0636154984226456 -0.8675853374348285 0.13645692940987467
Ni 3.123978391421405 9.168172027636215 2.933177218438841 -2.6285940564135117 -0.35547918041749105 -0.16910274046935395
Ni 2.29303990470452 6.405498866787725 10.99934941393177 -0.6603708776954175 -1.0577328143896234 -0.1190878420038078
Ni 7.927441780155851 0.6325222117752369 13.060689089769715 0.10570962092468891 -0.3058358063587507 -1.2773744441487938
Ni 8.60296551217265 1.1123721738248884 7.077651104274084 -2.140935233805261 0.3531800999706692 1.706380747221158
Ni 2.0324282583868047 2.5797688918808186 4.115130556082879 1.0594518539632594 0.48274775845987833 1.8148319354467262
Ni 8.687248270824888 4.801722846625041 1.0121878592979958 -1.2518595877071408 -0.86820420196575 0.5562219163896291
Ni 9.042005747748139 3.166018469354914 5.894133120575082 0.6442760290160839 0.47433742290899605 -1.5066206868772634
Ni 6.936981227729383 7.726211168343123 9.538024332980235 -1.4373384555416728 -1.3893598707798653 0.5743435656910044
P 3.5313389187622235 6.039303541716958 5.740530739880979 1.1690592672804576 -0.1837163766174707 -0.39000883876324444
P 7.002661367011265 1.1329179380898737 3.1092749547448135 -0.1710398095910667 1.15455593145796 0.5047576870720661
P 3.7816270322511403 3.3120582406297414 11.12732898874758 0.5584220093647415 -1.4985836755053996 -1.095458096854539
P 9.047522069036676 4.317290377942375 10.138995765565943 0.21496145067468142 -0.6166107018903316 -0.771822029089574
P 6.2919584241059665 6.018757777451973 10.919421694240047 0.6776630891169619 1.1225750076759893 0.5522040534794878
P 3.66089419069401 6.997531832858151 2.193038853606078 -1.844335858443114 1.4353677049685474 1.106079066903495
P 0.9284272632785777 4.472760387947522 4.350601959519831 -0.49243310406844215 0.004313796884005474 1.1588818125268237
P 3.23583354729882 2.5420203093070057 6.261938216866612 1.6262389474632444 0.050823253299454405 -1.2081168954035515
Ni 3.384101949211086 1.424426509153903 8.273716646830566 -2.904226856826321 3.3227263468300907 -0.04785800002354338
Ni 1.930592731160355 3.0814502249598617 12.485421504176388 0.8236449272981363 1.8527742190184544 -0.4632752515575634
Ni 2.0797636363886087 7.698058590414813 6.320057588572718 -0.216946085204878 1.2063472050976385 0.3100750412510789
Ni 7.390406261055616 0.8338043952060217 9.599527171199544 -1.1126220102283353 0.6232886281311395 -0.2116159312412162
Ni 1.4940113566600572 8.383058607249483 0.7865878161100976 0.7079319153038325 5.969054587298571 1.4641725450153815
Ni 4.559851957940336 7.471465793579328 10.736638066021756 -0.5476323749484053 -0.9775244230598328 0.009201721103926088
Ni 4.0446607027740065 8.479414650057434 5.014329604827969 -0.4096764923955009 -1.0710590991848843 0.8198890598001298
Ni 9.127209428151385 1.3213293191285727 4.040755994549734 0.44865158810711764 -1.7231152863670196 0.8296420254218357
Ni 6.8356890443360285 8.538233922294307 7.422609052844859 -0.06181780463774516 0.8257444901396425 -0.96477072293859
Ni 9.068869035225037 8.33957268216689 8.660363802147716 -0.7654256386449269 0.6480128703506969 0.07599101081433365
Ni 6.698619050916018 5.173379237679284 6.525323679498363 0.9095524258952334 0.46855115524452207 1.3968044999833686
Ni 3.8971474566975672 5.1441952273898455 1.2321085780474286 -0.025728000893723433 -2.5863714002988747 -1.967396569051741
Ni 3.6381105865740753 5.1346913149194435 12.262902865167362 0.6285539902951368 -1.897020076210707 0.052962668239960396
Ni 3.1122274298785446 1.3219371274842378 0.37180005484740075 -0.35118826635162104 0.14680870495784393 0.14154514256605946
Ni 1.6111986494758077 5.40591197980877 6.36519748912012 -0.8832351281569434 -0.9926810761956131 0.08144457772973716
Ni 8.889123527863322 6.609059410630503 10.482700339633595 -0.22729323276715696 -0.12429921100141819 -1.1526165483434019
Ni 5.752123302882666 1.7522654432951923 11.30565167200399 0.2408115789685659 0.2863491583890488 0.15889777491189408
Ni 3.7390620289195575 0.5981497283406195 10.590624080555958 0.7402761359624929 0.7127648179161015 0.22977151910432045
Ni 1.2276899954860931 0.9352144565835057 12.50803842145939 -0.9021139673393173 -2.336133642920403 0.16089603628884547
Ni 4.77818408666928 0.8733533798030544 6.5479682244338955 1.06264824941337 -0.01093464463463278 -0.5403229857711856
Ni 5.284994953901437 9.023172897940027 3.1217967277932677 2.7157994478864262 -1.6477899341611428 1.6196294125665267
Ni 3.8067774052711654 4.43036115053112 7.660601019114319 -0.21239883215382774 0.48133725126559684 -0.5696857552040189
Ni 9.124032248110408 4.9841666547172085 12.136432681101452 0.10615673576443653 -0.6727332559155124 0.4456307990029228
Ni 7.536630216680644 6.629798568463201 13.180918187129045 -0.36803619114689523 -0.23898275328994326 -0.4031448619245702
P 1.5379393241831323 4.994692790331229 13.576340805811547 0.8127053975674972 0.6467566293460927 0.30653591774956884
P 7.280383739462706 3.215674570169258 7.0800095848784155 -0.48148354703547397 -1.3155442703502955 0.6821324377422252
P 8.657787984010147 7.98700699901104 1.0963398470615926 -0.5047345471436147 -0.5087403258688981 -0.4579075594877468
P 6.197444224800029 4.760373460004788 0.13389189245728228 -0.09274817566801447 0.08319627031352124 0.6237190308003387
P 8.80930723970347 6.6415679484410814 7.199403406209581 -0.3841860614338803 0.9646696785843515 -0.3253607637655558
P 5.525530506047182 0.9814907745716508 13.398462927760878 1.5405196536175532 -0.24422189020169552 -1.6567373731624178
P 3.3939373935118504 3.0970506394219353 2.1618490757429436 0.335060507551823 -0.7099810845233773 0.4189756583092397
P 6.164926477771941 8.004182189667336 5.371365442163213 0.23078427663955095 1.2350497152386537 0.4584513478063588
