# total energy = -340887.86934647936 ev
CRYSTAL
PRIMVEC
9.09879032170111 0.00000000000000 0.00000000000000
0.00000000000000 9.09879032170111 0.00000000000000
0.00000000000000 0.00000000000000 13.31699935563326
PRIMCOORD
 96 1
Ni 6.622836653519985 2.0774176260382893 11.451127975677984 -0.2065557431094894 -0.45466822661484274 -0.9266656885367525
Ni 4.663930772412664 0.14698913911791167 6.137258776725019 -0.6693689674289698 0.7691323980725527 -1.5087541882804985
Ni 2.795485065439982 1.8014877084354846 4.8776040364768 0.7958942395474293 -1.3927755813296336 -0.8458222347261241
Ni 3.4162682379087075 4.2993877351259675 4.343592388515458 0.11660055680557983 -0.05718390541015959 1.3094998639284288
Ni 3.9474101273785918 2.5553042953100196 2.5360230485781035 -0.526515647574448 0.8038217219246221 -0.20728156553192045
Ni 5.28213898719882 4.820357176931144 2.3929445695731535 0.06387597271835452 -0.9551627675351808 -0.5836195916762916
Ni 5.342172806243314 4.46665989779859 11.282002389401336 -0.864791062519143 0.46031951136334914 0.8577164150605485
Ni 5.9727098820184485 7.954380936700993 12.383011530153059 -1.1160991701436584 -0.14319476235434048 -0.8766754726615548
Ni 2.2112972279510923 6.417213089320757 0.35030615995130454 -1.1121756667195362 0.43554358997024983 -1.3201390888098297
Ni 3.1439960340458066 1.5582042507798823 0.2937517183549188 -0.40668398542608025 0.6311490047158227 1.0488735642267808
Ni 8.010329398856888 0.036249580944719834 6.42622453133071 0.42744332946061875 0.03869304569482369 1.0392326987029068
Ni 8.61544445426065 2.2475650064766075 1.1284001393651726 0.09484876695078504 0.9475430462063938 1.2905788586542095
Ni 6.922150462445062 0.9883925021194707 4.512717974792107 -0.7781477141972857 0.2441532417472892 0.8962240842174436
Ni 0.6294770666937952 7.989929910785085 2.137751705165909 1.8818757643701012 -2.865444850962117 1.1907478079974847
Ni 7.725036825934777 4.467624369580753 3.5939521464335 1.3810186979040215 -1.2394082493176655 -0.40310912359062834
Ni 7.744717509565154 3.858433056078789 12.522480519007212 0.12084724789707575 0.8786549649854287 -0.19868353945026426
Ni 8.144855014887932 7.869116171883481 8.788820085532098 0.6510310883517304 -2.5754418978705647 -0.8115072634943378
Ni 7.128401843181735 0.5860157844798021 0.37357085711936533 -0.5069534091718043 0.9109238523214633 -1.2951893608430274
Ni 1.6958234555461693 7.097620635266076 9.209730129332987 -0.16712427658674445 -0.898400265933156 1.1807744988348567
Ni 0.1706305262084402 4.8655508688368725 1.2588758837901695 -0.462960548530622 0.8727617394294453 0.9152561611482302
Ni 6.459522464670393 2.215237004193327 6.706161556224693 0.34521842192143126 0.11418731937839689 0.0022844251588025177
Ni 3.607115366501955 4.282964418457991 0.24049740803580466 -0.30680562647118775 -0.0020707664860996596 0.48151311472182884
Ni 5.9946106705058835 5.728116198545567 4.568742866787342 2.1131038134152895 0.43115240288108975 0.06619845020394406
Ni 5.656890867311816 2.743594663801494 9.017499984599278 0.4671108232535697 2.115913514949943 1.6732366563690215
P 0.5460821033030248 5.870475873109093 12.139404155559296 0.14192412317203298 -0.5398329335086445 1.9370719499262703
P 4.195415857250637 6.1873139523402765 12.531309985209209 0.08070461423991906 -0.2344082465453834 -0.1275992219089286
P 2.553011400129782 8.610403724380285 1.4367845324377868 0.7285837872262291 0.18626973916694373 -1.8811648543460053
P 6.439696200393649 7.892618347480923 5.611450598186307 -0.4737890066046937 0.21953338631607996 0.2587864182794317
P 5.049865065924521 0.8992543822296272 12.519817303057787 -0.33315609144025854 0.5157406684461311 -0.11459921010483488
P 3.611919527831978 6.265527154599516 8.462473770335244 1.183268468901304 -0.5443135949878174 -0.7969098252961372
P 4.680199409643879 1.0837842206497024 3.9764161612876463 1.3379079827574765 0.47955007745818695 -0.4368296557715251
P 0.5088871580359765 5.994647065667475 3.3830103392467743 0.055676724737013794 -0.7321583919513649 0.19677475246332563
Ni 0.7304172276085876 9.385220319492875 4.651921278966646 -0.3411812757375801 -0.3994545575571765 -0.21273230423384654
Ni 2.3118934545888488 6.512923265514911 4.695920299693147 -1.174995173148918 0.6589752828994716 0.3728770641789643
Ni 5.758333281456565 5.300709618400671 8.700262468469631 -1.249302625613242 1.5511228830546964 0.3955040575498608
Ni 8.9075156260291 2.2331707200673336 10.078132333081852 -0.467715289606788 1.4553639455848162 -0.34196880463588203
Ni 2.209313691644378 5.5009921926364065 6.958905026256858 0.7253033167027444 -0.8156714221743565 0.732488521597274
Ni 0.7869680296888142 0.31345332920321245 9.028832528039702 -0.8304706919707182 -0.8457949810326143 0.466783521821138
Ni 1.6100127633047907 1.2973783252373776 11.57140761558324 0.6885005460520981 0.3784859257253094 -0.5336810549746357
Ni 4.285375597913399 6.88055989153685 1.3473070276661063 0.8340087870309636 1.7024490162669197 0.7021880708415197
Ni 5.60858538909005 8.036916064399175 8.015315535994866 0.09952508938053183 -0.21590504553487333 0.8550787203273854
Ni 5.516214468971877 3.314889515296742 4.458744860031569 0.70146481952225 -1.3131207485104677 0.4103130975382353
Ni 0.6399534139577888 7.317611189503384 6.575388281353689 -0.2773127592183934 0.8626439342691531 -0.014532903508852389
Ni 4.839965070238341 4.536347533455118 6.578624721098175 1.2418597961819517 0.5559020711563651 -0.10483236052605815
Ni 1.2578349821686647 7.854730984264605 11.791790327686693 -1.3482047366977943 -0.8096938644346829 -1.606751271052278
Ni 4.717540845436331 0.43406962435318475 10.269004938288212 0.3985942664394103 -0.0455280663387861 0.16694815602019633
Ni 8.3241830748376 7.421319202457179 4.546210622246302 -0.1583771265217337 -0.18056034748699226 0.33868550589891994
Ni 7.081543072633214 6.335469556387182 6.909658733107962 1.1751129296737053 -0.7540497927078175 0.006808795391717306
Ni 2.5789156563922355 5.487525982847705 2.460981684651526 -1.2228385178844423 -0.3567156239277534 -0.24966517270445393
Ni 2.530009658004216 5.275615154483617 11.166996408410629 0.5717408379608346 0.30085892196944963 0.9181779627807154
Ni 1.2807457363902521 3.319875652434721 3.660537094564388 -1.3761279454706234 1.0728113059893007 0.9186168500903469
Ni 1.6302575719398311 1.2583991071733265 2.517099384308819 0.08896171204238873 0.2515791018977151 -0.6947611822498293
Ni 0.9491039251818953 3.388544223566699 8.094298495921757 1.3253491722558592 0.3179541868888395 -0.3184288125324129
Ni 3.707948161690054 2.7174720365694935 7.012212109560279 -0.02948181150920084 -1.0474548295023831 0.6110725456809218
Ni 4.521143454700443 6.7440598379894885 5.893904348504313 -1.5738969435264185 1.5703336516551922 1.4946622289638065
Ni 0.5764666039573413 0.21930177580419702 0.3602211118477556 0.8827710440363314 0.9965346456137483 -1.2634573198470693
P 0.2275289020818616 5.958060829478038 8.167182536645022 -1.2968947735699086 -1.3308942704438047 -0.5966129186121661
P 8.645179301280567 1.6131063520400328 7.84246126541321 -1.5537556926918532 0.8813754492403852 -0.07035335291258206
P 1.9259591610769924 3.3691547012290486 10.16859432697457 -1.1914929136936254 -0.3766563287157384 1.3180030163034333
P 4.251418912148918 6.294688777824373 3.6345818850757063 -1.4359125217284237 1.0266031828643545 -0.49129256270609584
P 7.001482815923227 4.250736502869085 10.063150264812881 1.9990342505616796 -0.46312124247820236 1.121638869014965
P 6.412781978397042 7.57982013118635 10.169233971939533 0.11488537388668603 1.0829923602873606 -0.8212144634797728
P 2.3350407773607786 8.569359080895941 5.897992435030033 1.1229439609796337 -0.6262991328226891 -0.6343829382720881
P 7.091406161424398 3.970703030796886 1.3568025253252203 0.09777905322370258 0.9282911399553174 0.02287587615690899
Ni 5.449756903906557 2.7528754300072205 0.25135863413362397 0.1502994917199218 0.4511558425862101 0.13937513149793415
Ni 1.5075694822162866 1.2068999535219425 6.91228191437964 0.2177089315128315 0.26777165249717755 -0.29157621111594295
Ni 7.106191695820777 0.5992053910404109 9.396994154267592 -1.6636950354271736 1.895124401849891 -1.2669902727009923
Ni 2.7541947546148973 1.695013663200768 9.141826766473462 0.932585396455297 1.054192662446849 -0.6423114490905454
Ni 6.4679297469979335 2.143347461260538 2.4291668541466804 0.9193655553309134 0.7780011613170924 0.47032264532264806
Ni 4.255395083552743 7.034283955307192 10.4748723500701 0.13484947571343872 0.15431118398247617 -0.3037971786621671
Ni 8.292464691510972 7.450171466808511 13.200169346381676 0.24585222671626694 -0.5895002188267847 0.6006503219063333
Ni 7.8143232561081035 4.054384606085186 8.039419141637602 -0.13278025188923584 0.03526602229114572 -0.22855358753681926
Ni 3.1684444838446173 8.640147670190599 12.432791012419266 2.5268030538169386 -0.5919548510148643 0.21023242063012826
Ni 0.36755655666643866 4.948932184042047 10.226936680884117 -0.9923077520165942 -1.2283599619233039 -1.612030002952714
Ni 8.743901177096381 2.5169892889450063 5.656435927791927 0.09948472306089964 -0.06740892557227746 0.0017897449105711114
Ni 3.611446390731294 2.7737207588085138 11.494261701437658 0.4636873993943175 -0.05227566947526481 -0.19245272804920405
Ni 1.036543300904475 3.425567201695229 12.99262411765044 1.8484578510312875 0.1636795125712536 -1.5728757013507557
Ni 3.109002086175979 8.548759419435386 8.062711135176855 1.2431096094286527 0.2317713231431686 -1.2560232321665272
Ni 5.857546491953861 8.12816783329842 3.4597295201227003 -1.2161387372667636 -0.9311329802794867 0.7783991680864594
Ni 3.147863019964859 8.564072683674835 3.494873598034091 0.49683534690119596 -0.21179642268313847 0.9331050164041931
Ni 3.5645603238115795 4.099778471379666 9.156795186556835 1.1455128474190854 1.0531138275603733 -1.0177627017545892
Ni 7.690907263152737 6.188596881786362 11.208319474881147 -1.0474753983276734 -0.18262674309771773 0.068351749101521
Ni 7.922717146116749 9.017256137016618 2.6078680074379434 -0.6307569114837266 1.7886151678420423 0.06846462053030145
Ni 5.017591656383626 0.47126183998311366 1.7349255072805905 -1.1012073406334904 -0.8464755520394066 -0.8496806892402656
Ni 6.231925321660548 5.807594132670098 0.23149051542105112 0.25293844413908695 -0.654553499682692 0.018024461601878636
Ni 8.313027957809934 9.083040391592501 11.212939840645136 0.22553639797705027 -0.6862390037114311 0.8948724552855557
Ni 9.32544126657952 4.892856338820583 5.683269170553993 -0.09535733115608738 0.6614278582050223 -0.36345345687221925
Ni 7.671244777103154 6.545069291990236 2.3641532671174867 0.32249526929230266 -1.630123113008999 0.116746852575457
P 8.708543277610644 1.8460808801749602 3.462526488290975 -0.5147911600486682 0.11025147465910046 0.0013747688603395678
P 1.9771489558548523 3.490159514729006 1.678754124759951 0.9194362606678488 -0.808114178652389 -1.4582186414247917
P 4.9475309703207895 1.2072912015090465 8.034612250670458 -0.8054160629949354 -3.06188304602163 -0.3859413535620902
P 8.787966618992787 1.8389565272935058 12.231957051485423 -1.5357610558866455 -0.20829329462588644 1.26478683729177
P 6.54386825165773 7.858115734292575 1.3078892479048827 -1.4705987602566997 0.03231722407546692 -1.1701787255968814
P 1.9870211434364338 3.401409913189147 5.989640001311581 -1.4585384866580557 1.3806386888567834 -0.3162914544744359
P 7.132933040799825 4.308759489235671 5.824815413255958 -0.4761505648583348 -1.0551370286379893 0.13294377405029364
P 2.543585053277691 8.981779953255709 10.132239200061237 0.40033541750023316 -1.6856990505020903 2.320421374391468
