# total energy = -340873.3882217418 ev
CRYSTAL
PRIMVEC
9.17778642960105 0.00000000000000 0.00000000000000

0.00000000000000 9.17778642960105 0.00000000000000

0.00000000000000 0.00000000000000 13.43261814459091

PRIMCOORD
 96 1
Ni 7.775411545531365 4.489956711829044 4.595513187708525 -0.04897797256059952 0.3278531911701063 -0.008159652992656913
Ni 8.125892856416709 1.7736164190296282 7.91691649335509 -0.05464468392807363 0.374954001312651 -1.6336095288957029
Ni 3.756055014307664 2.9972906931561285 12.923991914446475 0.5367373253024563 1.2946412016490412 0.5866820326516993
Ni 6.982597636462562 4.307493138410392 7.667727658741043 1.23864154635497 -0.6904445571523463 -0.4161962957918897
Ni 6.6237461842886605 8.471978007568259 2.324622269388177 0.48618969426189174 1.2413244925037719 0.8308296179720338
Ni 6.922813535197579 0.1242048202700724 6.744679123671266 -0.5530700010242088 -0.01427630741335606 -0.2631770911479597
Ni 7.038279267161769 2.4391527849079546 5.298952894055725 -0.16816583047738135 -0.8177241909383272 0.37136628396139265
Ni 1.4551747608179189 3.3562339231950347 12.571264799204432 1.559935853360636 0.8615877250904969 -0.30453302838692714
Ni 4.4768691882791725 0.8034858392117145 12.386002000903092 0.9739781004694709 -0.6663414934565557 -0.31542910647414063
Ni -0.1386332184276834 4.827919521927553 2.5673361756260418 0.6162805722444226 -0.7914621719180047 0.9731098389319046
Ni 8.77512947346995 8.148947456106244 11.260241859837015 1.3518451616638587 0.02572645823182666 0.08811273377853213
Ni 2.250714472477404 7.063316268735438 4.57141507369387 1.7825036556276659 1.9277789546601185 2.1440794358611974
Ni 2.90453080499445 5.359625405053967 12.282638098218609 0.573459106203522 -0.06661316914385947 -0.4056084929737144
Ni 4.172698988075914 7.478188929709069 12.896173125784474 -0.6082484459685654 -0.15713425525356808 0.044253570501736686
Ni 2.9538981185812383 2.882862051066507 4.707837363353556 1.749559082380845 -1.9101342449951617 0.6440384590839812
Ni 8.111098264577723 0.8668823172433369 3.645518671472952 0.21152928506468088 -0.586317450223429 0.648688813371799
Ni 2.306111591795094 1.3078070429776039 0.5471291533406905 -0.7137721761346932 0.33335920859000007 -0.44305892451068857
Ni 1.7408884323684481 1.762171719263366 2.8325898077307587 0.7007778207575543 -1.1614732274030835 -0.34155691390944404
Ni 7.097953234988744 0.8563654916922865 11.702161457627948 -0.016735567587126014 -0.6294392211135675 1.535114423441582
Ni 6.021169433804527 6.862185077574542 0.8128288258693368 -0.18336593525658743 -0.9574597910994737 0.7020263484526749
Ni 5.446887799101778 5.154804743719825 12.507983961282719 0.1739497841490101 -0.3493910652418821 -0.7759681900474635
Ni 8.427034387074764 6.403038774521962 9.309139898786665 -0.1500655213322448 -0.11134573616454373 -0.3004776273706309
Ni 1.9818603947284976 4.906775063540805 7.186625337043051 1.4651763036895478 -0.37932847623126287 1.8716792834530733
Ni 2.458104914031717 4.137428754554065 1.2313845325656636 2.9912106192067323 -0.5975541994795128 -0.22520241167639926
P 6.512401278463245 5.559646084048288 9.970105726987688 0.07349729785820244 1.1587735690837333 0.5585472220886961
P 0.009839504907305341 4.105939769070467 6.234293238585772 0.16193604751758564 0.8918159278474189 1.3406701188836458
P 8.53039461864465 6.487153187800064 12.785528485069053 -0.01785811122734344 -1.382641063998793 -0.34332686132567325
P 3.1855913387891697 1.5017612050950218 7.352423885733893 1.162302151062282 -2.032221793057242 -1.8989931407766778
P 6.179853362400096 2.1815506734087977 7.277805728147973 -2.1517611207761718 1.2655676813218528 1.20169556525824
P 8.852131102210077 1.0941757066028754 5.834752987740062 1.3270939228611078 -0.7280762514621912 0.8196499472061304
P 4.033940033973172 5.80349069358303 1.0340657939171218 -3.105161139983975 2.584132226555711 -1.2136756204382517
P 0.8556431998946884 7.9915575954072615 3.382951377476964 -0.6676321872435211 0.9337825020871918 -0.5191085564770995
Ni 0.1283669464480996 6.3028632348677895 6.959358563264363 -0.720869449301107 -0.03688838838591711 0.47843010492113097
Ni 0.2713963246095758 9.206880083818204 1.7276760909221682 1.1821158433540997 1.632465902209563 -0.1145786412795446
Ni 0.3201193575840209 5.173756872843587 11.175373950287211 0.7319236502327395 1.1404724567817004 0.04281221006951982
Ni 0.543490160993198 1.600605965706605 9.433243763405232 1.7336686364028335 -0.033673995213677484 1.118585684010938
Ni 3.0022650534394595 2.839634676648628 8.848334251934775 -0.8669793284197134 0.7978876158283742 1.5204164551097752
Ni 4.325169555210569 3.585265585317789 6.935112686887049 -0.009682260284770422 -0.48919042876142843 0.34430028098253607
Ni 0.41959830324279646 3.215685300724674 1.0703446661753881 -2.1915661685882513 -1.5887831166096316 1.0430168483356876
Ni 2.3307447707627342 6.203109873392646 2.505102523144047 -0.18647748430237562 -1.4849462872276233 -0.3922223014747954
Ni 2.2598280144725114 7.888068874826368 11.031564460273184 0.24513566026521652 -0.7047563457893281 0.04901808176991558
Ni 2.1217206832113127 8.754607942854582 6.54310923431564 -0.13573650630408235 1.1803559232401994 -0.8558495370551389
Ni 7.979901806551485 8.341607550327076 0.2207679831576038 0.39685542937143264 1.585650998738553 -1.1535326323997683
Ni 4.572465012469539 6.729052106596674 10.680409499858696 0.3479067673868718 0.010375943917685357 -1.0695249219285452
Ni 4.683800740508455 1.1885325296156597 5.535568161163935 0.9347240400648548 0.662239298362724 2.639298844425525
Ni 0.05348997528286259 6.258479459350832 4.417464129596666 0.32810593061086074 -1.1861686732672345 -0.7621014593677004
Ni 0.0163731711170905 8.725266559412129 7.984791731199011 -0.24932758685937706 -0.7581170207986557 -0.09095663098523045
Ni 6.986103550905795 6.811918340910694 4.726494885530648 -1.4504276846254633 1.2826562613730232 0.12301983006836233
Ni 4.70038500071506 8.991927146187388 8.122261206298417 -0.5242165671276262 0.758445864892984 -1.1784687335198156
Ni 1.1054093172796235 5.733069537763839 0.4068494400147974 -1.3086156615512623 0.39949312410459586 -0.8923309198106244
Ni 3.125816415310689 7.17851584489111 7.953641406037286 -0.3121177827127205 -1.588477926664387 0.08834927526937042
Ni 4.602228574091022 7.577391623994177 3.29490061156875 -0.46404452562342013 -0.11199442549213616 0.501702188075194
Ni 5.461664035367763 4.497500852332546 1.3858026259957485 0.3842107440242286 -1.464887054583903 2.106607407057669
Ni 5.7313257583287225 4.984465026268479 5.655441066205719 -0.750185938877037 0.125054601110204 -0.07387113625785344
Ni 7.65191525037914 5.023488974469079 0.7295633578425411 0.3649608946556811 -0.05419088422010668 -0.4413697097337237
Ni 3.832386664633248 5.167176399922649 4.010697289660374 2.1082076616652534 -0.2527175863775325 -0.7689300522537595
P 3.4920100966850782 3.2621616115637697 10.919805636276593 0.21285520296495597 1.2879553049884334 -1.6228386635324439
P 8.046560069905425 0.2934331077761935 9.70708137922397 -0.962093176106427 0.4689741017145536 0.31601094711953964
P 6.32944210457356 9.001637244305035 4.69484804211924 -0.774499318811421 -0.68913997940831 -1.8459014031580212
P 7.994760642895974 1.6827287993140747 1.647027209826697 0.3736993029699435 -0.30810660467079837 -1.6313590422986293
P 4.151535012405504 2.157725139653211 1.3607243243828282 0.1990319239286185 -0.66661017373691 1.6032129188817164
P 0.2758695777499737 3.017472645670973 10.984308955360188 -1.6607488083146558 -0.041433584554438324 -1.2713459785665264
P 4.176324213743655 8.928343441311155 10.199964307674147 -0.3686542843468683 -0.36188456972320254 0.932655330461284
P 5.491069663315722 3.4792713290222297 4.052324975891197 -2.5274666555428666 0.6512601736434009 1.368573273051817
Ni 2.9568900769804376 5.178061254712374 9.561780498903593 -0.613658304130227 -0.11362450489639142 0.6708144416262447
Ni 0.45698126321708626 2.6916795804722735 4.590758176522558 -0.8848788344079535 0.647387320951556 0.42059571041116595
Ni 2.2401416624287 9.185128729811755 8.88505916461697 0.695248406298893 0.6259664320736187 0.8273493727329171
Ni 4.1330876615392755 9.073168912290798 1.3669303436145415 2.3466517688429067 1.3212983992252534 0.9224143694595662
Ni 6.97220838214387 3.189904898444457 2.7230602680751637 2.1680246338228857 0.23786200942193872 -1.161776103355483
Ni 8.93698891619473 8.101369810887075 5.483745789688233 -0.23463424651326042 2.903151364373955 0.5302982545453319
Ni 7.691581643634781 3.656053852597004 12.318328674362187 0.7226681930727425 -0.47459144790133106 -0.5988785747178913
Ni 5.367114478838466 6.020426033097977 7.8750198979798 -0.3146405491345743 1.0292581039886985 -0.06108941111215286
Ni 1.8046189818286928 4.83282045991888 4.9649108343502775 -1.8843458231771482 0.45750183940889594 0.8688189527316132
Ni 5.671771101726256 2.866488879949417 11.471751291972803 -0.42805885155743056 0.38885852720888514 -0.3756327725472305
Ni 6.106605448338717 2.481664291978786 0.4183629731798142 0.9899773041112047 -1.156793819649543 -0.1406120892288288
Ni 0.44211692020069626 4.027653250220253 8.734667366124704 -0.384701310507402 0.5009871642860404 0.5880830267642839
Ni 9.106530166220521 1.5435384892458042 12.688222839253623 0.7322962030808098 -1.182828296040092 0.8119086126978146
Ni 4.341056303643128 7.822475234706499 5.851933804069206 0.8743571089410233 0.39541921114553835 -0.39160420827482234
Ni 2.487822586720696 1.276400657572512 11.33898359689766 -1.2457899844742932 -0.04050824452669152 -0.8756007515401373
Ni 5.908108281903497 1.1145871037802346 9.878415050953333 -0.7061689098661387 0.5350838488594333 -1.9136479145753753
Ni 7.564506011747318 3.0558174376705263 9.701909696530876 -0.6165477098628801 0.5984677124327177 2.052789075685632
Ni 5.11749704159484 4.139888401336228 9.419180641150346 -0.2919582770457101 -1.2513934467039998 -0.048545513008871236
Ni 6.590485886010446 7.3083998794477605 11.952867380350547 -0.1696601556347207 -0.09717792930459393 -1.1471562965597792
Ni 5.349080128364765 1.3460417015391501 3.2539447393097722 -0.3098588114752147 0.1838917258530704 -0.9532251841928358
Ni 6.555619475094623 7.976331647602747 9.198079504342768 0.0478896245924272 -0.9412682689412756 -0.09815957649157288
Ni 1.2618997549015463 2.3554789053818816 7.16980796105933 -0.8310448193066332 -0.14383445282086843 -1.3510902857757054
Ni 2.322181895957664 7.9441818614911055 1.1289255596301397 -1.6634577226053868 -0.5550379233838569 -0.4175970327941583
Ni 8.751496673230875 7.00135703206981 1.9092319812559104 -0.42437728894078525 -0.6178060077500135 0.46186165903948845
P 1.4666561717301836 8.830756037450154 12.870987444069494 -1.1016071471750706 0.6093429645843248 -1.214409927501115
P 7.13136955563747 7.183627871971951 6.969903839953567 0.6138398240134137 -1.4729760022396245 1.0745005207662657
P 1.769669970834365 3.87685304022871 3.1642685874122995 -0.3243256376328221 -0.2393244529000782 -0.8093339099921029
P 5.9732063215523326 8.973608284332169 0.1278832770995174 -0.3673509921544125 0.09442993424581156 -0.4099793683479004
P 6.856100205124637 5.924609942031596 2.8044892610231873 0.41810328300661537 -0.33856774937413303 -1.2215627364958124
P 3.654723073554415 5.817486817996462 6.114849853952217 0.07153323215329616 -0.49933317362238516 0.5612093423018916
P 3.346615602942394 0.4494371227135838 4.16663706009226 -1.2556406520161278 -0.8536584429410912 -1.4701421323352553
P 1.3947665700708956 6.648893319300336 9.241413341084055 -0.40472017683149003 0.09657834804738206 -0.19388971760604673
