# total energy = -381173.44702540577 ev
CRYSTAL
PRIMVEC
9.16213978943213 0.00000000000000 0.00000000000000
0.00000000000000 9.16213978943213 0.00000000000000
0.00000000000000 0.00000000000000 13.40971770511287
PRIMCOORD
 96 1
Ni 8.724381911940117 4.352932613713361 5.53227316898869 -0.4825361566697045 -0.07587094029670159 0.6668929950846515
Ni 3.2484366621596967 6.261772817335844 5.084495575940978 2.1956197698323345 1.8567409169756863 0.4077373663912591
Ni 0.23744509855553375 4.832735550179245 8.32624112741283 -0.013008496444525983 0.019759699125430488 -0.7002291473429361
Ni 6.634937608798548 0.7594067050461292 6.899702375776669 -0.010767780039465326 0.3075576741458638 0.41549618440107156
Ni 5.014173404419121 5.883037444881477 6.600785732735369 -0.04005238793619554 -0.12161986439704216 -0.16796348465858815
Ni 5.950351685910634 0.8819695652164197 4.496681089717558 1.10735253429928 -0.3224127368808254 0.06222943825386702
Ni 2.347624240253395 8.671186528325679 6.2980484774020935 0.1687805812432448 0.4368751642974799 0.09333978650542635
Ni 8.666413053495654 7.241663667760268 9.016238210060079 -0.4963707485599516 -0.4732596164637849 -0.10561011923234716
Ni 8.641336276893396 6.404748008741858 4.485953140238719 -0.08357345114728187 0.695422212872596 -1.8357499165463156
Ni 1.2600049501909125 6.704203385602744 6.143326506572713 -1.4001939852808918 -1.4884460728507656 -0.1531809270327749
Ni 2.4920104011869015 4.290327712535706 1.0283365807722895 -1.4639606861148917 0.2848797729323739 1.3296552558303811
Ni 2.7535986543002045 1.6539769611142432 1.0611388736445617 -2.6764474284513646 -1.3894136068359362 0.19076942680951017
Ni 4.269996924344105 2.644092759543096 10.163734832285057 0.8321485938937734 -0.4504305343844114 -0.8502105936018068
Ni 6.864476696930229 3.2701600955992136 4.204616811024389 -1.0807889248781386 -0.23750411186188772 1.1812928332321722
Ni 0.7022505284009429 5.386174604128635 13.2959094378073 -0.313854305787853 1.9069103387412256 -1.2465093791388209
Ni 6.1458534247264955 2.4427089269827515 8.684347942132455 1.2255464037339086 -0.3796544921121139 0.5314925319637491
Ni 6.09009264197116 4.541461964149858 2.242601380495003 0.9845849294510396 1.8042369335396993 0.2874490763214469
Ni 5.468084133841533 1.3145838169134771 13.325397784717921 -0.7647728355522765 0.8773205624447213 -0.8279939482954514
Ni 1.2630101320416764 2.884626415421473 12.865216486823977 -1.3645273851172177 1.6008513606280752 0.7712047072205492
Ni 4.297217641656971 3.0380556083266383 1.2793123273680924 3.4262032217695184 0.9590795860910836 -0.10712629876655744
Ni 1.72272049595047 2.788607190433648 8.877675505176407 -0.2666200553912376 -0.3995584301248925 -0.8542454257928127
Ni 3.808481618896895 3.859386467564105 5.075604635489815 0.6344772977581072 0.08427613364126131 1.4067942642062288
Ni 6.830146159141165 4.2890083644061034 7.241555554510759 0.6268791736958752 -0.563975335082803 -0.5040028111839125
Ni 4.124795332969385 2.9941506344581588 7.747088528145851 -0.9255022643562705 -0.42152233599049344 -1.1185100935779961
P 3.276188783580319 1.1149407909130264 8.559463395739654 0.27472314411434623 -0.3406961085710455 0.3504619297085577
Ni 4.60704456075891 5.220523116745058 0.36868633753388413 1.2944787079292481 -1.1303991317060984 -0.5786771600693518
P 6.053590677052124 7.4870807441461364 7.483869414150122 1.0417950601134445 0.6792831412188882 -0.38126091736728535
Ni 2.565646518670409 4.521845822861791 12.212498318549864 2.1109931948301903 0.5627702590311082 -1.9650239550545066
P 4.07106854524719 6.2571642610220195 10.049712002612013 -0.771164083790601 0.3965258139461558 -0.23618873548457386
P 6.228001170073903 7.451504155345781 11.741401247311407 0.31478170269812883 0.54054384353274 2.2296861153884246
P 1.4040612740920178 3.9911013891695424 6.514695518636791 -0.02992558391483878 -0.6502834115524284 0.3731375169292025
Ni 3.6955765702781 6.71891778210374 12.148802206523351 0.37748525237493696 0.7974237888180783 -2.10349123002619
Ni 3.7900932043405438 1.390748684978725 5.733566296365124 0.6161504744244615 2.5754742937703967 2.2178063332317035
Ni 3.0260073945042154 6.658356038099015 0.8362230012503687 -1.624537134280789 1.3400193726735246 2.3526606940411483
Ni 5.046808946347236 4.91693561483937 8.692635097571529 0.6478040967740004 -0.07438201445600094 1.5916789501001878
Ni 5.80619457847185 5.320646980358318 11.221815383668078 -0.7370920818075564 0.021523733004388736 0.319840605278275
Ni 8.567196241721499 6.609292779529377 11.365124993176385 -1.4512154706340814 -1.784814048928397 -0.18693719754761354
Ni 2.9957723332007973 5.052571932274463 7.428715165048812 -1.1273240923252004 0.4618655156942304 -0.12733568383489682
Ni 7.848151511087475 4.28447310521059 11.844360793189336 1.9870693648903197 0.678918815900934 -1.0361327196213446
Ni 0.6254360646246611 4.222161392506181 10.62923933339636 0.19383983820471778 0.43665173543276414 0.06901406527586824
Ni 4.991194757828524 0.3245101643276532 11.204247896836813 0.3647161256347267 -0.4521814556372471 -0.6539001823694094
Ni 6.628478300247364 2.425713157674315 2.027375387141566 0.8268112408412599 -2.073304936250797 -0.48433747154450135
Ni 1.1572882010173902 0.5880948477009604 8.937362264831291 0.658108564023802 -1.6408160739464708 -0.4366977581793512
Ni 6.595494597007271 2.4548579243428525 11.300301937955837 -0.881107026070347 -0.5064394456498633 -1.791312769278863
Ni 7.024814143236235 0.14688376023996447 1.0459791971498236 0.8558073709632938 -0.16934545260777933 1.0611654942202564
Ni 0.8098946763529435 0.8072239126044749 12.727726668509586 -0.1830376053828912 -3.2605059074372877 -0.35548509395476197
Ni 1.571774242928101 0.35817369834008345 3.079863368397435 1.7571345807352576 1.7379191841490713 -0.36734147907271575
Ni 8.59883311041262 3.843856640621895 0.9449033872124957 -0.16440070700799428 -0.16942824212957275 -0.35323306469579163
Ni 8.312781944062916 1.9749908528984468 5.621018571198095 -0.36106233093222334 -0.6675211155869536 0.16939096113373409
Ni 0.9377266831158388 5.708416222644553 2.2541465928430147 -0.19985339138864935 -0.4508671077011977 -1.1176027512723785
Ni 4.569846273215916 2.3389202074539264 3.4957796203291953 -1.3225055321594772 1.102273834224792 -0.48124186333831315
Ni 8.708183248793317 1.8646786898399141 8.08592553046143 -1.579224783497235 1.5739781903863153 -0.06015044423765124
Ni 4.843308659495652 0.5504833476534869 1.9892782936852802 -0.4929630084299833 -0.8149242595956869 0.4133518843645591
Ni 1.5502890251230959 1.7993068224460078 6.471449302619135 -0.5141599542225725 0.16097548337652923 0.2758606001528991
Ni 3.743888533385047 7.395532643375301 8.027901699178233 -1.3193309910862376 -0.4217838171819962 0.8191069302184668
Ni 5.263411093096968 9.072882223091066 8.717415937058606 -0.7734464520668745 1.5382781658815443 0.4655128826388306
P 4.237645408749447 2.880384344699206 12.252338050994002 0.10034912794372394 0.22401481912620128 1.084956425992267
Ni 8.424321833853163 7.712304464437237 -0.015785450642321088 0.35516113495643997 0.14999301622309652 1.2462602392424924
P 8.034087975963708 6.378700045321972 1.9647512454703557 0.4249922968169649 -0.7434319079826551 -0.10967040534464984
Ni 1.7149693256890484 6.670193522706293 10.448181707957723 -0.3366872445219686 -2.67685751940559 -0.6779369116036389
P 4.061558244146297 7.7664710348693005 2.576583364936436 -0.24418280943364398 -1.451482608252539 -0.5667387567605531
P 1.278200959811697 7.522309171634513 12.438693225658591 0.9056695459010596 -0.27480310542266223 0.869389994743735
P 2.4520634717072336 3.2539431081728347 2.926925266184955 1.5983951857780987 0.111866127444388 -0.28656230284111933
Ni 2.5430343576713677 1.6152760826458679 11.372392402456954 0.3867718198831855 -0.09285950443489814 -0.40501919612914766
Ni 7.462113913221344 0.5072188073562529 9.788557118710726 -0.26480177123557624 -0.20031464729578405 -1.954720773356285
Ni 7.375265990162221 0.35101531852300444 11.977439041195364 0.3161225329967394 -1.0259280111742008 1.4004891479238075
Ni 7.183740620014749 8.197833738271191 5.3077137038322855 -0.19678863642039657 -0.24405425427557967 -0.410274530990816
Ni 5.531119655589266 7.573186533882357 0.5135764161557808 -1.1447631137372543 0.5957672827824191 -0.36581964311155063
Ni 8.826878769758707 8.31274529550376 2.6888360692022615 -1.5360405348002772 -0.5837658874461688 -0.42932691963657676
Ni 6.933073637529832 5.751194253318995 0.18663645235610743 1.0314039466871077 0.7507973472087909 -0.37533992389716003
Ni 4.716458834118129 8.44502826977611 5.959747460264166 1.125475469152236 -1.391328821580778 1.1184000503626932
Ni 8.966491455862188 8.784604656772654 6.957108678838092 -0.4664292238055129 0.35793972614284164 1.0735268439990866
Ni 2.8435708670273465 4.406870130650701 9.780605297587925 0.7428793779132948 2.0137031654277644 0.5527444993639901
Ni 0.017733321561444346 1.1488773566911665 1.3860686639745472 -0.8014578496781359 1.7438070103884162 1.4915792191631085
Ni 2.752884007396669 8.592300504743124 10.394985408129305 2.052420379492304 1.3744261322881683 -0.4771481528849137
Ni 3.6224077219238273 9.165163295045014 4.166707541433776 -0.6927078992652262 -1.5851156950603733 -2.8397713574554126
Ni 0.9820714396941859 2.3813775632357572 4.072397055516583 -0.7953553363248238 -0.15821437569162428 0.6245237860898212
Ni 7.818988420139359 6.442312781876407 6.673332471797975 0.09075891315212756 -0.4193651804381745 1.241010817918095
Ni 6.389346451756691 7.289911495888693 2.962394657949781 -0.890716524135653 0.18737351375408376 0.4113700780478399
Ni 4.007959726381145 5.150212856004927 2.9809534883062065 -0.8132036773601543 0.6156725063467785 -0.16388031572815
Ni 6.438281440369285 3.555881424916518 -0.07552993177787588 -2.8799245326355307 -0.499764604732849 1.2570563014167317
Ni 1.7638859900220638 4.786283501449447 4.461426092023794 -1.968076882948217 -0.4539858558358375 -1.1034400866187513
Ni 1.6152119476673454 8.655345188630646 1.0137559515122105 -0.13107895292741298 -1.8544505782796128 -0.09957702566438979
Ni 6.23158356673137 5.4839071492569875 4.867190693069437 0.9113473130121272 -0.051638293001582035 -1.6106241237441228
Ni 0.27704753157913853 9.104821442395222 4.829040459202376 -0.0315651764007908 -0.15535942274133244 -0.14596409756936152
Ni 9.220869104961615 1.8244660583063677 10.86806699884604 -0.5866390952289058 1.4326425927279003 -1.1278077168298384
Ni 3.4624734097685326 9.057040883396033 13.034432962799421 0.12984328074809898 -0.5097764804428964 -0.37829412142947755
Ni 6.50620038262451 7.234288145230191 9.703781671671857 -0.7476996821200735 -0.4015998860349535 -0.8222878990496097
P 1.2628452135254762 7.579077789766628 8.072945527022474 2.1058754139876505 0.30310195236735543 0.13275994017426168
Ni 0.32761154864620085 8.564255194849256 10.76002429781322 -0.09651098514455636 1.5466306516112975 0.6371772131877735
P 7.88643093112556 1.2367697636862247 3.3903792804114996 0.7264114621652585 -0.305742475313996 0.45916380049235117
Ni 1.6776977410277434 7.282728378294183 3.561527135454447 1.484986139326623 0.6132718673250858 1.2034788824109082
P 8.076435386068072 2.1535976059435495 13.134818863610644 0.33076599394152706 -0.9650926250543831 -0.5841299556538069
P 5.624591805715772 2.7978059787817178 6.006467043475799 0.09963436126488648 -0.4529808116100908 0.191117039956916
P 7.812501625168807 3.686112079876151 9.46380140903673 0.3200149260726101 -0.4020971373863462 0.23464324537432493
Ni 8.69153564079686 4.116173759428017 3.128031485909696 -0.2226130536826682 0.3720280859151076 0.8393404836565221
