# total energy = -381164.383565697 ev
CRYSTAL
PRIMVEC
9.30185036386265 0.00000000000000 0.00000000000000
0.00000000000000 9.30185036386265 0.00000000000000
0.00000000000000 0.00000000000000 13.61419825296148
PRIMCOORD
 96 1
Ni 2.7777930139742986 6.051281641604016 2.376358632642741 -1.1058674651133213 1.171959214536072 -2.0864507296041355
Ni 0.8188344588777554 4.284404439160159 2.671105439554692 1.319357730559115 -1.9338351881565277 1.591735000149104
Ni 1.4310152860945191 8.45588441313404 5.25939650402261 -1.2386019513662863 -0.1916232901693732 -1.5963735273623798
Ni 3.9548677811573345 6.122357081347702 6.278146334052218 -0.0023402180974024214 0.5906659570001118 0.616433295772203
Ni 3.1322493294922826 3.6354236309574026 2.2133557948680465 1.0740467210582987 -0.6789833505902823 0.232278087576258
Ni 4.694606744782045 8.80800596417412 10.13664229300507 1.1399124705131722 -0.40451731679206465 -2.0572411979197147
Ni 8.5901566252398 1.1622290137697493 2.225635167725741 0.32895130933029154 -0.3835006053310815 0.15164597844548722
Ni 6.154978671084793 7.317998342147856 1.1003549645501376 1.8744221363055331 -1.2004066712434875 -0.15567541131985446
Ni 5.55816264053975 5.1507508900707375 8.100856963994767 -1.0397114381115384 0.1963384362568554 0.15225687255660877
Ni 8.98239705752769 7.320277295522702 9.1886311757307 -0.36275591658456235 -0.9142416038407868 -0.24933272906569964
Ni 8.909833321702472 8.558223372440418 7.10877646956117 -0.23626818257225762 1.1244997355025277 -0.08243728066030964
Ni 7.626624440205149 0.031169570872545363 13.378564160745483 -0.08939288604253637 0.5512506884272829 0.30883654085828743
Ni -0.0030398447465301336 0.13337737408673894 11.957554875244115 1.608816381111423 0.5111489353103906 -0.7559680927764529
Ni 7.5472331461059 8.241820927357118 11.150191458414774 -0.5376379827398546 -0.3768231933109059 -0.09871750587757191
Ni 2.5350798286278766 3.129533189143486 4.401837511288431 -1.1182100458390742 -2.0116701941581354 -0.09460811169488867
Ni 0.4951440139202007 4.558502068125898 8.153053367944214 0.22831421783250358 0.3465147721353516 -0.3750367908344444
Ni 7.331272082825024 5.241574158446259 4.064818444735701 -0.5820581607264427 -0.2133059173491294 0.7120824471370962
Ni 4.022036443686998 6.14425363744725 10.314062068884558 1.3758592651902692 -0.1668756509110481 0.8147018591722355
Ni 2.1753679675719804 4.179730715375877 6.4774040643730455 -0.10384839934623404 -1.1550238722333142 -0.11059677381366113
Ni 6.848822304295245 4.169582396469926 2.0832033723529784 0.5418854451622991 -1.9633712499424316 3.307138776804479
Ni 2.7679888635372034 8.066434535999022 11.199216861525505 -0.35601474120598686 0.32689185569810153 0.1766990647593731
Ni 1.6241403063743802 2.147880999316177 0.6852338403787867 -0.5471055559106578 -0.7667677544951182 0.5812914577637472
Ni 6.858477625124187 4.868374614151474 0.1808875057494602 -0.12305222596819453 1.3696073707432863 -2.087665318737527
Ni 8.46183759746017 0.0932129137714315 4.777753195932012 0.5534296983564727 1.0952948318037976 -0.42698258777411624
P 8.267456827361515 8.066583365607176 1.8666562924899992 -0.9621497403759752 0.03215164503188011 -0.37744899982036284
Ni 4.405551740196905 7.991396507938255 2.3158705591490563 -1.7812744112062546 1.1950713750735031 0.7660848694954807
P 1.8130701920744217 8.050723710488345 9.007657162771501 -1.3774942296905308 -0.1875072111184706 2.227988158860711
Ni 5.58311020360644 6.276228292477144 12.381705305705115 0.4937338251577368 -0.27693660682589727 -1.0018092637491263
P 4.948984450667479 3.2799162063318357 1.167509674304037 1.478735530431221 -0.5232449472429762 0.6556187077224128
P 4.1081622775551825 3.058290316090627 7.936124912210342 -0.44587788201672235 0.17526490341600784 0.5045789954023567
P 6.240881260540747 0.2179256141084984 5.317134020320613 0.6181464218085676 -0.05947707231971047 -0.3205412308897254
Ni 4.138290971355706 4.408202767592134 13.209624881975573 0.9662187682390263 2.0584750703268164 -0.619628662781049
Ni 0.6048612010507767 7.1713732725653765 11.475203696329737 -1.1489900073344084 -0.3721892940833203 0.6940237898631725
Ni 7.340899498102438 7.56443226769811 4.116634402999305 -0.255617790743463 0.11217337427216165 -2.198877357537684
Ni 8.010176944117093 7.024562165972705 13.332792544943002 0.19088435512081964 -0.5234591201363114 -0.7698101408658679
Ni 7.036980136402992 4.017432027684757 11.746276363509763 1.6138688559336658 0.6469582038339374 -0.5776302068620761
Ni 1.6962575533751394 6.70188097179544 6.87406752657824 -0.396030362366976 0.6416205936711078 1.8104656880582304
Ni 0.4252322356752624 0.435318232182798 9.68661132387127 -0.2797771615984859 -0.932691068795226 -0.7112332117629235
Ni 7.231500434259289 1.6296842092780888 10.316158705989418 0.13221178098027556 -0.30778213145184413 1.1440087520697328
Ni 0.7207790017310375 3.556385807177517 10.468597432140385 -1.169376027189928 0.32089964267040866 -1.5410608708330042
Ni 6.64848834987046 2.7490595977502115 8.397414841200934 -0.5090910243400975 0.24101083946356555 -0.6842178595163442
Ni 1.7381251825187507 0.0613829115127061 7.354457875405199 -0.5850612092188247 -0.05198024972203306 0.31778732229367207
Ni 0.5847040909965209 9.272949660044874 0.5218700908043206 1.2833859404501962 -0.8667024206092429 0.693740968515431
Ni 6.996926368108748 2.1687822574111992 0.8886829845392286 0.05765801683310069 0.3396890074627698 0.6464272710311318
Ni 3.2391368936978453 5.122668603382321 8.210709027957732 -0.24890849704408746 -1.3871258392430241 1.12289639557115
Ni 0.12069895184218392 4.772072555825813 12.52455847490596 -0.9498729798911513 0.6957957941619307 0.3648937888631716
Ni 5.113580695434463 7.42309064920507 4.646022249385467 -0.3146022396974711 0.40512898223413446 -0.396354321365298
Ni 6.073531668022927 1.937045255666079 12.538621942691393 -0.48237623405307245 -0.25806959471806523 -1.0280705114385005
Ni 7.879727792570771 1.869485915415013 6.288806254736196 -0.8585895616941213 0.15340435589749063 1.906389690351065
Ni 3.6066902147333155 2.2747954476688608 13.217657960075648 0.9522198828567731 -2.4256003196236677 -0.9616383479571954
Ni 8.813568470778847 6.806405865971568 5.657857083746256 0.5976380174425707 -1.5829192016296867 -0.5119202662587764
Ni 3.5932583425974847 7.422932517746407 8.24786247926309 0.985506927044677 0.20418955687015802 0.9173840061245104
Ni 9.261406063562486 4.076229024755801 4.912193771531995 0.012866057329390744 0.05515813322938243 0.8779222005844622
Ni 5.0998976733348735 3.2853670907304484 3.7127285199873534 -0.44993379725365096 0.7122549681592185 -0.559808605299623
Ni 8.690244536722862 2.4037283975821233 12.072186229998904 0.35694162389563044 -0.7241931143577012 1.4535706011298193
Ni 4.544912064531404 1.8178513432363448 10.786665838649949 0.7569654236927157 -0.18378708195440605 -0.6930943360703676
P 5.339029646235109 5.098734942021177 5.113274664552698 2.6544925214468282 -0.24944508627384782 -0.4919389380408431
Ni 7.245183456358879 2.409886222619464 4.160702849973483 0.6223823142667863 0.16769069061317574 -0.5393842760070001
P 8.66292500177623 1.768281781870803 8.476022919487276 -0.7290219032049122 0.8528608867404602 -1.103029995664526
Ni 5.122817432990474 5.667487289578822 2.4079021379057712 -0.3668203164619231 -0.30326573163872933 0.618177017936187
P 9.114669371773891 3.2271933176435468 0.9309905912119427 -1.843856090593218 0.7801536888837208 0.01622288961676561
P 3.024450183936782 0.061662897213044396 14.076400148194645 0.0032223635920396116 -0.18081360114837894 0.1250558866617846
P 3.1609083309122927 8.922521045797536 4.049421091587196 0.5038873686519708 -0.1944471327714135 -0.7996783891802098
Ni 5.358972813727645 3.1407419190075276 6.0980448346708185 0.4012787552501089 -0.4180030099833253 0.448306288952557
Ni 5.031138394368073 1.0802238996773086 7.677482307866268 2.061831388393559 -0.3499513086207263 -0.39325202829089045
Ni 7.2321608656454694 9.105814010088773 8.732582839502257 -0.5497802745293435 0.3553035740715752 0.2763036012275887
Ni 7.685644681688423 4.707229355923542 9.08279379044767 -0.02250383752947092 0.17198880376789732 0.43258373601097755
Ni 1.897465881747824 4.644200016870641 0.6242760234343682 -0.8225766339346222 -0.4131125146602433 -0.8385087317838462
Ni 3.584849469736826 8.622824724229439 6.131916593116396 0.8874501946795555 -0.8007410261167693 -0.021743305214362553
Ni 7.327495531518135 4.646981270173005 6.788747232964186 1.135024803403568 0.2960512161681611 -1.8926988231275337
Ni 5.558041716483126 8.074080657117896 7.319238278820783 1.472097199179097 -0.6014576482989771 -0.5260009127215587
Ni 3.4492563948587054 5.194981189243782 4.204840130641432 0.06514841167287491 -0.3116141036034246 -0.05851290863422827
Ni 3.235630096055734 0.7110288020268976 8.894795950168687 0.3244323384140155 -0.6563075062593212 -0.6122357127510875
Ni 1.843822109859087 2.5778776428224455 8.445431923716427 -0.30005133846648974 -0.15237565752266016 -0.7742933734482019
Ni 5.591863244935952 0.08912940139772671 0.535265685723164 -2.7432107500198435 2.079599253899941 2.1749527284012866
Ni 0.868540757445788 6.738697696112349 0.5110511084766303 1.7938887575361555 0.1413165714950211 -2.684801971063647
Ni 8.742893010607073 5.606355528029875 1.8321306139535982 -2.4179348326586103 1.6711656327726057 -0.6920245000449566
Ni 1.5930535219713702 0.8627959345710725 2.9660568871778543 1.434559350134639 -0.8627791742954367 -0.453055116491452
Ni 0.9144556217461166 1.8826201283345374 6.163992164228574 -0.6091768713201057 0.31176554157962433 -1.034806030390121
Ni 1.8639978236143622 5.875002272597 9.866958392106126 -2.2108612693724377 0.4972742342108275 -0.21834142289050787
Ni 5.319867834185377 8.62985692321468 12.152890945390103 0.29954663091592926 -0.4909176958651803 0.17879065718107917
Ni 5.336676278056185 4.051169839482997 10.465016219694196 -0.4732786426271785 0.4523143816706855 -1.253663473685099
Ni 6.18833510701214 6.8461619750495055 9.78129765076342 0.7323129152513581 -0.2385325531264021 -0.41126671970075623
Ni 3.8518683904647757 7.134147266826044 13.662256648511852 -0.8485401478779192 0.9081506604517006 0.36898415688246133
Ni 2.2664237822102407 1.4002633683098538 10.648794740582034 -1.130750087287614 0.9908545645098354 3.203755747130437
Ni 6.247634404010701 0.5564320465577091 2.8654620248420217 2.083343551433722 -1.0356390678143776 0.876764175720619
Ni 2.4244994297700115 5.715512743759774 12.272096950225501 0.10029693454954984 0.4109692430649955 -1.1638530404891696
Ni 0.9859217392112054 7.63763783120849 2.4533742341218443 0.19867505480983205 1.153612593708084 2.5551093569607994
P 8.234016674779582 5.789788020078756 10.7287376344165 0.21985580265250523 0.763298307889279 1.919010207328553
Ni 3.057806619864129 3.74109265274621 10.2399058562521 0.37318816766147983 -0.007850606392670349 0.6657329133382792
P 1.5784775222228613 5.681663309755419 5.09904841438335 -1.3726911518749327 0.07401588936583382 -1.306907420610904
Ni 3.2246353087534128 1.5075323083863086 6.280311804850848 0.03613814048345389 2.626635390025244 -0.49132675837814094
P 7.42508124521412 6.914214313377579 7.404993899038685 0.16341726004880242 -0.6727556245130155 0.6880678293900536
P 0.28852665947619643 2.161498908462199 3.8916049656566427 -0.6816094753592197 0.8095413980172186 1.632827913534672
P 1.6927507557330286 3.188841787992556 12.271185368875562 1.1744547272644161 -0.07301547312577748 0.4351586958270054
Ni 4.2164730248887095 1.2143007729223676 2.9749606184856225 -2.502350320091213 0.24965565962275713 -0.47312977575414006
