# total energy = -381169.62991343136 ev
CRYSTAL
PRIMVEC
9.20462908618175 0.00000000000000 0.00000000000000

0.00000000000000 9.20462908618175 0.00000000000000

0.00000000000000 0.00000000000000 13.47190508579060

PRIMCOORD
 96 1
Ni 7.693716775661048 6.552103457508051 3.782587986199644 -0.8025377130058758 -1.350711562280048 1.1178323507846812
Ni 5.931775894333515 0.9904733097348251 1.8822674736567477 1.0477409932842343 -0.19985467694023 -0.008653304799623807
Ni 6.356707592788139 8.853859012020244 13.124342961448233 -1.3975321221780124 -1.2031099291072633 1.453166166602549
Ni 8.9233815749668 1.141898661652447 6.795646895677036 -2.023106203909219 -2.3135680989150607 1.6301701641968507
Ni 8.924780678577005 1.7591334694781087 4.699310126418649 0.03236478948395072 -0.06224383643157022 -2.767643943361543
Ni 4.827607007011525 3.717114539556569 4.734755311827706 0.6288404111873042 0.240835747338282 0.24731852684914826
Ni 5.460839460064396 5.92015965251721 4.489943475780522 -1.12276089843455 0.5804903020186907 0.09567409106555781
Ni 2.294226167978328 5.813478002239097 8.80189611984466 0.4010905504987028 -1.0676259051336194 1.3648906819939075
Ni 0.6665163915693216 1.813367143631572 12.90879264103816 -0.08154099409828539 -1.0894707689228527 1.5825723598132293
Ni 8.166935957925766 3.6788693060013005 12.378498315643204 0.2454403359898289 0.9936236426145404 -0.6205899982530537
Ni 7.313344686265644 8.865033431643853 8.97809481029192 -0.971796776547436 0.7429925064523913 -0.04664803887584224
Ni 4.139901559450813 6.793881447832054 12.617490064764514 -0.4978095378890072 -0.11148688972809832 -0.12706700355454248
Ni 2.861866434673837 4.200734952607676 6.927644037133741 -0.6224949285852505 2.31806958632984 -0.9961610643244135
Ni 1.918263095880871 4.4414175920789525 4.598244220302286 -0.20285438299850228 0.7954494387005268 0.5187984814358484
Ni 2.7161111342291497 2.4110237055433816 1.2853472820660985 -0.5823882903723518 0.7256121061924149 -0.9956936377696918
Ni 4.762217322492481 7.959454415309808 7.932500500166633 0.28093955733770326 -0.912450573378635 -0.35208172470016785
Ni 6.736637859990847 2.5753355380813105 5.512178278392798 1.7681666701797032 -0.13890333406783822 0.4839839448598245
Ni 0.7406154960618897 9.151334212511017 8.700978408255429 -3.2215017582599486 -0.018912263523470654 -1.3260747375679742
Ni 9.077448655411585 9.045434955699138 2.9130975588427686 -1.1419341289288916 -0.03658371266130474 0.2544525667907682
Ni 3.4716270837397207 4.339752464613745 2.924494730488529 0.8787166714612995 1.2840377151015823 -0.7288105585250545
Ni 2.5421068273389476 8.277980602356752 9.03287155755724 2.4771676501779982 -0.9725303122793508 0.7394076173146105
Ni 7.50948612593573 2.6337112952913015 10.211380710651977 0.2639083128870294 0.5252069560653535 -0.15881035740441038
Ni 0.8287986034095519 6.924568770579995 5.163834616116265 -1.4947725292894256 -1.0240503345355139 0.9956003067249369
Ni 7.329296308347781 4.9780750775116385 10.422121612401972 -0.05521058373387266 1.4545350219256175 0.9228871953309267
P 1.654081038535563 3.686472329567282 13.24734165758036 0.5365758600239274 0.6588053329805106 -0.3663127806978852
Ni 3.7552585221926775 9.017047879818403 11.558288551567086 -0.05662186225910248 -0.4804137110100629 -0.2831386218715511
P 1.8476820005976466 8.827506159151715 12.895468940539665 0.007364153674555059 1.0687921575275787 -0.12006126166067065
Ni 0.3104758185108595 6.496166926986904 2.6003334695589033 1.3851412047128273 2.415033856961731 -0.6048818434891776
P 3.0124725746091676 6.400724128735502 4.501448341585752 0.13310909598356432 -0.17875697572966634 -0.738157289847277
P 3.4234224415907577 7.038420826860409 10.452366182417833 -0.37004627959838854 -1.1362756450915334 1.0739860430236925
P 8.592558003556476 4.5684230632210925 2.6656182213071813 -1.2986261544387183 -1.2050372280369632 0.9182234713066703
Ni 6.389623346144009 6.351221633895494 13.364615074465464 -0.4813408508100227 -0.477870632873235 -1.7286135904774294
Ni 9.26712844551349 4.569196252058311 9.182720156524676 0.5470677606941868 -0.09603430261845397 -0.33128355700789397
Ni 1.8645356763232053 0.17012823761219448 1.5522465458964885 -0.8643508896579307 -0.3625378870364853 -0.4310284757087157
Ni 7.981066884235865 8.545126550244731 5.1265448230527015 1.2968976017833858 1.2720409477510222 0.05738779389084955
Ni 1.3634816959186258 4.716534748693493 1.819434835077934 1.034482071391799 -2.712690727054115 0.4532448639047549
Ni 1.1607589465031676 5.693109068616415 10.99471765135889 -0.6767030391965377 -3.228069127064821 -0.22346074639494418
Ni 1.858184482303197 8.219660072920849 3.832110731223484 1.2017230760620659 0.9290563002561161 -1.35767410964081
Ni 9.356781532114768 0.711853791780266 10.858664950358392 -0.4126947103965344 0.188975568133881 -0.23976385443034193
Ni 5.137849027945416 1.6217359721785927 12.587002492542672 1.8254691034455983 0.967649587148282 -0.5598993652412163
Ni 3.0288384049969577 2.0399206775655836 12.156400742615114 -1.1851068076616236 0.682390062278986 0.8164790056773165
Ni 0.6689307657598262 5.430473388945544 6.9271727601282 -0.26972774778228387 0.07636304944177172 1.4321941923365722
Ni 4.861866636203512 5.315986213263131 10.403328521343056 -0.30100316085679774 -0.21500413098715873 1.179443438728259
Ni 1.6749111139953878 5.91858566095573 13.465344091159896 0.4895532114174859 0.40483561936343176 -1.7963043089561839
Ni 8.443811198682075 5.493239754195454 0.6054473599096867 -0.5862624286157774 -2.682759486712322 1.3062070521097697
Ni 3.8203812724703003 8.753813899261589 2.7477023414698323 1.795653305635746 0.8282631427964381 1.059081615108034
Ni 6.40570383303235 0.4725730173078983 6.7731480209768815 -0.5757291331846214 -3.480717293656999 -2.0200255081013663
Ni 4.145028537811892 0.25318252567297456 0.48626398250407304 -2.8446505399245847 0.6736727370106463 -0.30380463486133485
Ni 4.79933959130798 2.742648079677968 10.429531338758649 -0.3732542450127249 0.05301768984761192 -0.21816350255174685
Ni 5.090620076471991 1.074097364331603 5.097229920567306 -0.9262867079307789 -0.5719907491881117 -1.5273239808628858
Ni 6.831150990711785 1.8128240705197165 8.187254256012384 0.15367175062626437 3.012431476258721 2.356510149694225
Ni -0.0731721983508075 7.469528831383765 0.0430610954556573 2.377752604012769 4.73503742708949 1.9493281415858041
Ni 6.098683432253535 8.18768319172446 3.715322398287445 -0.9452611921507528 1.1862530054509248 -0.33622393173230486
Ni 3.1144230455738247 2.434357440095152 5.404793394457977 -1.1976185669753892 -0.9559317844907214 -1.2567539396849647
Ni 7.3179930239179685 2.9130073534784264 0.8305898242157747 -0.38192734730669065 -0.35940036984876816 0.1153206616518917
Ni 1.0274298952280627 7.728703570545182 11.164638784818257 0.645859828563436 3.4577843390099097 0.4075530182945949
P 3.1677822799709103 9.336439301992714 7.177722761903025 -0.29097868674126015 -0.016490027235223213 -0.8366891620766042
Ni 0.8105329375931682 2.937399620366865 6.168892660524572 1.6630165213029102 1.8864291880687385 1.2058273280384264
P 5.918613274842773 0.6993465418753565 10.418471056534818 0.2516683191774117 0.264385509633764 0.3585773597268405
Ni 7.695879863479457 8.277419119986869 11.407834288010493 0.40787106375564597 -0.9227465559880044 -0.9517136326443159
P 8.481927567431141 6.3656452875612235 12.06543783730507 -1.4531497115423166 -2.9448549147603282 -3.5455895688503514
P 2.4368150760420244 3.5942235375839124 9.594475428545035 -0.7178612586024025 -0.39128050638681644 0.04908852999653482
P 4.325733814624654 5.51227492699745 7.6046748764263326 1.3392148744943582 1.3362426792399118 0.25884863897593485
Ni 2.5670053488231837 7.080219047215276 6.946922212141722 -0.5984808250588403 -0.5702699098422631 -1.026092047555891
Ni 5.6546061054487415 5.645300225515077 2.075845424146295 0.08021327642579734 0.23799364990379657 0.1593906553879126
Ni 5.493598734727019 7.448036022634896 10.34802618976101 0.8940386465303506 2.70366564073737 0.8278628220342259
Ni 5.734621945471833 3.9230036813530167 12.520828573631592 0.01337590708627374 0.310301298329272 -0.06795759898689586
Ni 8.053544133096077 3.6318796748822524 7.421592043939124 1.1158924534494912 -0.5958295034789223 0.47804212545409286
Ni 8.685340664022686 7.166963471047971 9.318503161895046 1.4951203995471478 -1.6786424007656249 0.004265717254889428
Ni 3.061349154676189 4.414834623485063 11.532179621367442 -0.07287020579716481 -0.34044491179218783 0.2691533633360526
Ni 4.445973883441133 1.0109996324371713 8.695912180445845 0.8604189015933761 0.2317258146172138 0.6146494643989027
Ni 5.701411643987499 4.251636551057889 8.716295831398467 1.2037123385779527 -1.0947744405239532 -1.3847097736023635
Ni 0.11379958989502968 2.268729345608149 2.251627144899199 -0.41242397323365104 0.8770295135668638 -0.36838123319113975
Ni 0.37624565420820205 2.153376934798372 8.715258469708532 -0.6245091308018018 1.5204223686470462 1.2096793547946652
Ni 3.784464810055702 4.721155472458775 0.3356293082187973 -0.09926515085092583 -0.5066700736034306 1.1441576189427713
Ni 7.392366426355169 1.2834566512665193 12.08044598491322 0.9637021724647598 1.5705714786976115 0.04755949494651809
Ni 8.819820293924604 4.673816065437175 5.103561784866384 -1.905293886183725 -0.3998355950456791 -1.6630859410882648
Ni 1.6555169606618259 9.781483114844029 5.5600165763069835 0.3894411391852325 -0.5245531245314385 0.3375966437101154
Ni 6.667584733124031 3.2320121812341265 3.127718211722376 0.6835789403807647 0.6069536384165418 0.5312364500888851
Ni 2.7705473102209326 6.829889956536798 1.9997829722849332 0.39002066583778633 -0.8972191011408612 -0.04508609370536106
Ni 4.176223025542049 2.050607251851424 3.001243847674373 -0.2291930208930311 -0.3013638866303261 0.8204130506244
Ni 6.552002206588892 6.574967755980082 8.539153666477219 0.3911100422472232 -1.7223560396034916 -0.5563586990778095
Ni 4.067350673558484 8.089966850106473 5.539674346184927 1.0169134663804165 0.4736581374537842 -1.652348500066103
Ni 8.415129574672878 0.5225053683228836 0.7341032210341274 -0.6929755511043162 0.08823563250964159 -0.01783548551952412
Ni 2.337128943814936 1.1612467918409364 10.15935246561039 -0.10345836299666697 1.163885693499318 -0.9663982312396842
Ni 6.519270545813312 4.70032539699895 6.375983006407413 -1.831867550772774 1.871858489343415 -0.6231940115348041
Ni 4.818374764109976 2.793430017950992 6.999099572173344 0.9327316922251743 -0.25722010223357633 0.2706070650634437
Ni 7.388822644184585 7.618376887177324 1.5510204893117563 -0.5863369906074547 0.7403969778110733 1.4031127015895835
P 7.116568127193556 1.0930220815854252 3.748206855904665 -0.6141488706134003 -0.7711489142819493 0.07027647692805962
Ni 0.7372668520264128 3.0579158280537784 11.025743694378082 1.1296152023522223 0.9076132998909916 -1.081775457161124
P 5.01596133053534 7.780820180025309 1.1612191779538927 1.3291621182440463 -2.567010993494392 1.073075358283965
Ni 2.5767990740946165 2.2891175988752774 7.836809176931838 -0.44836079633957615 -2.3209836746528416 0.5736930765911992
P -0.488989473155268 7.732385422150983 7.052569262118603 0.1665069547177197 -0.24151040480780345 0.535279252699691
P 5.19541477780213 3.4795706785792384 1.5025351059778511 -0.21662469730971723 -0.21854659692277845 -0.4783861390570729
P 1.8218906300990036 1.7027919352803236 3.36355737540622 1.0757305365186247 -0.8316791104565225 0.8980809349205243
Ni 6.567760531461724 7.183439756983934 6.25136797742034 -0.3845002502401894 -0.30220026648869247 0.16452463418036828
