# total energy = -340888.32813830266 ev
CRYSTAL
PRIMVEC
9.13737085973943 0.00000000000000 0.00000000000000
0.00000000000000 9.13737085973943 0.00000000000000
0.00000000000000 0.00000000000000 13.37346587283059
PRIMCOORD
 96 1
Ni 6.541023287281125 2.0094265788496735 11.215429788158486 -0.29725012157226877 0.5174427387389025 0.8411191728234998
Ni 4.562846515853778 0.7593081862424904 6.015438075919975 0.8671793602456613 -1.4935371142204277 -0.5213713843693473
Ni 2.7413939248088064 1.608122399849347 4.771612590439036 -0.5416633018491639 0.9997775780310781 0.02519835364249854
Ni 3.851831160660549 4.180538930312812 4.5980381849492 -1.664171975063592 0.02177827221735604 0.6719439272449976
Ni 3.794055566411612 2.5511355943562735 2.5947601427704283 0.3013880550000423 0.8643730011451177 -0.3631405536174907
Ni 5.239770341370779 4.6320986475654164 2.715401760424728 1.7110506418930016 -0.7429691094136237 -1.544654244611217
Ni 4.976102375587555 4.642305090515925 11.263667794984201 1.250178343349976 -0.32718367590690745 0.33428249173521785
Ni 5.8085899354218355 7.9777743016902045 12.35019435947257 -1.5531630534131768 0.7050473946671857 1.956767371472669
Ni 1.6704666793939458 6.812704727072941 0.2719537334354361 1.5000780006627392 -0.3384834171904429 -0.6337342489444957
Ni 2.686679349707963 1.5963626038983139 0.20112631903385295 0.43839031539042567 -0.34253753265515846 0.2691492495709945
Ni 8.02772830671297 8.69636453710364 7.176817066555404 0.3025885030660466 0.2964057712941024 -0.7729499720464301
Ni 9.245648432830446 2.5051837576525084 1.3999612191972344 -1.1359923095231597 0.590832307374647 0.1228748198500658
Ni 6.933720063184426 1.0185426998148046 4.761863016018094 0.26034296413327424 -1.2861192802209591 -1.3950746617764556
Ni 1.1316816224765693 7.754438689697082 2.706923194253039 -0.6251027985217428 -0.7540202250214627 0.1177891777970423
Ni 7.826797527409771 4.02916011172636 3.5634804156989834 -0.11060834377788693 0.222076721563224 -0.20214810096009703
Ni 7.926394866855194 4.063507487779144 12.469807109198285 0.2757058197425897 -0.11371166529355901 0.2529219890788547
Ni 8.245343924715923 7.390899263350693 9.457005865715404 -0.03040920841947666 -0.06842656820351442 -0.7872082817376572
Ni 7.12274484860713 0.700570426870287 0.10369453641857296 -1.160612679175001 0.11430096213812573 -0.05328585590733404
Ni 2.0538798867764614 6.584398385478138 9.059078858885632 -0.18812273321528247 -0.34583985755551405 -0.13792194399117536
Ni 0.4706650454220023 5.133621507211377 1.263547586165251 -0.1365605448672745 -1.7328006319755835 -0.11189518091011051
Ni 6.66030252298026 1.9199077591664795 6.817177469977393 -0.4601809289029559 1.154540504838992 0.9250335522499682
Ni 3.942190618438145 4.487700780110735 0.3422447841833086 -0.766097725011287 -0.2422943341616795 -0.009767620909725114
Ni 6.470912242733902 5.956642751113046 4.698245900750123 -0.8683070460922014 -0.4890125084226675 -0.12273109518334993
Ni 5.271257720428479 3.0997159125475484 9.292070844119666 0.6581918677662277 -0.9583036271570076 0.6276980700527448
P 0.34183177503258083 5.857657615497241 12.25426658805662 -0.9424270651360672 -1.6664923956666524 -0.2658160714327035
P 4.027323500237504 6.192213302327951 12.365828400554324 0.26575925005283907 1.7617155152377209 1.2759544238728155
P 2.5244818843413834 8.432815357138104 1.2138274978296244 1.03102522319145 2.605067176936165 0.5438577383973214
P 6.47358949231716 8.102764394008915 5.681890241065489 0.40793379867278134 -0.5659967363882058 0.33819185409195307
P 4.903451142015944 0.9913498849350264 12.550101753269539 0.2378789787028032 0.8983334172509627 0.10186530747793424
P 4.179899314371419 6.4344267219627485 8.097967274448472 0.01757888942402779 -0.9238145922412025 -0.2870685530535766
P 4.950563424784806 1.1035019715729282 3.63335662982201 0.9813877626699808 0.3407801836444196 0.6080000774031852
P 0.4197242043753751 5.718340126091335 3.4159036570155807 -0.03127155641977195 1.0873773767289339 -0.23327104761714665
Ni 0.45876544770092204 0.3095567546299088 5.117717913697179 -0.1199350204954515 -1.1267846748819628 -1.1587455440592755
Ni 2.232597718172153 6.484837595515079 4.66244476903626 0.7580332028355977 1.8161982196666335 -1.1719152486720141
Ni 6.016602176933309 5.5452417776093075 9.316651284747385 -0.07545210759172813 1.9195385690281972 -0.9102453381972001
Ni 8.837271928992436 2.503091299787096 10.302650325464132 -0.3340675475109343 0.19478060485143228 -0.09089106785461766
Ni 2.8996257713387514 5.383647378701755 6.581296248162383 -0.05490307979578287 -0.7632114046024275 1.9604517623027913
Ni 0.43068173918848995 0.2632439917877868 9.21397008272739 0.6419129281005461 0.4013299202030185 -0.6252706915581747
Ni 1.6828935033981454 1.220067408206439 11.42656975162337 -0.7635227651952592 -0.16473469330864532 -0.7892235123954731
Ni 4.136926260480426 6.926346205117228 1.4959154889878972 0.5326369299808376 0.19051488759654286 -0.09557767469700959
Ni 5.767389531425559 8.108667135410911 8.065617327606951 -0.9276285666706541 -0.6791676986869465 -0.02144557146828565
Ni 5.832840516971207 3.2707766273877112 4.765687919347622 0.45269567626950424 -1.2890619077890508 0.027418758332585037
Ni 0.982404399126121 7.356104156138935 6.833332341182853 -0.1530256324018332 0.3168624964865575 -0.3280015438225125
Ni 5.28990709380537 4.355409928689557 7.357385215495838 0.7610632479111731 1.656277917027496 -1.5109373119747462
Ni 0.6256677451849737 7.841892463626637 11.554353138131852 1.8733067917541675 -0.18925993214351922 -0.9358288430932593
Ni 4.569050790485287 0.5696730244642856 10.235114191949542 0.3257163473327616 -0.6917342224980474 0.32121100326324037
Ni 8.318680461081884 7.479358148045295 4.3606721404131 0.17445372036862214 0.03156054841510048 0.2259724570732044
Ni 7.295523389118462 6.249504615935548 7.077987266239652 0.12456043508260484 -0.030199663511831856 -0.41456338817415705
Ni 2.762245404498206 5.063437363699423 2.579554644369407 -0.6091784139820025 1.0926159994200537 -0.29145279816420133
Ni 2.5955889022830614 4.989232777127286 11.279996276230897 -1.6366735125330072 0.886575505384086 1.0652928861250686
Ni 1.017172094226106 3.6177865503343947 3.5424836518171814 1.2348792510990605 -1.1987585941171033 -0.17977693235374842
Ni 1.728278823125248 1.1147957616238038 2.4824097751906944 -0.45302991968047135 0.3128628884088611 0.5886093315813992
Ni 1.0278171309649977 3.7315011273434133 7.75521902114558 0.4371531005492149 -0.020590936777474214 0.4997242384132168
Ni 3.748916955690475 2.785582248988446 6.998441886556886 -1.1542134605168768 -0.08104348563657657 -0.3931828656158519
Ni 4.329487208321973 7.1957981264847595 5.8454217625384 0.7120047998216253 0.8583964718467089 -0.008867991913591179
Ni 0.5072318887914189 0.16750719141719725 0.6188320782456048 1.656495946575573 -0.4917445626418499 -1.3442861183696784
P 0.09323407456562609 5.8048070639970275 8.080769829258541 0.25932455017108885 0.61885887449456 -1.8318714074275162
P 8.522845869574411 1.6887779700589576 7.758348570573109 1.5462647836314467 0.4586953454963649 0.533471767177307
P 1.6002551237702178 3.4546844852792744 10.076960013069625 -0.43565594717839806 -0.9953167140462471 0.8870426748284916
P 4.292325522127061 6.149843314895985 3.7712368108339005 0.01210681056586302 2.0198979813845668 0.3740859968854009
P 7.067838388723868 4.062146019561037 10.413944413003508 -1.2228385178844423 -1.339474813023964 0.4352080610077021
P 6.407389242383023 8.050854991679607 10.39019273188842 0.19914350980581833 -0.015926698532585475 -2.113959733657682
P 2.4495280333807585 8.806561226434999 5.973806388031788 0.822740413205996 -0.9633157356596183 -2.1823659901462222
P 7.184970342334042 4.148238325272485 1.2425197552234386 0.015288807838270444 -0.776654674591527 0.8147478819188226
Ni 5.7569637915808585 2.9727521481811117 0.02160805397436126 -0.2246095152874067 -0.3205821114299898 0.185280635780797
Ni 1.4534906773323832 1.2228451688662014 6.989066944330189 0.2065264325334508 1.096189318593609 1.7986370708544184
Ni 7.012018191781475 0.7518886413223359 9.120476506836969 -0.6983962078992553 0.7150183898369686 -0.17000725456149432
Ni 2.8780158898902717 1.8936652308281992 9.183224658161704 -0.7250361790842867 -0.5732454475308193 -0.15375608280995456
Ni 6.657104443273297 2.1393965381406557 2.4046425278250014 -0.029288464551472142 -0.15721010279682604 -0.2081529123932802
Ni 4.2599792302337764 7.142518118566754 10.3138034000079 -0.10050442257466563 -0.10464878376034234 -0.3997720887975954
Ni 8.312055867403174 7.425283188885843 0.004256187221438378 -0.7145666470115307 -0.3767846267634866 0.45825234442167534
Ni 7.687041444215481 4.03882744981198 8.136188895631976 0.07909973164664441 -1.0264612579698513 -0.5129651625835231
Ni 3.3382469718340424 8.559139505563149 12.247112026883615 -0.7755624699686128 -0.5953757037709553 0.40048891235896183
Ni -0.2793568310885262 5.119093087971173 9.975228183854068 1.5236421611359243 -0.5847737598853928 2.5149875492392493
Ni 9.10715330677776 2.6479917226243 5.6546489981215755 -1.1401384704810493 0.42273332557945903 -0.0744645468674782
Ni 3.7557425715221933 2.6824304723829977 11.618225186039318 -0.20313797567719205 -0.4246860784304557 -0.3896026044637613
Ni 1.1572845348734568 3.469797696237323 12.734414396678298 0.6440122338317359 0.14476802037873132 -0.8594125718160488
Ni 3.218794126093673 8.71618349391622 7.975145480171081 0.4964594516190159 -0.1705009063684612 0.8876828795156518
Ni 5.711953104048001 8.037596666951599 3.428474851475123 0.2502930360964399 -0.13738612609236342 -0.0739115025774856
Ni 3.290951941653353 8.874835659493368 3.4952626343382818 0.2890783843947538 -2.0939961460515613 0.38873177182303376
Ni 3.2345560903637054 4.310362691674333 9.198283044896206 1.5966002986612051 1.1376632694676794 -2.218119750707064
Ni 7.088680731042677 6.251761546471606 11.519809308611352 1.3510730593845248 -1.0118072555021027 -1.1707379405344611
Ni 8.10852093748145 8.920549924561756 2.148126382003606 -1.1192711401137367 -0.11457992683112524 2.0731650682388234
Ni 4.524972114752742 0.4800957256093071 1.4010312052934781 0.7644622462903932 -0.8714358215291702 -0.45249127356818203
Ni 5.9996249423746315 5.7108657569476335 0.16750170899484246 0.1724073793625547 0.37872863786373484 0.5457917221952406
Ni 8.138235666644432 0.15515163890360992 11.09982925785942 -0.5886761802635927 0.7637032566371814 1.4068749968454932
Ni 0.5975027140742788 5.192511860672456 5.519550232717683 -1.948084241876374 -0.8899012273232094 1.313859683559021
Ni 7.667304723738224 6.106422529846017 2.1076048846422646 -0.7699114423304224 0.7270611799341156 1.1630351725735648
P 8.793010505848066 1.5471852753758122 3.4865830460135845 -0.17403591610491317 0.7462930315805341 -0.4013314628649153
P 2.297116691917487 3.45796480132156 1.2882696560371352 -1.8210992565126765 -0.6880441752409698 0.036317089263479395
P 4.964881684501409 1.2562605331186707 8.13795423563022 -0.16995197584352664 -0.2861838364557781 0.10306935508836443
P 8.880893736195414 1.6823087116803006 12.710797034910904 0.0611032950692238 0.6987620758791062 -1.6661864343904595
P 6.444477829613204 7.72839718351181 1.2255699327765341 -0.6107079632526515 0.5467348028348004 0.18052075249830846
P 2.0719536058060988 3.494441184722122 5.65918296140899 -0.5346483039839114 -0.14894117791981448 0.607476086578915
P 7.389528657761995 4.225522205733897 5.856601335456885 -0.30494337645146835 0.4381396328322003 0.5246495408999867
P 2.266287203542362 8.527780049693726 10.037053460749078 0.6234380092248102 1.014457548640756 1.256654695102939
