# total energy = -340885.65898168663 ev
CRYSTAL
PRIMVEC
9.12921342710200 0.00000000000000 0.00000000000000
0.00000000000000 9.12921342710200 0.00000000000000
0.00000000000000 0.00000000000000 13.36152664559706
PRIMCOORD
 96 1
Ni 8.840821475730598 7.740075708323467 11.851046283021537 0.2569671056825058 0.1899549013280148 0.9693344310498725
Ni 4.726367193227837 5.477363668954054 11.435368551473951 0.46278005708869974 0.5166588093850264 0.544602586983146
Ni 2.101271030936186 3.090722558702431 8.508914318571392 -0.6692229287694088 -1.284227462514885 -1.2075255416764559
Ni 1.7717064299160863 2.7829493898882864 12.922359466669977 -0.13549867926166342 -0.6249019953648465 0.35909003769720094
Ni 3.2306825281827396 7.10439945531431 8.37600666638438 -1.091407066713617 -0.5979565771242541 0.7878497719763979
Ni 8.411501960711977 5.5016291179709915 6.293131913218709 0.33139282889224864 -0.3464438096881001 0.8792609740005438
Ni 5.071360164766606 6.419891040231565 7.235453877196416 0.49277017569288684 -1.6765220119885127 -1.5493570494035251
Ni 2.727398126807752 6.819668420931598 12.662745636907394 0.8738675708991143 0.2304780582530418 1.2332882524628566
Ni 1.357705734856239 6.636299042092547 10.665905503034619 1.720877655285752 -1.7231229996765036 -0.36499637587930683
Ni 5.1465940117751 0.3323252751294757 1.5475449871784732 0.1305747595974848 0.4744258688577442 -0.3430476395223576
Ni 2.3334634426354994 1.4789599462343266 6.34807425777049 1.452813925469453 0.05655424224596066 -0.33125013266679726
Ni 3.3396488184258395 4.512141073351447 0.5518207769368568 1.8517411497682494 0.4478347486327771 -0.2250458314938769
Ni 0.1553098287643862 1.4596060139860547 7.194233653192926 -0.841325632407351 -0.2530122347998158 0.8961875745525534
Ni 7.953288485520819 5.060788535736655 1.6637242688693845 0.7086402542247666 -0.23912467818444622 -0.3254363541984976
Ni 5.755539928169663 8.222645924664809 3.8502575876511997 -0.8938710106042348 -1.0924362793090798 1.251486263528122
Ni 1.4776635979422252 8.80584745948384 0.6540971796556484 -0.7846801159991648 -0.2275097196533372 -1.1554082521559264
Ni 6.417261826794064 1.9437738426592122 4.171000629835683 -0.20870775645548573 -0.6201539391568998 -0.6651053070566094
Ni 4.5996354538549555 3.2237534552693257 7.202891799110031 -0.643260443267376 -0.3485197183805223 0.31301149817158347
Ni 3.969354565920671 0.45249584888592653 3.7109768316422453 -0.5614273718499686 1.4977562945080978 1.219614611630506
Ni 7.093700017297812 5.732899479124515 12.766831449707132 -0.49059965040412934 1.4564468942363498 0.14840870245511215
Ni 5.995966890287816 3.819297686503292 0.5059437412164605 -1.0176734844748925 1.2062831846289226 0.4303347920758008
Ni 0.7435333438333108 5.280419149901239 12.949537134737481 0.19021329719572402 0.09598776565123468 -0.365446576042848
Ni 3.940524510241406 7.317475294311792 1.6550652100309478 -0.528958709798302 0.0930273974713301 0.30443738334932735
Ni 6.494020252427776 1.7738061489807575 12.794530395855473 -0.3669876952777228 -0.5749223210126099 -0.32750737779491335
P 5.212771679165535 6.42403570308096 9.392992814459122 -1.4115284364571044 0.12462188444815957 0.5959043225809157
P 2.5716628767024368 4.769101040800554 11.883461380773397 0.05208077985563934 -0.3231940951315402 -1.6425729087365775
P -0.03666474655448543 1.8092274966804245 0.8183490728715357 1.164431281590143 0.9372241807788891 -0.7376502683038715
P 6.641365755487732 3.9415652405604167 7.2390078799437045 1.7202356508263792 0.5992948363197034 -0.13105092790295497
P 4.318546975588782 2.3617092286619865 0.6033606636825375 1.0352842555781203 0.591028482545853 0.43446064131871626
P 2.1227611991024276 8.73127091583472 11.741361523689788 -1.4147754826394925 -0.40448029290654214 0.47782769545044157
P 2.9317464378668627 5.069032215368819 2.7007116104171156 1.319976080869404 0.32429632705678346 1.0653322240034362
P 7.18239032474685 0.030665027557521176 11.627921918917606 -0.08839478379532517 1.4550207033127842 0.539328225958084
Ni 8.355996343698065 3.56673799987667 13.027835658659063 0.18119438152656536 -1.3592591947397428 -0.046953485931403006
Ni 1.456702924148814 6.494138932200997 1.6816412629403552 0.9714401645389656 -0.1372259463654153 -0.5993496008170388
Ni 4.787186012396699 3.225688848494153 2.8127480551012978 -2.1466978473206515 -2.256940066008371 -0.4483433128380795
Ni 1.4812422495654907 4.11847113636561 5.580534734578663 -0.9014246545817767 -0.7195605006816963 2.1783884935557127
Ni 1.508876378299226 3.8006375744676943 1.8058232130316603 -1.049731798462018 -0.13118745348081923 -0.6258836425518253
Ni 6.999422631294085 1.9637211737735865 1.7832557976931094 0.8788400844130413 0.5854723286143142 -0.13350273187755715
Ni 1.6397436513081767 8.82147667269565 4.7433155777650615 -0.8193175035673761 -0.04736769065068617 -0.03564114624237733
Ni 2.7069943350271446 1.5063932322749192 1.7431046045699377 -0.20338891534573358 0.9271907078022871 0.4029715695714995
Ni 1.3229782073692455 -0.3050718345913786 9.782361066126382 -0.9207729772014014 0.8935529651431837 -1.2878326633676402
Ni 2.816134080323413 1.621238735899098 10.640424955724171 -1.2219556010588568 -0.14877765575875668 0.025012977104569824
Ni 7.069115045814512 7.5362386332105356 6.048255372526119 -1.0052972222977266 -0.6346179371010296 -0.4353810962504567
Ni 6.732247074134687 1.860488029498371 8.272160951895081 -0.7077802202173166 1.16908369276049 -1.5986787784567886
Ni 1.1539508226632305 3.4893587877368817 10.667415474918517 -0.5591925689821788 0.8124444305966266 0.16298917137244834
Ni 3.84885807924853 4.79340300667079 5.317673643636498 -1.3856891067964974 0.2921066296981163 0.01712688948827373
Ni 5.8425322019403145 4.21361579763518 9.489142602115736 -1.1710701270628994 0.7880739721720621 -1.0087062479792757
Ni 8.047958427697507 0.43007815264590005 4.916494015769798 0.7887072348806868 -0.8099903126291792 0.129183535676913
Ni -0.01540098287869551 1.1309999803650441 11.689826201550769 0.39340989402499343 0.21868312250064273 0.6204308469673702
Ni 6.513931066688852 7.233632599138146 1.6513907016677734 0.7418774190113416 0.014681770381890844 -0.6217194838718066
Ni 7.712286382963211 5.559563105729262 3.977659411282111 0.24568176257667365 0.8480117861782749 0.34488726383425766
Ni 7.882783571014497 9.088177510762167 0.5807640348613478 0.4456223143624906 -0.7619284241249458 -0.2649310977245889
Ni 5.761966894350221 0.7860298318595867 6.101768082271257 -0.5562088037635066 -0.3960275341534986 0.22598659814059147
Ni 3.95064880781845 8.273605193443041 6.164473909834326 -0.5760767463320272 0.6325240306864784 0.1920459795290886
Ni 2.5404227087054623 2.893604584596448 3.9912482453158624 0.42914745663591897 -0.8212052075083921 -0.4477779272529127
Ni 6.526511122650229 2.3332899875823307 10.435713301974737 2.4318522140706507 -0.6037731838060312 0.9094986898391627
P 6.815870668188541 3.779594737754361 3.0324781776911225 1.3056925743671965 0.44965097590590947 -0.15107802175715918
P 4.482954978352521 2.1542022097925444 9.242047662585254 1.3301046846629738 2.3997733312582343 0.7148116731428013
P 9.100374139763908 7.1835406056257565 5.02747512339365 -0.16120508288883206 -0.09616722865189245 -0.29380330067424887
P 5.044255530405701 6.26852868330876 0.13956376162201867 0.2524643327161458 -0.14237406622525803 0.46735970603958216
P 8.703162068008103 6.843039207042719 0.569252096858956 -0.20706816396953373 1.0984711726492502 0.5324196717637089
P 1.9311846574845108 8.587960525064263 7.496070094582047 0.7029522027010539 0.9587545986514973 -1.5657015521998197
P 2.4082956042577086 8.639504063495274 2.6153315557195986 -0.8840979903778708 -0.501224219997511 0.07014355089462113
P 5.155568028473238 6.589101009204073 5.016063606737829 0.5633274170861589 -1.2035999813698044 0.6402121433593554
Ni 7.172530774356221 5.974440205268276 8.51898840547515 -0.026967786838095493 0.44065314328267335 -1.2961355268063808
Ni 5.582842599707136 8.487995639159275 8.3652907957839 0.39432777785357254 0.15930915141769983 0.14504338552730503
Ni 8.890712626549847 7.625330626045859 2.8478352735932826 -1.0463659673135786 -0.5031142379313722 0.19971686581078507
Ni 1.2158012429377782 5.633610155005551 3.9459527404842465 -0.8564640307106862 -0.1962199084011201 -0.7720102338409801
Ni 3.2106439049351185 7.087263921903929 4.161113691805081 0.5577200982017105 -0.5666261424420886 -1.7117402117608584
Ni 1.9156376071926207 6.578392441974251 6.097038236847753 -0.16950768921725645 0.46126130645132823 1.1549225707687596
Ni 5.28375131276474 5.401947237679067 2.6257808532910003 -0.3633673249163161 1.684816390786821 0.4410197825934727
Ni 7.877333430659677 0.10916713293624239 9.454522799345975 0.6651281898747449 -0.26834809382593783 0.3448078167465739
Ni 6.044287816415222 4.195266078852621 5.067265712590498 -0.6851560550598975 0.41054115438864136 0.6569559384765976
Ni 4.211589112277107 3.063088429968696 11.768832239505013 0.8756161781591048 0.4855420333755638 0.2843095022512007
Ni 3.7853735297888687 7.9534619405739875 10.659384505956817 0.20236175963279987 -0.7156218277489224 -0.39756222563047017
Ni 3.3909823849503837 0.5810287820477628 8.638828501709249 -0.40828526847492913 -1.7992191686101338 -1.242266287591751
Ni 9.090624139933174 3.22762424171898 3.3233193945520267 -0.8615977523928258 -0.34736272195794365 0.1531369611687169
Ni 9.123398015768691 7.708963349313036 7.305535196204474 -0.44354074924311354 0.5434443050089866 0.7583751595560488
Ni 8.190091149949083 3.3178756446465343 5.503906856695493 0.22532839573130226 -1.018310089617627 1.1419567546367106
Ni 3.4836256417689975 0.812148511181429 12.801758906965937 0.9116206212781719 -0.7739665862364025 0.2323642195321611
Ni 0.29161446122950246 0.7332556754724124 2.7103986186759093 0.4550592914056744 1.2752764239691843 0.3874853010104424
Ni 5.283230947605235 0.5916223211896942 10.630778116004006 -1.3262588285543222 -1.2571210932163963 -0.009201721103926088
Ni 5.586256925490557 8.295588339128814 12.688679906120077 -1.232189362971723 -0.5871736275761371 0.8993567163091544
Ni 8.30473581088012 3.923617207164142 8.789840296840387 0.13206265699692096 -2.577856163739012 -0.2802738987292463
Ni 6.704713366747523 7.338171220918788 10.63985072820605 -0.1275925370407093 -0.9003859289046171 -0.37282255679194504
Ni 3.353123537293033 4.7140701428795255 9.519780242033283 0.26945983883287783 0.6183449109726189 0.8134823849428379
Ni 0.8408608000088061 5.46100411867627 8.374496694500483 0.4067927430898027 0.41623846188373476 0.2586192965739481
Ni 8.427405050323529 5.276457071318339 10.758914841307552 -0.06719603823052298 -0.3200072127631263 0.38937300495145843
P 7.450670516718531 0.15437317147727642 7.249015323590194 -0.04436207105514295 -0.5245366694712063 -0.39712899474779345
P 2.728776638019775 4.934969717696238 7.388390110496391 0.3829899842432501 -0.37883379598303146 -0.8873126406604268
P 7.11143807878762 0.0493160103797944 2.7658494604098722 1.7157089666006196 0.8588664695045917 -1.0991316890513847
P 0.6724706343928522 1.7524894358676846 4.885121474179616 0.4500579815363411 1.1361638021040175 0.0030624409754076293
P 8.693074287284357 7.063756197592939 9.523881997580052 0.8979109850015632 0.3760639465473782 0.1386107425280839
P 9.160982987026301 1.9001727198206526 9.650455801562417 0.6316513982735379 1.1047724322769297 -1.3658985544331315
P 4.419926889559092 2.2188826861977358 5.105385655748933 -0.9988319262883572 0.8963223003582047 -0.28473939069976767
P 6.700623479178077 3.967419172695844 11.627881750378979 -0.31778012320482046 0.5894714224713783 0.5670814848119524
