# total energy = -340887.83990308177 ev
CRYSTAL
PRIMVEC
9.06203879864584 0.00000000000000 0.00000000000000

0.00000000000000 9.06203879864584 0.00000000000000

0.00000000000000 0.00000000000000 13.26320978673599

PRIMCOORD
 96 1
Ni 6.288991292693155 2.3452465047308775 11.566314730042413 0.47079572830432465 -1.3244616274445835 0.20358483340662356
Ni 4.44454928426036 0.17194855593980854 6.082335129254402 0.19744940993284704 0.8889062103997916 -0.9972183019443343
Ni 2.484412230151579 1.5264732011422075 4.893408363402971 0.2579965753882847 -0.7081113783044901 1.077838584000563
Ni 3.6800394672783936 3.8176102739210758 5.214403891556392 -0.18787076510547646 2.323672020118282 -1.2792750036056162
Ni 5.419443387324698 4.282411291213072 2.634417966039705 -0.17005970506598453 -0.25855579032586434 -0.47908316512409754
Ni 7.244728246344239 5.996006525578699 2.638463260031227 -0.2354387446924268 1.4224039457190276 -0.34875266032693486
Ni 5.095013346575429 4.275850375330765 11.73914683473709 -0.7419041584842191 1.8033954114750101 0.23690761592846943
Ni 5.471722287497389 8.09290786490264 12.263561566172964 0.6247834675091111 -0.1948327982456064 1.5239638061414011
Ni 1.8884382054060005 6.687730049236509 0.3964505918192064 -0.2566498315524032 -0.5020775691367417 -0.7862451464934395
Ni 2.7102835400500602 1.435499396525523 0.28573241769372326 0.04341076288546717 0.5137043547423928 0.946719264753518
Ni 0.16583439855611726 9.00569981804785 4.6960643507386095 1.2530674919723128 0.334108942271831 0.3985132766898298
Ni 8.796049557084906 2.201250712783561 1.1019366333643907 -0.27195175201679617 0.5875523510717946 0.9320871166626399
Ni 6.959727135158392 0.7902405691314441 4.8850386646337745 -1.6234973801623656 -1.2500189349539763 0.578075779039927
Ni 0.6980288900540924 7.455221276888749 2.581206582104183 -0.14812768087958358 -0.26703888809621107 0.704934009017773
Ni 7.634386840299096 3.854646825317469 3.6301402584188147 0.8067679490371397 -0.16332881410005418 0.2086005414536601
Ni 7.938989140785261 4.2114827157837675 12.527326696311023 -0.8952732902684 -1.4676985558907691 -0.5694911226947096
Ni 7.7850341685138345 8.809379815735284 7.271395107071952 -0.5672321514572037 -0.417482618703481 -0.7778499804512088
Ni 6.855948670124995 0.7718292254876831 0.21856730685823375 0.06045871950668942 -0.27756164200440586 0.5174244839064572
Ni 2.0746812208938077 6.476104263878064 9.280280491149353 -0.8948488011364718 -0.9462132716513769 -0.24012020932849615
Ni 9.029397048755355 5.0721770095265155 1.3408572787193942 0.5916198362729489 -1.8332448907362748 0.6679268356658046
Ni 6.15914134286225 2.1999820273919544 7.0412655452769295 2.2206936820818273 0.061532926407474674 -0.8585065150620117
Ni 3.483221052847697 4.210177782238115 0.18242880347832785 -0.16591765787315296 -0.5058401215029675 -0.04706995690460926
Ni 5.970179715820999 5.535364983963469 4.772182755623435 -0.06162625745222935 0.07700171146703512 0.33636945617123354
Ni 5.266512425405068 2.763912683960962 9.205649166784262 0.11333988377643707 1.2606103373165773 0.9274997544022736
P 0.26719601791850384 5.765549824193412 12.516371597954503 0.45378633823052167 0.9339295691880175 -1.4084294858168065
P 4.182212331391708 6.252217540413595 12.904333778300012 -1.5064417380972377 -0.2298453097650493 -1.611408310208315
P 2.3282551825218643 8.375498473844436 1.5094329439252323 0.40237610207934577 2.2636545019140693 -0.6450666432381793
P 6.313884712484174 7.860584383583991 5.845082805189361 -0.9293357791697479 -0.3623170292749308 -0.7823244712827946
P 4.647185527415423 1.0076080620907588 12.568509130326415 0.27462312820137225 0.7216811465691249 0.48053249597611436
P 3.9959149436728314 6.246907185845871 8.233363118403524 0.5862004650295904 -0.3515417930362978 -1.2381319537084032
P 4.460806581349943 1.003176725258648 3.9359768085502425 1.0459661607719986 0.9683108748813647 -0.5874034841987561
P 0.2282238150960601 5.542696173119252 3.576967841248892 -0.4214020083625452 -0.36596053956478913 -0.14945205611796197
Ni 1.4453588944260065 1.0910694367814313 2.8482612322219074 -0.3083387752862625 0.18580205550190582 -1.7893556455524924
Ni 2.0605897510084663 6.150550530353372 4.610914718273249 -0.21300869782368478 -0.0002663662875092187 -0.9596606554055342
Ni 6.051448077191896 5.780166892312419 9.197611138624584 -0.0729851341084743 1.3810919743441183 0.9470522226129043
Ni 8.452380808575779 2.622055533102353 10.224462439494458 0.7084476785979864 -1.095363994478836 0.27772182173135396
Ni 2.416809422855985 5.215348155969288 6.778004264480106 0.07882050984332878 1.5794950064394861 1.8995119893946255
Ni 0.6486625290589885 8.960625238491781 9.272800684561984 -0.13274914154098427 1.8158230957154016 -2.7052324710038573
Ni 1.3280236197794453 1.051423018293734 11.238806314810795 1.6167875722423577 1.1726001905541805 -0.7010097342627024
Ni 4.200499525107862 6.826950146888279 1.7285276614248337 0.5196819124820663 0.3062728938961693 -0.632847218353852
Ni 5.4689402416743675 7.923266503967853 7.840666022935771 0.1264226851023242 -0.5203218600589102 1.4492115528301752
Ni 5.611513293575383 2.79668101521845 4.669591417635041 -0.09536684423778415 0.5451602592588288 1.1191029899669889
Ni 0.5452456393621997 7.449593750973124 6.778746445434197 0.4174921317851778 -0.7367064163333635 -0.051120215714582924
Ni 5.4238837861953195 4.71081916184299 7.210570704582941 -1.4629605269851513 -0.8510824546837988 -0.34117587642094144
Ni 8.311520481953432 7.097877912265807 9.257229383787719 -0.6584798313202919 0.4253267973382482 0.368077843018108
Ni 4.696084287223334 0.40329152469151786 10.278164985917302 -1.2387600742107052 -0.27623675254539526 0.5225610338020743
Ni 7.9943581960903645 7.065091456931296 4.852889270606619 0.43360214997316293 -0.5801185205015686 -0.834810971217285
Ni 7.357894983275521 6.263835073785304 7.145952026569176 0.29716553227826237 -0.6212661983844721 -0.7156513954352771
Ni 2.474906151753043 5.243522033701459 2.0220960238194285 -0.7466946378943269 -1.003348583211788 2.846066703545821
Ni 2.249234206701814 5.425596511473989 11.60622304144309 -0.05396282736970061 -0.09205809157952533 -0.3407387888835229
Ni 1.0511783432539243 3.3539510734815243 3.9397828647250615 0.23894495807347232 0.5496422062895824 -0.1489072393580855
Ni 3.427725129003432 2.8761913411181204 3.0181363937502907 0.4822805890154726 -0.47608371617614137 -0.6604390119291916
Ni 1.0243365851829391 3.500737973290375 8.294652403468175 -0.2234327213704862 -0.5098739252527089 -0.3368872763479166
Ni 3.844479218107595 2.4495505679979397 7.024752698701322 -0.5292410169254111 -0.016381526681816947 0.20103635595315697
Ni 4.093522160479915 6.87313935718126 5.621836767847654 0.21811850824642434 -0.1269477043678588 0.5492943360318604
Ni 0.9519852697073333 7.805958415436827 11.045613621988538 1.7697589543674876 -3.4700891245191916 1.9103252779600453
P 0.40379537403275584 5.578572783586176 8.017769066380906 -0.8981017608561306 0.7332557387806017 -0.22310259172457705
P 8.492380646565424 1.4598762801213871 8.168572261658042 1.02211069431064 2.116855567148238 0.906026415019846
P 1.998179491779947 3.694683721512935 10.275180856635473 -0.81040400312783 -0.6791810684233852 0.4874351366332186
P 4.1002552550939395 5.637865701566748 3.597897525394991 -1.1244915079724118 0.7781261169307307 1.0621453416350224
P 6.797987871805609 4.275651010483513 10.560459266199771 0.8340152147888669 -0.41121684029942734 -1.0494314936127798
P 6.38168688462702 7.966075573896055 10.27784690836555 0.36399441697735374 -1.4212850016232361 -0.46080159320609027
P 2.0854831707994843 8.329028340357599 5.448605933458471 0.6942127659455269 0.09264995952725333 0.3344341868217337
P 7.041167675261005 3.749608736930977 1.2115447077722181 -0.1631130985448223 -0.46970866588773297 0.9120314835633454
Ni 5.087917770420945 2.549214867547127 0.9274235205258351 -0.1503408864808185 0.2781429684291726 -1.4319234551736888
Ni 1.4691829936726706 1.0950114235339223 7.2059943751346465 0.14399823209224233 -0.047743585932866164 -0.4616397728366695
Ni 6.843760228327063 0.8478561037835426 9.463803988879867 0.8875754074035102 -0.16381243860469205 -0.6374734042719538
Ni 2.7553581196061305 1.94199485300881 9.088879363340817 0.12425215981356665 -1.0766859584533586 0.9102774769867161
Ni 6.305556699092129 1.820373234146322 2.7595565620484965 0.7331498093303567 -0.30155080583015165 -0.9279088169152343
Ni 4.031275017944602 6.9308826665763705 10.74540097295733 0.6722761137734358 -0.30650917827669144 -0.5968589731847012
Ni 8.272952446048599 7.135023208124338 0.5453036364086731 -1.040000430106867 1.6238179967265778 -0.07611159555259796
Ni 7.623575828354908 3.9007816633793806 8.447112139385208 -0.8829993579970534 0.019093526296341312 -1.6721773618665716
Ni 2.941718941594587 8.418289419695615 12.417003627064641 0.8964112605275854 0.060246603495883344 -0.3298203421988062
Ni 8.935559639969044 4.933174400799021 10.186052083059725 1.421356735401436 0.9710861236336567 1.024812409512519
Ni 8.606100167845906 1.9855107619409067 6.058686833554861 0.27419401108375363 1.8817094139955657 -0.01595806599115316
Ni 3.575064813161483 2.5243486338716434 11.306368342933087 -0.18642271980504022 -0.015956780439572518 0.6443899288861289
Ni 1.1803667642734932 3.259298081229182 12.70872786462215 0.4372271483202599 0.39858243936486837 -1.368046968234702
Ni 2.764682957234437 8.048349821541725 7.585879560554879 0.8413616278516091 0.07516491536861249 -0.14498810680933738
Ni 5.510997162406117 7.687617254515492 3.574408721573252 1.1271142903072395 0.27871658154445544 1.238807382508873
Ni 3.2535255626973734 8.369290977464077 3.424401173277423 -1.4873299569684513 -0.42781691074995354 1.663022434840181
Ni 3.8080770094070053 4.66795571968372 9.65345433084799 0.05947784365065885 -0.692649278113149 -0.148504347492712
Ni 7.137506206676481 6.380255082542207 11.597310526567057 0.3521940819083161 -0.7766773002993462 -0.535797072876374
Ni 0.6636339228837942 0.08359911767604701 0.0028998523236715788 0.23187159616645872 -0.800038600733106 1.692344580843066
Ni 4.710221067301233 0.17962863357828246 1.6405796714671306 -1.1308488176490072 1.0734342842852802 -0.42904306984757073
Ni 6.034293638289676 5.55135948193622 0.39630469299917165 0.6220637545851029 0.40234756283425543 0.6882861160484469
Ni 8.122776343836458 8.69774456331244 11.587415686716378 -2.407417992287686 0.4947638090841479 -0.3556738129268004
Ni 0.08497201651053528 4.839355116089733 5.764071805712192 0.0403596347639692 -0.2822140531747527 0.5058758598369094
Ni 7.957965049428286 0.05601970967022801 2.584880332516734 0.6281197309711956 -0.926988876204126 -0.8301439047589186
P 8.486499383571477 1.8132957820688609 3.664227116279723 0.4336209190262403 0.2159310136768023 0.010754153192710511
P 1.8975183679944971 3.201373531063842 1.512098995655308 -0.4421279280559869 -0.605046651201816 0.20435487880342867
P 4.881538905360643 0.927336524956125 8.194819550002673 -0.7280934778533719 0.006631903494220837 -0.5008470391637503
P 8.62437829952355 1.6772111497420605 12.168636712765277 -1.6318388101485253 0.5892760186311207 1.2253445721357477
P 6.405583480181776 8.024262923178227 1.6080578276571538 0.8396536440215667 -1.5172090039160708 -0.9583640480812977
P 1.9171558054488607 3.2709971729474945 6.27084546677778 -1.3421834702043787 -2.053158028989277 -0.9211370454090394
P 7.072449832202612 4.089426119072729 5.9318907907023215 0.15138424014366833 -0.7859816084194077 0.7224725321221687
P 2.7532013544404 8.494800210847988 9.770648237693772 -0.9035812959134634 1.3521966314660068 1.0356632361840938
