# total energy = -340863.6585096668 ev
CRYSTAL
PRIMVEC
9.35534915914445 0.00000000000000 0.00000000000000

0.00000000000000 9.35534915914445 0.00000000000000

0.00000000000000 0.00000000000000 13.69249914759697

PRIMCOORD
 96 1
Ni 0.11173000076071407 4.509334478783943 2.4363340891329828 1.7117553812695099 -1.8966153845731208 -2.399441401840113
Ni 2.173808955677392 4.3446616209864155 -0.21347597278369831 -0.5466725821382972 -0.09171459219717752 1.885487135870443
Ni 4.314359644710641 4.8623024512781425 12.431597665797579 1.1887500608411656 0.9257619457755606 0.49094083579363185
Ni 9.10355004146727 5.435972468329863 4.291681342552534 -0.3374909713701865 0.5790697675220802 2.9623864958861885
Ni 3.5676156662196377 3.2254063453824746 9.130775043369132 -0.48647431538184616 0.09950477766555765 0.4925120369354937
Ni 4.352398494830215 6.826345765691125 6.331575957752403 0.44448562965488614 -0.17813554009558352 0.6282380017166148
Ni 7.214424363984332 3.964956060287163 7.8826348630536005 0.4128281506506052 -1.6566353003669145 1.6713929182920635
Ni 2.913274472438678 0.27805594877371825 9.098624450078201 -0.7041230830807035 0.799592514334623 0.17178748639036867
Ni 2.2201179345489837 1.9502722402919745 5.316304453716109 -0.7041493083329485 -0.01252050106451392 0.31474210770944505
Ni 2.127574819599936 5.592347131327572 6.0543713457619805 0.3057627870289702 -0.9952709484099763 -1.1756988840841625
Ni 4.803251486704913 2.917942791722905 1.2497605268085743 0.13891156159795431 0.8933439344561712 0.6705858705552065
Ni 8.525389456767396 0.4828548351122849 2.2735846911447486 0.3891254077170266 -0.054080326784171386 -0.2554308715436375
Ni 3.384363084777872 3.859830000574016 6.911905112412366 0.5992953505403357 0.02267353033811579 -0.822328779589874
Ni 0.6035977793568156 9.408113436854075 6.8051998697429505 0.9730301347339049 0.669531204038447 -0.14011303810522321
Ni 6.000530375195536 6.624999938767003 10.912538732664114 1.369296267260771 -0.00758089767105146 -0.365866437189086
Ni 6.258232826103995 8.255796356940596 13.841610647875028 2.1792927505375372 2.3536595676193075 1.7624048279952615
Ni 3.2188950222926502 2.243291134683314 13.425892605707432 -2.244509296444186 -0.6782045634427287 0.8089395027671616
Ni 2.1708433099597566 1.9093332318996339 7.558670344356918 -1.1481847378242935 -0.5300354878022484 1.7125097429370313
Ni 8.901072217281843 5.205466017740539 6.958993391877897 0.2394650922430005 -0.3058597176181507 -0.3075936695901219
Ni 2.0163958489110474 4.118449275710639 4.027005414300462 -0.0018663637847774305 0.3165002280511323 0.12012656768096731
Ni 2.839554320214811 6.563703690369696 12.789163792456504 1.1685735858932909 1.5400951644856251 -1.7414529083339427
Ni 3.21569549284334 6.120063672779846 8.36799318962973 -1.8941191005138283 0.8958052515124701 -1.0455005339894896
Ni 0.8536625231237048 9.116965612316132 0.5908165011882561 0.6272208733060102 0.5333393553645008 -0.6642128771493271
Ni 6.623503082884285 6.045492183772682 4.767947205176079 0.10728545005224105 0.2991846195908202 0.553968087358446
P 3.142153092255546 0.8283768851248889 1.6216983410114465 0.3323271677810599 1.5052258634122657 -0.9464505844731635
P 2.9468227549100976 8.242932751698486 7.440873399596562 -1.2132148787517494 -2.3469523308024614 0.12128227855196531
P 4.175704013224608 0.8630412607638607 10.830410928054006 -0.8480809488533138 0.5261307534312035 -0.9633766708045409
P 1.9422640613194324 6.414345539322228 3.9581453660207955 -0.4490704208120911 -0.9304626936853394 -0.24323792902187144
P 5.76645953653549 7.402784966125873 2.5353716875431744 -0.6994236207225051 1.079304112802496 0.6783218057468834
P 8.618269364290056 7.777934471732102 1.5458554600388994 0.5905893381259055 -0.29202538283821966 -0.4577710339098826
P 2.1065159283999453 8.701120337398503 12.509549242494906 -0.8106392590670878 -0.4629119546808737 -0.9730463326838211
P 8.887347919907171 0.8437916941121055 5.117872818088655 -1.3598978567650062 -1.041683988456877 0.8634507464411645
Ni 5.242307383153939 0.5124149321911877 2.346209331969452 -1.7261059935642273 -1.8687446263047816 0.18787693575306355
Ni 4.059248625549138 2.9957138101793785 11.410233958318623 -0.45517550526856443 -1.2825611305560558 -0.8656004457943158
Ni 5.808455699395001 5.267866197351351 2.687522410346838 -3.2030684912554257 -2.627818868810384 1.342394300663604
Ni 9.532913796075697 9.04866220731785 11.001649369967105 0.8930426011656685 -0.11435186998071918 -0.17163116331816247
Ni 8.274226394996562 3.2135624732104673 5.759804141066955 0.47151229475537504 -0.49358367273311765 -0.2563932354569068
Ni 7.951392002491331 1.3145294808537873 7.380667984923786 -0.13932730897913426 0.7507299843059652 -0.5116613561704348
Ni 6.825120214937149 8.549198820651881 6.675107189440992 -2.5311929553545185 0.6174465675280657 -0.9335737285104955
Ni 4.060876456321594 0.36857082400168306 6.610834068906929 -0.0710416372288583 1.2962566257652772 -1.7301907051565624
Ni 1.6171376082437896 7.020263445297257 10.822209093351637 0.3660122187383309 0.7021577318242166 -0.5319244772948452
Ni 8.787002443669456 3.162762926690721 9.741542762404169 0.13697963468256408 0.8485738293293322 -0.08532360106916918
Ni 6.653253093553308 1.4761992715366112 0.8600587754175447 1.7758200729599027 0.24307646374334263 -1.1351744416075547
Ni 7.941830835540469 3.716290876770615 0.6888409152728324 1.0577783229155784 -0.17040011912453878 -0.04406793685349185
Ni 0.9240746238467653 7.100522986658749 7.008656263461704 -0.5123069601742338 1.6195386526249336 1.1174384577803722
Ni 5.622967189478424 4.741702643877397 6.646420881983627 -1.0209866080085255 1.1417801198495303 -1.356959857182605
Ni 3.472294012538294 2.214167932415179 3.492353752436571 2.389344422615427 1.4628024041407324 -1.2338140430593396
Ni 7.731756467750248 3.7151121027629745 11.820789718760697 -0.3682326234284174 0.856625238878899 -1.1386744843410133
Ni 3.7275079405417344 8.503993772993793 0.5250867527733234 0.15535402342469376 -0.07795121986449802 -2.8129879187139815
Ni 4.062981409906666 7.80434462271281 10.104297365766564 0.20851569504933765 -0.37210161946552045 -0.3202674084030484
Ni 0.3038972945189932 2.115534485093322 3.7323016215061386 -0.3086192826411588 1.68837351201046 -0.1357287929945985
Ni 8.77288522162557 5.867029541155614 10.507131220923664 0.3850926324085497 -0.5463038859449688 1.5072449507248236
Ni 5.040718317148876 1.111471625013807 12.782851738306066 1.0380798160453863 0.31335165511982166 1.2285911040975035
Ni 2.0938300747939094 0.5311115977012638 3.348774400631322 -1.8620610436370189 -1.4689473406962057 1.2877215917110727
Ni 4.848840103682947 8.323800390762333 4.574458936101301 1.3207145016973254 0.334110742044044 0.0591320302754659
Ni 1.2193762234592498 4.508894777368395 8.664366912268212 0.33975559903464714 0.38204176139736784 -0.15200233334364144
P 5.203744633475413 2.793713108806568 7.629761643436762 0.15958580211785417 0.6624984655613816 0.34216060893171396
P 8.085098654215129 7.037065652580768 6.124531787589759 1.1654581801927606 -0.736331549492448 -0.87641810523511
P 2.590440079933447 4.02526064166217 1.9388849091641964 0.7013367785848179 0.0017882022486743396 -0.20396227135070033
P 0.6685407428983946 1.4421645109033083 9.56590824187051 -0.5902800344156028 -0.4890862990833964 -1.8063730060460956
P 7.067554735841883 4.80751752597066 9.915889051343761 -0.3690949714287127 -1.0666735685226791 -0.28301675158170614
P 5.277464785699281 6.852101042223143 12.912451391701657 -2.7949102352766637 -1.7555309836935638 -0.815712302714621
P 8.903916243459008 1.5680688013384363 0.2359475217230041 -0.8170955562153929 -0.03424632277737973 0.20213421700302608
P 5.183162865088039 1.2423529612589728 4.958094679027616 -0.3357441638824089 -1.0332654253758786 -1.4589637471209327
Ni 5.387380784237125 3.3703394162266567 4.705893173488146 -1.370734285258878 0.7529825277855677 0.5366182832260888
Ni 6.991608010492471 9.237181850396931 4.021624217402091 0.9758935723246289 -1.974204850222826 1.5654053611156395
Ni 4.106062793281147 5.639339050695654 4.2636386831247375 -0.7252012439072414 0.243636964232503 0.2942704701186545
Ni 8.200103962754214 8.508344010402944 8.446396629696654 3.5979182030507393 -0.5929143867146562 -0.5190548204210287
Ni 1.3365051962819425 7.8826208300297 2.483326008501065 -1.02820138058941 -1.0345607471485343 -0.3296115686221098
Ni 7.636537722910841 1.109984124480356 12.057148875851448 0.6306566384604365 0.4073375598496791 1.7117893198312393
Ni 3.6355448572472397 6.0728004482830205 1.1748082750862443 0.3830239228049791 -1.3832982379668177 0.8064100514770887
Ni 1.7244808857332128 4.60942736059145 11.256753840384121 -0.7928652229131183 -0.8308707556226143 -0.4050809026050185
Ni 6.061583384511902 5.229668306294238 0.4838624062283396 -0.9314050029939506 0.02141240423750506 -0.29807390302514475
Ni 7.8224846449414995 0.9660988527540766 9.767270908423312 -0.3623491680644469 0.24134971086022305 -0.23648081280369593
Ni 6.701854132995311 1.908472539767071 3.291567375398615 0.6332503673295417 1.7601250308221497 -0.5854926403292884
Ni 1.1494075662914445 6.579111950612426 0.4624190101734758 -2.0015619020795397 -0.1756305142855427 0.8925522917928111
Ni 0.46772068660307803 2.8742158892490015 12.347403264534393 -0.14887355790667264 -1.445951908242297 0.5428958887046843
Ni 3.5528997018226653 7.9665570236531185 2.663916993076373 0.90954934057144 -0.6291903383275551 1.7665638444689575
Ni 1.9685806588074706 1.4241928849614238 11.14495461003883 2.0116061736894193 0.025895122599207017 1.3597600456355614
Ni 7.802754213337422 6.280947614124243 13.017486704526913 -0.0629647737579948 0.9285117406065556 0.0881656985036546
Ni 5.941320369684767 9.144236455429402 11.0926769183349 1.2104098052027863 -1.4241083300046442 -1.12300463901424
Ni 7.732598449184277 5.949496944944116 2.3144161130205188 2.159637438200455 1.742045290502303 -1.0476780012567828
Ni 9.312707585029328 7.872358011883814 4.332594155966928 -0.778958125913723 0.7706462636139179 1.2006722662000482
Ni 2.6119854492953207 8.03951939258636 5.102674117669506 -1.049493971419599 0.9407373361384702 0.7491428423245033
Ni 5.3664902893239415 0.780415751572747 8.360858800278727 1.1144613774299192 -0.722445278428659 1.2090571478296337
Ni 1.2293864471749272 2.2505976624608315 1.5362437742019954 0.3726613486237324 -0.006539343780414544 -0.5525619510395388
Ni 5.102996877219217 5.203969161857821 9.138935714534727 0.9428533540402084 -0.8997832623236116 0.03878611962926223
Ni 5.868404777497862 2.496503017943618 9.828585867519154 0.8197383931548786 1.2774996568727484 0.6133394873382275
P 1.1375636941194374 3.554527532595121 6.592021397065943 -0.33833377898645606 0.6463827909464416 -0.48503526894247434
P 0.012560491925858437 4.884147191816561 13.03209601794224 1.3970726660430908 0.07415832848096905 -0.1003478423921433
P 6.321007219685486 8.234840374582541 8.968409214700845 -2.6331585358557423 -0.679334563282114 1.078058156210537
P 7.8382016317100405 8.120985774003294 11.876463402248545 -0.7630242282922859 0.22142237580867674 -0.04067279512901382
P 3.330073992981539 5.559313393065836 10.418609035089569 1.417651775746023 0.3100310753870209 0.17862790635096978
P 6.18934938945116 3.3584394119590475 13.11844121400191 -2.727470970687083 -1.6506914240786539 0.4631922049254539
P 7.2457834947272755 3.8065606418477853 3.9339917252832857 1.9197463141636293 2.7154384650025816 -0.865844957704954
P 0.3348260791956564 7.072129501633439 9.080126117972586 0.4292487581004737 0.028623577273963603 -0.3281933481183445
