# total energy = -340868.4254486007 ev
CRYSTAL
PRIMVEC
9.24856894238577 0.00000000000000 0.00000000000000
0.00000000000000 9.24856894238577 0.00000000000000
0.00000000000000 0.00000000000000 13.53621550685637
PRIMCOORD
 96 1
Ni 5.695166880332405 4.054859230208751 6.872322856641388 -0.5870065058706536 0.06341574525248433 0.3835980501408942
Ni 0.9264938681448667 2.4723273888465993 7.268568534659282 -1.3180775782951106 -2.6750893717615734 1.0576963047247332
Ni 7.094086886999167 2.26486349543568 7.467876115320599 3.0074659047233303 -0.23628489474280598 -0.7486088241979042
Ni 4.640182647032496 0.6362626835912497 4.140606410191365 2.0251461171573832 0.03792608562181211 0.2933893530652818
Ni 8.542680956233246 1.575290212058445 5.3496606999977745 -0.33633268939602723 0.41692288954526907 2.7477688017041713
Ni 1.240168324676818 7.719928283362554 3.301564233243254 0.32540370118834927 -1.1958640461781276 1.395069776680449
Ni 7.6060876510517925 5.182315247958016 10.77086092871845 -0.8630501685686364 -0.2612289662826533 0.39827982052278504
Ni 6.815991674313142 5.860716260327743 8.66897108689103 -1.8736608326594761 0.8675475422183575 -1.2466212221263369
Ni 6.14663576214651 2.452803660289607 4.128938415900744 0.732458696800603 -0.07084623338860056 1.3838533391393395
Ni 7.158040739662171 0.45683490138244626 1.3883146729214744 -0.7367773787806149 1.1040959750351955 0.2587223978107157
Ni 3.1422104694299753 2.6664363490333134 0.7598374344743629 1.6651564504640481 0.5132171306933291 -0.7908965292225217
Ni 8.51883814608643 4.400700208730858 8.420419502107638 1.2149634860117398 -0.4159592400804191 -0.8547167090022764
Ni 3.5759868392926237 5.5052845160483646 6.486567830116718 0.21365481604811593 0.11618712341724506 1.1750167704154733
Ni 6.33498286402389 3.9042370401191366 12.922984371520434 0.6670125513816513 -0.32572740307635517 0.2870551833171379
Ni 0.9489771386906025 8.528789606023581 1.126959369609279 0.35277592255371504 -0.36594511294582144 0.3353692970414934
Ni 3.8056103033442596 9.297216186263402 1.330707188110582 0.17550607289253645 0.6081800546244751 0.9273151491952933
Ni 1.7911148115875646 4.085518235498391 6.088170010158883 -1.0878818271691781 1.8746242250140102 -3.0837541350631086
Ni 5.533122707879984 0.42788040730694854 10.901349909572765 1.9464978712258607 0.08997344113635473 -1.2306762687613064
Ni 5.115725553211287 1.9318687788584625 8.36248461796424 -0.43849933016446413 0.3831676474716949 2.3936561626169035
Ni 1.3819581316437761 6.000415890765152 7.7234529128997735 -0.3795956138497204 2.4069575077114997 0.9268739478928166
Ni 5.832720842827973 8.188775225791813 8.930152517111388 0.049964761953901045 0.230440520146887 1.602622336485569
Ni 8.43697906439153 8.387998644477824 3.080910031131254 -1.8343198689680087 0.8728740966375934 -0.9064632454469485
Ni 8.363184734615952 9.042575343838168 10.677921136846319 -1.0965508156980857 0.5053973775385942 0.4944087397375744
Ni 3.5820169060946885 0.5486065990258963 9.809749667874 -1.1056005846051797 -0.14939549184841366 -0.8039045114464155
P 6.316670697968539 5.513025568062672 1.140423435944319 1.4051467013004768 -2.278705482709921 -0.5729549128735939
P 8.62473425787116 3.6266320015749964 6.267118716508258 -0.7511773562560289 0.48027821387346314 -0.607547820357115
P 1.5223236590286513 0.8823282531040989 8.724835216499178 1.1891215852479713 0.3185146873779998 0.2936485202639394
P 7.0501839313099 0.9723205261268169 9.411838322630565 0.05032214529331979 0.7240943839963078 -1.388043465961287
P 9.10606676806543 0.9440661487030312 0.4525648372068123 -0.7868989780273545 0.935074481425738 -0.2990007857147883
P 8.47910629488755 7.301319566192215 7.464857382492081 -0.26947732233437466 -0.3825876065985088 -0.26642336599939925
P 0.4499215962681158 6.544573928239219 0.171644186778408 2.833721808827223 0.11387184502050712 1.0755677856885153
P 2.113797374047754 3.3522454649436146 3.8225055886724992 0.4637817588803368 0.9226784217542303 -0.4947818068062769
Ni 5.827800604271688 7.440371796819586 1.376362747571308 -0.5193636099106991 2.7553926367980157 -0.11080220495624789
Ni 3.3304928313263504 2.608429326053941 6.897012835682481 -1.3392354433196483 -0.04660792966652619 1.7677871753530974
Ni 8.453367528154196 4.988973918974632 13.161478137826455 -0.08910055161309817 -0.3071365274480452 -0.9429531128428663
Ni 4.711183909056195 5.810024855201797 2.6272982559459237 -1.1064624183848428 -0.7853210920172733 1.7787914968834013
Ni 3.554002991457488 7.387322006671359 13.511741781907991 1.141133487404467 0.48774315479194064 -1.2850059925521224
Ni 4.598897036289524 4.67844397580572 11.513160302338893 -0.8777748763733205 -0.6811050249189754 -1.4599507936245504
Ni 6.274108784742921 8.651249904376558 12.729443273452809 -0.37164730553692127 -1.4169046131673535 0.647665257203291
Ni 8.956572903359024 2.280327102326865 9.438816397571705 -0.3063160884292789 -0.553655955434666 1.4229760161724139
Ni 4.69659891619292 6.9760104102170155 10.893065966574898 -0.20617367717972235 0.9526217462808819 0.24006030262483818
Ni 2.7991995529346037 8.744947154026434 4.539856948184706 -0.2842215705230847 -0.381954086779568 0.2575476607763242
Ni 2.665419006474683 5.746228228206945 4.267427408693381 2.1013165909723743 0.8500861522088006 -0.25105613951470956
Ni 8.438690049603771 5.665192269127662 1.9808760196214403 -0.4503963387123663 0.313330314963583 -0.9723657616770286
Ni 3.3066500211795353 7.568445976382461 9.056188312129516 -0.6513115957066266 2.9754888375961017 -1.2440220939405928
Ni 1.4098425663189686 8.909728902818443 10.510302852029472 0.43606475258104255 -0.4839235239355343 0.4060751481974877
Ni 7.991910192128081 8.466731709947117 5.615796588478662 -0.018620957535296963 -0.6861922096338956 -0.18387809900631558
Ni 4.121115976481747 3.5844677768041167 5.032142538307943 0.189333465693932 1.0038779733526968 -1.4408351558410217
Ni 2.9065661871449886 2.6604802707809667 9.334708958976423 -0.04657270555321657 0.9378201624916752 0.13503819468547712
Ni 8.616697251657978 2.0023706181715615 3.2261264328070536 -0.41556483285547785 -0.6373073110077347 -2.9290336314573553
Ni 3.428102225542597 5.50448913913889 9.109940068643198 0.969959209118065 -3.9804253341202993 0.8912333158710715
Ni 5.855879258889892 3.5585347901277515 2.163763691386459 1.0632329182722464 0.8428117300345743 -1.4165587997921603
Ni 2.250722433870715 5.6770396856513505 12.492302572749765 -0.18951678534933167 0.729595516320195 0.07521119522551563
Ni 8.203674669991393 3.414580818081525 1.3417814242897117 0.04486626438507112 -1.1332553702079708 0.16507253626403828
Ni 4.606887799659131 7.335511524730919 5.5058015110395235 -0.6671873863966188 0.982401805756792 -0.8299323029687448
Ni 0.3183070646012065 6.579579760824825 5.751523958653053 1.0735175880277061 0.7144995412190212 -0.45615432424206603
P 5.069038778338859 6.879871538426427 7.463354490075922 0.22505740145810274 -0.6424289485050162 1.4542120913685601
P 1.8861808494072347 4.1355437436768705 8.248387800300078 0.2552822617809152 -0.9483449732823991 0.8822339405859386
P 4.174924149264589 7.953759846179434 3.043103731938799 -0.18609593259324078 -0.6356229813267762 -0.6219357136476709
P 5.462537631448452 4.111275499369174 9.119402279295334 -0.6548432630089691 0.3675826485492444 0.36797242778849526
P 8.41015821511854 3.3966848376183414 11.50874688534818 0.3799242008337328 -1.3391917345659063 0.853914267705639
P 6.96401501659389 7.382059571072625 10.866819453419101 -0.18235472038325368 -0.22173527906340523 -0.06917938720913892
P 5.049653778312588 1.7980789838298268 6.154078085391329 1.4370371222511702 -0.6824471407691666 -1.1121188453396718
P 8.332858677800047 6.376536683259592 3.9092183192289403 -1.0868235611079928 1.5714739359072227 1.947701918836291
Ni 4.361384543124144 4.749269515023839 0.4202457138328618 -1.3841996667351644 0.6195530723481073 -0.09972255010331858
Ni 1.1573566404042892 0.12454770031191267 5.99291530153743 -0.7100096237684675 0.39143811501060327 1.2511427641457742
Ni 1.432779016731731 1.7884049809541214 1.79813724981273 -1.2355539085685816 -0.7442929704313698 2.937345750867477
Ni 7.981884743641213 4.036195618542237 3.9981923248361566 -2.2386320117278027 0.3063088893404273 0.8801775722775422
Ni 0.9398488013690718 2.8166885963743344 13.332562786197617 -1.8393417476626324 1.5892176330438887 -0.6334285447786188
Ni 2.123230914136874 0.6944019611032441 13.257450535380178 0.7471458664991326 -0.6915848414043767 -1.9122587475373325
Ni 6.647695469409499 1.6203584874057797 12.722418060657029 1.5074498676467778 0.08969601910525198 1.2075916190277007
Ni 1.539572239681797 2.030107075747317 11.21950529764705 0.2956601513773295 -0.17845178578442172 -0.5073393317563134
Ni 6.117696990637828 6.241498331454455 12.57082569570923 0.626482966698721 0.1490278240963498 1.0819124969596206
Ni 8.80759695850065 6.756005457628797 9.492162141918806 0.5090527149029943 0.6683071018233587 -2.0083850956489604
Ni 6.205900590471099 7.402147462321221 3.9054143829165335 1.4857127330800026 0.44280489951835356 -0.16538441107750226
Ni 3.978003624188568 2.6091507144136967 2.9204381153603522 -1.0657801101741322 -0.8340609804251378 -0.18669937050519458
Ni 3.7471778462040053 0.2619953042672611 7.365230875439131 -1.1984575179369166 -1.298561362639054 -0.7082659016044834
Ni 7.19531247158291 5.825192507894107 6.166287120951767 0.8213584452568048 0.40891570297007646 -0.6494002376165268
Ni 1.0373472127607404 4.465393946891049 10.795564780612615 -0.3672664028604062 -0.1569182825880201 -0.972466291810635
Ni 8.024280182629962 7.738286692261479 0.4514032169762305 -0.20910576322485278 -0.0128323758779779 -0.23465892910360875
Ni 2.193150093620939 6.5811242718002 1.6761079347618637 1.564428599024667 -0.231856169547491 -0.7479215683228926
Ni 1.332885226042923 4.591766389810395 1.891956580569642 0.4218105566548736 -2.5815909481910957 -0.7403208731574992
Ni 0.6571394777512206 5.032146237735428 4.061582014807556 0.6153027817121856 -1.048429791821143 -0.006618019537149893
Ni 4.388677069401588 1.9921139554668224 12.196697969772837 -1.2942732767866614 0.48180082116557665 0.044774990222845465
Ni 6.186080907715233 9.245340964341956 6.9533643648619 0.01291825072356485 0.43206103073828817 -0.8405334755233589
Ni 6.372532053006073 2.8023255691602142 10.626402909677266 0.3699526914433177 0.09010045363252224 -0.267540510322978
Ni 0.04494896881091335 6.9394970609308935 11.609456399797635 -0.04711880786467369 -0.029876732954774353 2.7195648284661296
Ni 8.84314845664043 0.12133382268351153 8.135170521520696 -1.0109464501637042 0.1086116250628323 -0.7197134813197927
P 1.6582498734304114 6.70111520230632 10.27711406473827 1.158404872890405 -0.8197180814399044 -0.610927021241993
P 5.222232070531193 1.7213621063403663 1.0116047465999007 0.20571602081701348 0.5187066930529906 -0.5255926215395464
P 5.585830300985762 5.240257530956385 4.819786152046881 -0.9459682455201065 -0.09773688713185749 -0.5095602506670321
P 3.71602866677248 8.92377747869626 11.744128508281666 -1.3099089264413892 -0.45500581245991956 1.9038777225624888
P 2.446375905032805 7.6284599387729495 6.458628828886107 0.4170563297993399 -0.571139714041726 0.157424018579845
P 2.817086284829072 3.6100215721631734 12.333319676541949 -0.06037952952932183 -0.46295437788303495 -0.4914450291235601
P 7.06324291033523 0.518943664586843 4.081087246227119 -1.1087175329676067 -0.5132556972407483 -0.5809644134416316
P 0.8909941619898885 0.6419727499157816 3.863858713967089 0.7468720440124557 -0.7172549924769711 -0.16789406487323344
