# total energy = -340873.97400977387 ev
CRYSTAL
PRIMVEC
9.16217634250592 0.00000000000000 0.00000000000000

0.00000000000000 9.16217634250592 0.00000000000000

0.00000000000000 0.00000000000000 13.40977120423335

PRIMCOORD
 96 1
Ni 5.440527774740855 6.84302791219125 6.257629897936117 -0.4683454669916193 1.6124622053941262 1.558326085671355
Ni 0.9169597664946784 5.701173366184192 12.89387023964091 1.548741013086081 -2.63952767260688 1.810235317214979
Ni 4.849530754547484 4.0354988766310695 2.9543464972785944 1.3121604414797272 1.565390191606988 -1.757550585226754
Ni 7.808208212564101 2.8730385961204954 4.939288014691418 -0.8072993960605774 1.2925778913621093 -0.9673510820712566
Ni 1.7337311351254334 4.935526941319389 6.723712555078975 -0.818275692566423 -1.0455200743735156 0.9282371467889303
Ni 5.8518178689440115 2.151947834613009 11.799673669887076 -0.09773842979375424 -0.9886004783683362 0.5935844161984875
Ni 5.5693296491963675 2.1187349455177444 4.541902439244393 0.8086294277259106 -0.672924545990712 0.23756221879333284
Ni 4.294889249921013 1.8305478521101686 2.675303255820556 -2.2939513531253977 -1.5866475583238673 -0.07611288110417859
Ni 8.818649663869534 6.124869047100448 6.920702094227918 -1.4467170685430955 -0.6760373805880809 0.007649803235773922
Ni 2.426309203980653 5.7248117810437185 9.238903115149078 0.4911501235909606 -0.12765527195784468 -0.7118315074685547
Ni 7.428426842664011 4.867552755333798 2.8878345946308244 0.7363161228734802 -0.2262226254107975 -0.15820049173455336
Ni 0.8861858487310437 3.1493973199220058 13.266956807317026 -0.07482758663385178 -0.7581141925851783 -0.03979193518595727
Ni 7.380691904129851 3.5381209738929864 9.331538214869514 -3.037594605787911 -0.9471746071233815 0.9962556809207487
Ni 6.1992842430264465 9.205879883103266 8.518315357120578 -1.061033339517766 -1.8527307673750286 -1.176660219556167
Ni 2.5854195576436516 8.674675225457674 13.083377029403897 0.909947347340807 -0.8822354832478354 -0.9656251005190853
Ni 0.8705854111413864 0.5274921438079637 11.861612730342447 -0.3467284308080545 2.257694427675893 -1.0558553948612526
Ni 4.095291239178849 8.701822753840922 3.8043921415858386 0.7754822515499806 -0.6237272583304548 2.260476361296404
Ni 2.4697104331239 3.6337466079584426 1.7420366479433254 1.0499940509844692 -0.5722555728137242 -0.6808772251788855
Ni 7.564906620860719 0.9489449239654563 6.241310229506742 -0.8383680924409238 0.5564970244278867 -2.338644325157398
Ni 7.666130344646784 1.1344148588497178 10.563305778017643 1.4001551616231565 0.5131734219395871 -0.4421693228168836
Ni 7.446384708216209 5.556951549012174 5.29144175817003 -1.0562711422424325 -1.1793020280543884 -0.8066597055940493
Ni 5.084027494824507 7.249040592844372 13.056423739158255 1.3240913885893584 1.592174658789684 0.07742517215769891
Ni 8.235724520998351 8.730766068779388 7.80409806027496 2.8855693896261334 -1.5604441604556223 -0.1746671219310089
Ni 5.116030976647891 1.8250230597999768 9.19824504159069 -0.16045046411099465 2.1116315997451376 0.9966896831343738
P 3.116001187300698 6.9914276817570435 7.203876560980593 -0.10505784627330293 -0.5393724489324582 0.6951193369201963
P 1.5731273467251854 2.893937520265681 7.681036289272739 -0.35474384491336325 0.056696424250779774 0.09548845741731297
P 6.329607038748115 7.070378154952603 2.460894587085979 0.9855673479689672 0.9856812478390121 -1.619277685654063
P 5.433170547170235 4.614869095097022 5.634196024980273 -0.19348348330656356 -1.1458548041395362 -0.20298910880415366
P 0.3718157738230078 4.598725340452647 1.5890044820391676 0.22532376774561194 1.078146345048969 -0.5316665956477682
P 3.1105130436957147 6.694884683561915 3.133729082227713 -0.2808318281152453 1.2407133412823341 2.1285566576352504
P 3.256539809599255 6.457749236509874 12.516747733303703 -1.5680708237629446 0.5023441925345671 -1.4114471895972078
P -0.10558583592351518 8.479850708568927 5.6866815519270935 1.1313211292997354 0.19798548494197515 0.1620175514877984
Ni 3.52688814574656 3.360319780573618 4.550338054965776 -1.3377632296494961 0.4789294131550526 1.6257735777910516
Ni 8.303423841694878 8.07086948279391 2.1598309711033727 0.010790405747284643 1.3840734255699454 0.7644046535795803
Ni 8.683470914707732 1.3384290385695148 1.2553290157267165 -0.3822626191589223 -0.21616961205016968 0.5031440627280431
Ni 2.289481263084464 8.290541821814067 5.638755123908219 0.04746924922555696 -2.237694844625514 -0.12178441499936447
Ni 8.911883969920133 4.071533716027394 11.276933946927034 -0.33525539717144837 0.4304913722583231 1.0745704547722525
Ni 3.936382453394497 9.106287026698983 7.493111807357134 0.9953190280390924 -1.2093818781589043 -0.39586529754402144
Ni 5.853375438915375 2.717913789148928 6.892059298672162 1.4753087641378593 0.15909986362037115 -0.5037341309035582
Ni 8.175638968808904 7.864152461064981 9.98303858249171 1.2027836561160963 -0.6922399584898723 1.3250581233780019
Ni 3.245746765915331 5.840420121624147 5.26145762000364 0.7497915316520958 0.8026981498431401 -1.612905720689448
Ni 1.4211451662252532 0.7657142249694383 6.808650510487982 -1.1340308149214147 -0.8545357033397218 2.9889151383043364
Ni 0.24322737807533473 7.521587851304191 12.067359477600979 -1.6083517827701783 2.1631320816172743 0.47773050775094505
Ni 2.00866055942381 1.0834914829624123 1.5806898070449735 -0.0019985184872675257 0.29741852882933295 0.8554191343859398
Ni 3.8777262007081834 8.523215289006965 1.6273564358223038 0.9521288658048634 -0.013024180173809827 -1.1109847317352286
Ni 2.3789224281459744 7.615417698814428 10.73284543696537 0.23066189212907373 0.9354310934342084 0.05358307543277869
Ni 5.931464667538533 5.424942912850912 0.986048989336241 -1.393675981656716 -0.5417550902320218 0.5065751998967792
Ni 3.2228046764547678 3.3406211015240124 9.863127683919796 0.4036827367059112 1.3312012601612622 -0.40764840622187865
Ni 2.9525204755415775 4.265771853632806 12.427719782393417 0.20984161294961282 0.6915555308283381 -0.512773101177375
Ni 6.5688222998207415 4.293221733834024 12.385962247678776 -0.8150846964329511 0.6084091399161456 0.11803317548704834
Ni 6.932377455489739 5.5784276902643954 10.530934892924543 0.5499394258150271 1.274313802945599 -1.2691268594280207
Ni 3.0619718336469663 6.101798687171655 1.164741662409808 0.9772565141104267 -1.5089043407051175 -0.6521235500849608
Ni 6.3413437865911595 0.17480424545093792 2.6736668911329935 -0.9634026389464698 0.1913535814477543 -0.17665278490246997
Ni 3.732762247255692 2.737044413267801 7.381448699892408 -2.159517367682823 -0.017171112462647846 0.44208370508161277
Ni 4.142650528484621 5.0392152905307315 7.351880524530135 -0.15178276113366765 -0.4457094747596582 0.7450717575789233
Ni 8.076027788052016 6.395629681181351 0.7628253907813729 -0.5830914870869636 -1.4811613662638943 -1.7111141481410854
P 2.2182086936301006 1.7903075737911605 3.651038383293476 0.64599969657541 -0.6517098595863099 -0.011077597970400276
P 4.178089826421306 8.795304438651677 9.713180422776569 -0.9732905874841432 -0.20420138394469992 -0.8330147985488104
P 4.665096145585364 0.4235032752139119 12.820787224149246 0.9510361469613171 -0.5732814429750772 1.7695602080931203
P 7.12892446152329 7.304865733053323 11.962803470293824 0.48204070509052466 -1.31438907369993 0.8773809833690116
P 0.17561051696552643 4.372960154191565 5.207818575060379 0.45181301655423484 1.1027759706721911 -0.4001356427846012
P 5.429194162655105 0.19174236078070794 5.702987477092017 0.2532433769740155 -0.518309714724888 -0.022781516670889797
P 4.426513074677586 3.6951973244169096 0.63885656432524 0.6728003617080219 1.126679516762666 0.9129300841182147
P 8.119273260198126 1.6865001162878914 12.625915980161356 0.11212323776051657 2.074608742663885 -0.46236430970751985
Ni 7.142273752395511 8.019194808449829 4.805391053994285 -0.7103271550088863 -0.00647815152517594 -0.5824929342710162
Ni 7.056973891022569 -0.030873785485328063 13.268834137241335 -1.3411264896947743 -0.6108635149939093 0.11908475668001428
Ni 2.6069964828351964 1.1994754727712285 8.966725092394233 -1.6545030845152602 -0.2752023977436099 0.351960111520639
Ni 7.834018063207235 3.592388544130574 0.6483852276794676 0.1933536425969186 0.07434550479111067 0.8697476351934698
Ni 0.8305503655715466 2.1578849248567975 5.3043686727147215 0.6166837212201121 1.6623588331142531 -0.6359058026745178
Ni 1.6678184388078237 8.582338812684688 3.4476389856035525 -0.4148282117997694 0.38181678987075535 -0.7055634150716558
Ni 5.505359334254813 6.18415748995161 4.100225071117552 -1.433741482219034 -0.43310207040829285 -1.0677822282058256
Ni 3.418682843618263 1.179254549672401 5.5938458005456395 0.366482216396214 0.913028300258976 -1.342537768220004
Ni 1.7808796943762564 4.780961027102253 3.5442559671449008 -0.20883348340007263 1.8184978143340875 1.3257795749250587
Ni 4.569003240528499 5.74851433113736 10.954429005962153 -1.4018549179230826 1.3826678034716704 0.02556936382867209
Ni 5.12723631826541 6.80851399406108 8.758417516859254 -2.508301909688958 0.7713319768270328 0.8089014504403745
Ni 0.06400146634098307 4.826066421037699 8.951894277613956 0.9480420973299994 1.797272586406724 -0.22478280764047737
Ni 6.054494370923696 8.69741574703959 10.722868743189967 -1.6885902560069563 -0.2615598672595108 2.244935328238011
Ni 8.302709191943313 3.289642752578894 7.1877712874766875 1.817906974827624 0.7429973915483978 -0.4702493688825514
Ni 1.008407448166358 7.370659321079006 7.935191395023638 2.830167001596429 1.727649169681631 1.3777870783406012
Ni 8.547824894554518 0.6689726378303809 3.68882686323403 0.5745839638365846 0.39764758625542485 1.1316448311877414
Ni 6.575428228934586 5.065144249465793 7.600672092273761 0.4328387894445771 -0.34544313633772766 0.41305903571448865
Ni 5.906332817941756 2.1618338228430205 1.1784061321468224 0.848129542703062 -0.47785649180584805 -1.300033062088574
Ni 3.145026961825884 2.13792054269443 -0.09285499195168881 1.0386488011749788 -1.3244593134517384 -0.3732902404569829
Ni 0.3014585057812288 2.591530729237181 9.594691493966748 1.7745586897489758 -2.310325680718363 -1.1379059816061046
Ni 0.4806019579288612 2.9553515880189396 3.018632907302574 -1.862313011746825 -0.8479835040435009 -0.32493061820667263
Ni 3.648479387452287 1.2337969851990527 11.146858529965522 -0.6320563470214405 -0.4366131688853449 -0.4481042002440799
Ni 0.27826903756050725 6.661167874770032 4.554226482588405 0.69604621960984 0.09116231923813332 -0.37494705933411554
Ni 0.9437774565310482 6.668424318401328 2.10947748258206 0.5702136026830309 -0.3101778853775303 -0.3759405335956364
P 0.7539609852090505 5.988993972539683 10.706187168796658 0.2128716580251882 -0.9184816100640633 -1.2494216676896097
P 0.6318694886772264 0.0878753491314746 9.409689746291527 0.7249449049220612 0.2590373579479732 0.40743808998328546
P 1.7489036990817808 2.6703987428460194 11.237079396230346 0.1271197111693488 -0.26117060224089217 1.2181863638244117
P 0.7611468800828204 8.74874225868419 0.753826301217409 -0.9968526910747993 -1.4047463805382647 0.5008858628214858
P 5.287107132561486 3.907338354516707 10.564204587512883 1.1313830928859225 -2.001595583530953 -1.1294462808745258
P 7.103893395865837 6.968073294362884 8.452219417276925 1.0378386465688578 -0.8337483342807254 -1.467314175968157
P 7.293981067606379 2.3869851432918594 2.937490841535544 -0.6487919146085666 -0.19995623551510078 -0.9491880380089847
P 7.553646306185387 1.6214395023663803 8.264602784485072 -0.548873703554674 1.1285960170590885 1.09846320222945
