# total energy = -340871.5022112025 ev
CRYSTAL
PRIMVEC
9.29975958069688 0.00000000000000 0.00000000000000

0.00000000000000 9.29975958069688 0.00000000000000

0.00000000000000 0.00000000000000 13.61113818045354

PRIMCOORD
 96 1
Ni 6.266457099154251 3.444714701988078 7.84861778228417 -0.5158936490842276 0.46246149740701636 -1.8909936675109689
Ni 4.06128877211545 7.019170351975357 5.7400618691568654 0.09909571515259707 0.20236330229469665 -0.25431372722005885
Ni 1.906404245939073 2.8605967933199 5.507447908995645 -1.54188465228588 0.8636572060250159 0.45751289515248944
Ni 0.4446698714623575 8.629209854825152 12.533245269754904 0.2525334953911844 1.281939952032289 -2.238737169847099
Ni 3.1012652753836445 5.405187750999859 11.863876463637894 0.5345703995581246 1.2221612893117597 -1.4161764767520773
Ni 5.498594537732277 5.897954119836045 7.330033420484371 0.4847779015160297 -0.8587924217335469 1.0583660770982481
Ni 8.140953869458226 8.67694552152144 8.434141814623588 -0.9479569938153609 -0.38441283273270577 -0.9884127878375623
Ni 5.161059758316395 4.559476900874474 9.60961377500619 -0.8826476310845894 0.9515488249316774 0.45453992856709463
Ni 2.0086179051362065 5.6944939764537414 9.474454786988042 -0.06602824317466693 -0.35002921304651324 0.08889100670545336
Ni 0.24388991883436456 7.738627664000452 5.621835883655882 -0.40544625636423726 -0.08434581053693214 0.2753841747371128
Ni 6.164308538275231 5.340256828562011 4.605764594980733 -1.8772606341955926 -0.4137995134249389 -0.18960317441555088
Ni 7.490928563580504 4.647173635132409 9.500846575127026 1.4850686717381005 0.2862717681838941 0.3851193718814271
Ni 9.035079268740219 7.0353333343868405 10.282711784775104 -0.662347284695498 0.18660835345328508 -0.6341605378486369
Ni 7.565066248151476 5.177306438565454 0.7336617650373514 0.36810175427750796 -1.3520061127217553 0.036051494306918556
Ni 4.410225056960836 2.400788772968352 8.997846750683477 0.38108299702852433 -0.48965091333761485 1.5507163916448972
Ni 8.585956672318932 1.316008999452856 3.829125850301155 -0.22989287517353313 1.156645466997137 0.1203062877919412
Ni 2.67542927732735 2.300974451781669 1.4800883802806881 -0.3929167564386588 0.21533040397832592 1.8084234608172212
Ni 3.936151205182812 0.4593039733741588 13.252035789007328 0.1042669749408914 1.26589858229871 -0.16851472917636784
Ni 5.4971809742532525 2.3933861642229313 5.58463684473417 -0.11017794110868767 0.9128197837925957 0.41094816001907286
Ni 6.265099334233607 7.99392466812016 6.450727188332815 1.2217527410194313 -0.5616253467933876 -1.2157697839631192
Ni 2.9362875377658533 0.42862964587931535 9.44235945620639 1.3808407775652607 0.1491612643504205 0.06997385808597627
Ni 6.266168806602607 8.664474543722935 0.17072405915522285 -1.7906180572046841 1.007721515468503 -1.6125668492927905
Ni 4.35706763034171 9.397221212402814 5.277882410074058 1.5739226545580314 0.1172001380627917 0.07642809835175224
Ni 7.172653586566339 2.2710943237678043 1.6322203597828395 -0.8454445396717309 -0.041546970203851036 0.00017946300065775544
P 5.952878500803951 6.989494818675561 12.287155957744295 0.5478576035853339 -0.742131958224309 0.7340365828106842
P 9.346072533885458 9.320405197029478 1.2991299355421295 -0.22639771753608104 0.38966533938089665 -1.4930267502429126
P 1.942087424024725 7.248567525245822 3.718494978572011 1.8980904264567506 -0.44889532868680754 0.8170587894401864
P 2.6264102437882637 7.4620435098577955 7.267667371780175 -2.115237829039157 0.06138663063759751 0.11536668439847875
P 8.651287484425188 0.34834761005445014 10.298513936509048 -0.204949317854318 -1.4015764674507152 1.997585433930295
P 7.103323877775999 5.786133808837379 2.800696110920241 -0.20267132045341868 0.7239586297493918 -1.4043036365738912
P 7.6540184499730195 8.184030356529567 4.4337469392470075 0.17602235040732267 0.3970212655253356 0.5152328755717772
P 5.690169588179093 2.6172406806940622 3.427992804016796 0.397655813785541 2.0183020976523562 -0.638241649896546
Ni 7.61816787621222 3.445588879402739 5.435825809431754 -0.025766053220510468 -1.3653761062707581 0.9443273674825737
Ni 8.042329917517037 1.2143254265603571 13.06638003562893 0.3190057680818054 -0.5958734693429804 0.7526562547944006
Ni 6.5869268194647965 3.3840802685456883 12.174427990195937 0.520259382252091 -0.7856175402117695 -0.3494895384929594
Ni 2.830326075397357 3.4157459504277954 13.152538589627452 1.6423422807830104 1.4071027965855831 -0.47066125960898936
Ni 3.9985618927337137 5.188810241351993 3.407480323979391 0.19330453452653804 0.5388500007700849 0.290090627709352
Ni 0.3292979822226416 0.8864196183693605 6.76067981036422 1.1547767892195147 0.3448610385820125 0.8596043761118808
Ni 5.723211634501304 0.8396753060603376 7.357528160127382 0.0003373287347607093 0.476294803745683 0.8300081505120028
Ni 5.4594983478255585 4.106113614016112 1.792831860207195 0.8080553003899955 -0.3052071716358163 0.586279655006958
Ni 3.875284277747161 7.350585889488618 13.104001283642404 0.18224930515364096 -1.2985258814154281 0.7697931715850033
Ni 7.803716682353717 5.7859571134025005 5.933000264380161 2.1090103600722063 0.9441849283674384 1.5898313553684877
Ni 4.547071021394084 8.099653636495395 8.106658215524353 -0.5315817492434458 -0.5659203746243157 -0.2684329402302603
Ni 5.164677364851532 1.446661323905638 11.26113485613356 -0.7343173472758966 1.5303673956749 0.39109333007667485
Ni 7.492416525137372 0.7501799982705375 5.927882606600507 0.07987671902198501 -0.296590890721715 -0.7039947850329553
Ni 8.275865483867545 7.481396309856816 0.006650258183229011 -0.768624862308515 -1.2108782601987726 0.9219672546198187
Ni 8.847875105366704 2.6691426397495803 11.342651900050626 0.3253635919790332 0.9623975947207233 0.5432920957018385
Ni 0.1590444909097784 1.968470842379949 9.254226246835806 2.0262164674034264 0.02145791276345982 -2.3350545509236107
Ni 9.413309796736453 6.152228150385405 3.2218245706009934 -0.7859137312959497 -0.03192770194653211 0.6580383729074989
Ni 6.377942618802621 0.7470878281601703 3.806177763190351 -1.5006264169670414 -1.5779906539798179 0.7947827516508054
Ni 2.1118638376634173 0.045351208301404836 5.294650806843992 -0.6757584158950813 -0.5173825749249282 0.5455577518075636
Ni 7.32046396772176 8.898084508151285 2.0755901248348834 1.653512695577533 -0.7304352386126711 0.9623919382937683
Ni 0.46937933306610446 8.659248078754434 3.3847907701890927 -0.9359324585506591 0.4208721040010042 -0.7094036147533525
Ni 8.269681143646809 3.954350834975259 3.176554270209243 -0.2820579872128626 0.16512267277568335 -0.5588434131728762
Ni 1.4738631211171398 1.6695858644037258 13.099509499692607 -1.4195237959577554 -1.28752053144386 -0.05630613079089657
Ni 1.705120246333691 4.3052307696043055 3.1195504629656123 0.8680553350927114 -1.932032330619834 1.8564704369231189
P 4.212530764611399 8.364315498663643 1.4883512168011732 -0.049732334228120796 0.17092308150754434 0.5601726735072611
P 3.3562088886335957 4.5069890569559385 1.4373085555447467 -0.25831333529775513 -1.2031734353553472 -0.6198515774251325
P 7.61122095569359 6.424171724422577 8.092352395131035 0.35747692757381017 0.4734948724030426 0.05967119060838755
P 1.3708868816221111 1.5437043166926534 3.7990188081498677 0.20771762462807453 1.6111799962475928 0.07448177325865883
P 4.441258355181274 4.636218518169965 5.847740067171599 -0.0937197955526644 -0.11459638189135748 -1.5106241516097016
P 0.16842887845375326 4.385227302805446 4.997288199535641 1.4788484018600014 0.8299716408471125 0.6970474071808447
P 1.2056115516929462 6.52681317256731 13.159834251135974 0.2626153051072187 0.6093046551472215 0.4488583048012851
P 2.278980520019207 2.2152864656255065 8.52777272556551 -1.1629109882908746 1.1260179719192671 -0.6578352557577574
Ni 3.514704693719279 4.038197468704797 7.613212964227848 -0.9363235233414907 0.3929926039819167 0.35990610584059307
Ni 4.829225731615266 1.3973539978149092 1.810022466068891 0.34855674226604483 -0.8932279777035971 -0.4264894501877816
Ni 2.2742004435177674 2.7422108519515525 10.783819108113509 -0.20417078781708062 -0.16297760140822254 -0.38075055338977004
Ni 3.6471425720403032 2.2829236181449084 4.170180588775003 -0.13221563763501745 0.19435148773381367 -0.8900449519899252
Ni 0.9214778526011277 5.88417187591555 7.144486474294819 0.2750471031126683 0.9821308114835925 0.1109011924279574
Ni 2.3682861127105066 5.5176497454199245 5.021911173373895 -1.2488560249941265 -0.34875214610630256 1.4470716236690369
Ni 6.340566884446031 6.7884898118620915 10.082137356837153 0.07562308595195363 0.10658533866142288 -0.6379053496030498
Ni 2.8765737805367753 0.34581156557596254 3.0406057325899822 1.2354058130264916 -2.223375856899681 -1.3102670811117563
Ni 0.1711295286794695 2.3221035058892014 1.7836855465123191 1.034185880307619 -0.8027272033088627 -0.5123876928134982
Ni 0.9799156827951908 4.634758455892288 12.189101151098608 -1.766140897998926 -0.4914306309458568 -0.48657355996387164
Ni 4.463800972767832 8.28989882130076 11.086299373201516 -0.5324813782395796 -0.0023150212864218194 -1.29650216611718
Ni 5.668640644403152 6.634690385440275 1.2499639657993031 -0.09671693050777536 -0.2765918218919688 0.7634952543914335
Ni 2.080086558664545 8.553175019269174 0.5283779387719123 -0.569218071538981 0.6875674927148675 1.2883378851388327
Ni 3.4154111590775 1.6239798426857073 6.870684808263506 0.04062600105147842 -0.6019718689312343 -0.8069692664146684
Ni 0.7896481785664736 4.761672276933438 1.2635574245972694 -1.0891828053687886 0.17190318603262653 -3.520303540590054
Ni 1.202784424734896 8.586942446850358 8.662359778360235 -1.073033706412752 -0.6196091223970231 -2.1382887973213496
Ni 1.9115656125894607 7.861644885714553 10.66363273326135 1.264102923850868 -1.361578844011855 1.533178896981766
Ni 7.915211501761818 5.674806385104426 11.97574606336313 -0.6844857684657502 -0.10197072270754697 -0.1850518075994426
Ni 2.501998058114599 6.459464312599551 1.5888286108566358 0.19070720611300704 0.5782580702540622 0.3774662262115435
Ni 7.115673958698007 2.015025439590471 9.598003024982752 -1.2768743645839233 -1.0691400277853005 0.8855378081481909
Ni 9.219958492181126 3.7496817228280013 7.473113943840897 0.5857641488231202 0.6541799183933572 -0.12939719434961586
Ni 5.157637446735598 4.860565921906808 13.131032895250838 -0.7045079772239479 1.409795770036714 -0.0896476823658198
Ni 4.967494559287269 7.693133239399199 3.5854600556762937 0.4467931947421402 0.22751074809460176 -0.9887377752771488
Ni 6.771554949392982 9.00424126547412 11.31544266303134 1.3811464817311376 -0.28057446068880065 -0.3101264633143046
P 4.265623092912413 3.5861826470073477 11.338268923289675 0.8282065785268898 -0.30340971341576134 0.5415067216666416
P 4.09649766245485 6.526180788905641 9.598520091623763 -0.4822890736559049 -0.3586318671138598 0.4142998501001252
P 2.4576568037199187 0.4691840381117655 11.536052493332525 0.10052473428963977 -0.020836734239693146 1.433951284236995
P 7.924790254284158 2.129179990281474 7.573755013667616 -0.7084422792813476 -1.194085099900834 -0.8279342987021094
P 8.870454921992184 3.3849451462006184 13.502249544458383 -0.24515211532544878 0.07301341624324845 -0.4610713019277091
P 5.919566761449558 1.610234797804135 13.373596668347645 -0.09179301084359676 -0.19859020840550962 0.5560542804635134
P 0.38546109118664196 4.158164369227318 9.722980636048025 0.0004131762780186433 0.7820722460626724 0.6032448221063869
P 5.202713382148983 0.36959291115861276 9.361209752798676 1.1826686305337761 0.49477152239363176 1.3602778658122443
