# total energy = -381169.1104202217 ev
CRYSTAL
PRIMVEC
9.19662242321535 0.00000000000000 0.00000000000000
0.00000000000000 9.19662242321535 0.00000000000000
0.00000000000000 0.00000000000000 13.46018652521280
PRIMCOORD
 96 1
Ni 6.668287088228461 3.2963730152465827 9.036482694309385 -0.42444208074044965 1.747205494547004 0.4740389178319707
Ni 0.022522528657626058 7.069342601593269 5.45397332192501 -1.434173684660446 2.167745926240202 -0.19110906953711604
Ni 4.804573132521955 0.5456006695173765 6.3805725906588 -0.2340547198607066 -0.6552677521408973 -0.629556206307406
Ni 8.056691999993733 2.5939533771036007 4.51723845546416 -0.5717228402387057 0.7357684779001264 -1.0940601880657481
Ni 2.3864223923392114 8.894697444588076 2.2839113192746563 -0.35554268666557476 0.33465941545866235 -1.2459540208559832
Ni 0.4543766113248121 1.7049894468857771 5.935821164508783 -0.18998318346278892 -1.242952257915182 0.28808773834671036
Ni 2.4761998218025623 4.152734918477357 10.786267050376692 -0.5996779306907349 1.081111341214564 0.380142487492126
Ni 7.167378598118502 4.436285185350336 2.7703216063121037 1.4940767887739816 -0.7540513353697142 0.6107948665395029
Ni 7.770769004499411 6.787539693007326 3.14109632022485 -1.1035768693069317 -0.6780083882715227 0.22258451443757796
Ni 5.616377399433334 8.331091627416185 4.4430594175304945 1.5525734994582938 -2.35906736889844 0.43764495258396885
Ni 1.7168163035022357 8.27552563388847 9.440571253795582 0.44607122897445106 -0.31280272459488706 0.7522045119689625
Ni 1.5389720163723162 7.851883215508092 0.2703880606603235 0.4787599774567239 0.05994321332285161 -0.4426920280895731
Ni 0.024660743403603216 4.878725500250186 4.829353432018881 -0.5748403028217648 -1.14573036274653 -0.5279287258718909
Ni 8.694349022045657 2.165206833200568 8.671739125473678 -0.4186213602936145 1.2928637980336444 -1.9263080265415466
Ni 2.0551416543624836 4.759914333354363 2.960944600493788 -1.081945149969769 -0.07985666441732699 0.8106428586115136
Ni 9.03131327276653 7.653300544497836 11.112366411201231 0.010673934774078391 0.6758129232821006 -0.0981156106275149
Ni 3.049498879156214 7.6209836128102495 3.971898970027582 0.8407489339682747 1.1038514631245568 0.0758442008238242
Ni 5.273941158287272 1.386767912948996 12.296486745966973 -0.8612344555161361 -1.8694761051541673 0.8358589528658251
Ni 0.9234972479431752 0.3091187169235846 7.892932340319573 -0.30163282402099667 1.6449288105632636 -1.9019067148790467
Ni 3.9009957690509798 2.8022108950504943 4.575817262543627 1.1425879604628064 -2.0343059292797805 -1.6766150859229514
Ni 0.7734883783257248 7.0116062051406045 2.460145277793735 0.2057445600621037 0.6380305623270044 0.7133284037290554
Ni 2.6571065842460744 0.9641279264280228 5.277147100912853 0.11315373590755996 -0.10953053733267588 0.389955874038122
Ni 2.0698194639735785 6.1689104830389585 5.122327478032518 0.06255622546566646 -2.081561519832634 1.759640634986563
Ni 8.11924742666959 1.2086477271421763 12.67630541850851 -0.6794466633799461 0.4361981928351133 -1.474458500322422
P 0.8363151053671999 6.019676888703598 9.97909972056175 1.4472153483357528 2.1628718859773524 -3.1396712579457025
Ni 7.824743982323669 5.505870782712209 7.360218898000208 2.428166023468315 -0.9137854901399746 0.48322058433123877
P 0.5602067454724773 1.9657228931791033 11.504812046522238 0.3612860169072552 -0.39203255406149257 -0.05300432011117323
Ni 4.338359548295864 4.33757783537798 12.69772067380951 -0.9136430510248394 -0.24935638321478343 0.14597849574706473
P 0.19734572527548744 3.291940243171052 2.776526567555591 0.38450282134335073 0.5803278082988973 0.46456440268263216
P 1.007186513269593 8.933516388427945 4.887165240776565 -0.6281552121948215 -0.8724935733697232 -0.06388985667542545
P 3.0562767899853975 4.900521495725308 6.922627962178009 -0.12526337468690038 0.7096447842298811 -0.9194452595289133
Ni 6.805739809060181 2.185283060256345 6.711707102336772 1.0663344400157055 -0.03100878967668853 -0.28984740135029435
Ni 0.9615712653554136 6.121529483592616 7.390490500829707 1.2280696843763945 -0.26293900699522454 0.6000093458882247
Ni 5.942186146984873 3.8865754648716586 4.771165481398357 1.0756575171888443 0.06294651892554966 0.2429034285005881
Ni 6.156292716882052 3.2380664281949905 11.592357455689465 -0.5978779013675187 0.9893347854311995 -0.18951215736364135
Ni 8.05179020016747 2.211346288600858 1.3682551117289872 1.2767527514043946 0.36362469234276085 0.01704975639343515
Ni 2.2482339417024253 2.682305330069633 7.7650468659405 -1.0631480718679238 -0.30385117182855415 -1.2783311516351081
Ni 7.7009482459985135 0.1754035035016083 4.973916061754321 0.7119263811752061 0.28684178175475117 0.9134450760814204
Ni 4.403011804916163 7.8435970585785215 11.358001762232318 1.324454685466048 0.828373186011741 -0.9905853700088488
Ni 4.798512558252712 5.519868042253616 10.52464153169472 -1.1090836580577736 0.0003285869840123373 0.18004098464841253
Ni 5.791527076152194 5.141463810262321 1.130905917627472 0.9607016950755389 1.6514169893907689 -1.0853492905553115
Ni 8.199202863235291 3.4265971907435144 11.254802781800025 2.669516505659486 -0.1916556860692054 -1.4111057470973891
Ni 2.1824780903745253 1.9025420961689397 3.0467270171156224 1.711725042252207 1.7326653919492998 -0.9140626550607613
Ni 1.177425193539628 1.2684165771813398 0.6390558283438078 0.18352534365258716 0.01473910598238752 0.7948747971439794
Ni 0.6086637497587295 4.263030012879525 8.947766555089844 -0.17825586772353172 -1.1697763479521401 -0.5516697782425725
Ni 0.9391590961685476 3.479689292801691 12.949883787536056 -2.2222664258855858 0.7658303302825133 0.2851811062228766
Ni 4.848532988374733 8.66219762956421 1.5053473249562228 -0.10517945945283178 -0.430055313162169 -1.0654744060082555
Ni 0.46642694586955996 5.216774952433534 0.9263546385736058 -0.2643191751722028 -0.45289879341924577 2.2307968319541
Ni 8.47323462575521 6.841533064076709 13.264731080654348 -1.4884578999253075 -0.3458241738262302 0.7279680080191011
Ni 6.778499413027561 7.543925112352002 6.30199204916632 0.1871374864838777 -0.33960493238939576 0.5795284523260535
Ni 9.088120810340298 0.5323915605296475 9.991334907220018 -0.24764068607525738 -1.2427771657898983 1.6553512914481683
Ni 6.050209675613895 1.7994847437241226 2.275363978264286 0.3725235374942874 0.19175673042344393 1.5885373191474126
Ni 6.518676432368005 8.18214312838029 12.272298708963126 1.1728449595751351 0.7937532819450265 1.0369091927760528
Ni 4.0941524327488645 1.723539034596039 1.2520870541578688 -1.5820542825262303 -0.5159126752476212 -1.2367332735886636
Ni 1.6340834869224057 0.008974983959566056 11.788350357785886 -0.018010063424175434 0.5135891693207671 -0.1615753217440572
Ni 4.001082612407838 4.039009483859062 8.678657744628081 0.8762358140209747 0.7326337889258866 1.5322553567262323
P 5.773483302682916 3.0751758493530663 0.40253800892201885 0.4248652843207973 -0.7025642232340158 0.5038171775356679
Ni 2.227127692919554 5.590258991353441 13.093113826662067 1.4446308754380282 -0.4407696142558796 -0.8934519207889452
P 4.268612362775474 3.028144321564132 10.68052336448112 -0.20017606483539074 -0.7958857549069971 -0.29371228362233937
Ni 4.38718441748465 0.4790870164902574 3.533581501022879 -2.500140199813772 2.7643310769382263 -1.0800926701420623
P 3.3087976523296585 0.6351739339598209 8.209112224047292 -0.44065108640014433 -0.4142016339593641 -1.1612024902402003
P 7.265902015639592 5.752901261386155 5.073360061194001 -0.8545722130046121 -0.1654142358741732 -0.2069756042557274
P 6.70822802002106 7.626814271515409 1.0557547966888616 0.27962880894607967 -0.7436111138729967 0.048684609689896796
Ni 3.993973623166373 4.952795098375348 4.403190219393892 -0.7328808719396862 2.339325667495139 0.8241663470192451
Ni 4.4349056919658345 2.87365025912254 6.788995518359102 0.3605432252039597 0.2424858813471953 -0.5651678127290072
Ni 8.458106181638511 7.692073505224888 8.132241334689336 0.683885672987906 0.1304163796427496 0.9275799728209057
Ni 0.27823645835588007 5.41868680081172 11.770556732450329 1.5529267690326545 -1.71608614743438 3.7098277821385524
Ni 7.862514511191317 5.692369091674234 10.421656832568152 -0.586885406911757 -1.7534787291502252 -4.098682709803012
Ni 2.4922387315530314 6.83770726909036 11.071905870233806 -0.8171464640579863 -1.0495775322723409 1.6703660196894456
Ni 1.7958428811890388 3.3516263236071455 4.939538166950289 -0.4864149228988203 0.6242304232191186 1.0896967688907298
Ni 4.491795999142672 6.873141855826918 6.036476359140056 -1.2465569445473048 0.0016095105789649701 -0.2542929012844524
Ni 7.406012560392116 9.013646560822348 2.672358263105122 -1.2188715628168945 0.5045820807261503 -0.3022648011780407
Ni 6.764483760241025 7.535041174955813 10.053319223634693 -1.1805333293583282 0.8232646611405822 -0.8518668982583071
Ni 5.769703490809382 5.086845068858629 6.895303876880062 -2.451224705059991 -0.6074246645156893 -0.21000667777256735
Ni 0.22001080158284533 0.9862733935605519 3.171367923054348 -1.0644076553066377 -1.1798357890706712 -0.1352053163909607
Ni 3.7130811802142 0.6558203516145251 10.351516031602051 2.69004239352698 -0.7738657989924801 0.5227960326310157
Ni 4.868443676224369 6.71909842789093 13.291221032285799 -1.220514497736956 0.6868131310473462 0.5815156579594114
Ni 2.478885235591058 8.138606317165426 6.69675247438652 0.3537819952207262 0.019807264533914272 0.30679482783791034
Ni 2.686324254129814 2.2930214935859037 12.660396181136184 2.743103020797385 -1.9709248939199733 -2.221457299720729
Ni 5.515380090442705 1.353191043970232 8.606066963411106 -1.5584356146660256 0.2873534312838471 -0.5573709423924079
Ni 2.8734847199163993 6.431354501129066 1.594735737285144 1.018464355807304 0.1825131003379889 0.5870998369154082
Ni 7.712563580296015 4.2815060276092805 0.02762389519351221 0.4801668851065795 -1.001688679010862 0.3629631474993619
Ni 6.559472650058992 5.58984514333809 12.08397670974679 -0.9068149723594124 0.8899783604180478 1.4135714350290625
Ni 2.0507364721546426 1.867383408109281 9.926362608134516 -2.462346783115082 1.4738072398916684 -0.2914975353592077
Ni 4.8184416393474745 6.607662952290908 2.828995138603973 1.202507005415942 -0.4212063474119713 -0.07860633694999367
Ni 5.210769557899671 8.188157719536715 8.125685982126186 -0.2936125248196814 -0.8310754154342526 0.7917946155567589
Ni 2.641380359662759 3.570340401408559 1.1278360850158284 -0.7292779850797764 0.4838420199653215 -0.5574614452236851
Ni 2.96942388649719 6.493965107540303 8.81634130068614 1.066017422995919 -1.370158615261066 -1.2477075132119801
P 6.108599032268557 5.768820615043301 8.924803508211433 0.4073005359641566 -0.13936407575434062 -0.9315438425646602
Ni 6.742945270197677 0.6084494684530036 10.286301861343132 0.39957565651607313 0.5737930925041731 1.2458725168857707
P -0.015281108051250086 3.5712508670423304 6.770742981557636 -0.30809606314783716 0.8464578114275939 0.6477804426249165
Ni 4.539921925016644 3.9142848886550095 2.3756825765097394 -0.48719576692890293 -0.9752387123494495 1.4011977439550578
P 5.85369624468039 1.6331822179111979 4.654734400421926 1.06404024466489 0.15245844704445355 0.3415471437174311
P 7.290999598614953 0.20911188418302798 7.774900127354865 -0.6606295306734429 0.8499496266309363 0.13087737843956815
P 3.570220845315236 9.185319914212265 12.816789346137107 -0.05941922249858154 0.13215495960041113 1.2583868473026973
Ni 8.655759993769871 8.89259141802107 0.7467298853154231 -0.11594929637482612 -0.21901762302192604 0.9018087773940727
