# total energy = -381169.18700380437 ev
CRYSTAL
PRIMVEC
9.22068422418983 0.00000000000000 0.00000000000000
0.00000000000000 9.22068422418983 0.00000000000000
0.00000000000000 0.00000000000000 13.49540340314246
PRIMCOORD
 96 1
Ni 3.129592441634099 8.922275246591127 0.6200836393327829 0.4709926748064792 1.0481981354263108 0.28604473977475253
Ni 6.424972786101294 2.2022774471946316 2.4637880394427008 0.8804863617672126 0.3832571218617077 0.9538749019616928
Ni 8.027352515925447 2.086050722210695 7.982963219872676 -0.6074565461948893 0.8309468602761881 0.3693327984711317
Ni 7.515825836416612 7.007231334499599 9.4224632506765 1.0172430818056932 -0.33770900091826356 1.067101400088717
Ni 6.361303961348095 0.8357351584584716 11.776628419195834 -1.1091494782987026 -0.6252421523130846 -0.023323762327604993
Ni 6.988162959468517 8.507067834768307 5.502696895605001 -0.5396786673189673 0.20009918885086828 -1.1580464611097216
Ni 4.883661648071557 3.3150111812375878 1.2785695844341574 0.1491070140737174 -0.43041989559043936 -0.4177695538162805
Ni 6.591562888464228 2.5740093327739566 10.061740666346177 -0.86960416763707 0.8927546376116043 0.9884685807761622
Ni 6.702358630424321 4.661535364464813 1.6150083789743301 -0.4756147469595228 0.5830215530809766 -1.1801386650230707
Ni 5.342925489245688 2.5396530632547067 7.9379690469330395 0.48724461788896734 0.5433057225485933 -2.3068554627815754
Ni 2.4041735495546686 4.381918114553042 11.719732187024999 -0.2154473891721644 0.558696860292683 -0.26145830868464004
Ni 0.5088867976077707 7.803833908996799 10.363133484185125 -0.278019812587747 0.16557133027732776 0.8333873513968809
Ni 5.427340853563652 7.198837153235512 1.4910399674932489 -1.0331651523525884 -0.7555191781644924 -1.3233174865378112
Ni 5.571875079198178 8.203753426331449 10.19149966753689 0.05715099528969512 -0.2460985383991181 -0.6765749982591057
Ni 1.542426840824108 1.9947751688099824 11.487274126715 -0.21070344672927585 -0.5319941541905161 -0.18011091865439946
Ni 4.404518011652259 4.215374115611364 9.055752949740272 -0.7547743295786679 1.1162439232516388 0.4186537561934467
Ni 4.153300469233588 8.363225160452608 5.095985422251059 1.0028019666796988 -0.27337357206498725 -0.06731276631404536
Ni 0.16191244924239798 3.6867615081854153 12.87341405775825 -0.33136223276462934 -0.9664738216726259 -1.7165288913987533
Ni 3.965235393250061 8.6045581293542 7.964892522877554 0.7946485400657862 0.6030792430628 -0.4183012579500344
Ni 9.347653073142808 5.4813925046430505 10.884663684037877 -0.39530068328980306 0.31855711058016106 0.7933475618661757
Ni 5.307527282406073 5.270174290505246 13.291905877311278 -0.5876531383157169 -0.10098547597614221 -1.031902483590081
Ni 5.222586339085802 2.925271299316047 5.634614458978875 -0.40304227490843497 1.7434581116894297 -1.6470941936456989
Ni 6.952156187468337 5.188589676252342 11.361929067075245 -0.4320815995635784 0.5099950242116056 -1.2813658246963737
Ni 4.156702901722209 6.062839632827267 10.78374513904746 1.509469469179968 -0.9110398090740375 0.6013548041725256
P 1.7211790257141188 2.4404753834508814 2.9833745190553396 -0.31001359188552413 -1.2107077960591794 0.16848824681380659
Ni 3.575569276802528 2.5055088694732297 10.554930171085035 0.6771984907757176 0.11187821162924604 -1.3597119660064454
P 0.5610518966894146 7.031122127393957 7.249110167908849 -1.036819461275724 0.9493844702905069 -0.006499234571098484
Ni 2.1355473552700976 5.878573478755155 9.802818320167365 -0.5645708025749567 -0.4169791967045012 -1.2120347424007192
P 4.9577129632913906 4.928096125477158 3.4267262254175064 1.0346947016232375 -1.145812380937375 0.25378150886567263
P 7.184120941170907 7.825115248248121 0.528413440646127 1.0756760291316054 -0.7975176340834652 -0.953207443581023
P 0.5488243473041549 6.490015492807894 3.6873082947614995 3.145146679237977 -0.21055560829750192 0.2384281663380539
Ni 1.6765324725707458 1.6252101440296438 0.31871110699918775 -1.172313255441381 -0.6429562817633959 0.1287526187870815
Ni 7.236614296611886 9.053992721116755 2.8595545605906993 3.3912053655380956 -0.8165093446946196 1.2581690748649363
Ni 6.715138498796216 3.174229774093221 12.682440777961954 0.45765430582636024 -0.6356852020232795 0.30767105979527654
Ni 4.050609708730129 0.2607793919869644 11.557557870349871 -0.6545347306296148 0.23759050092810693 1.1494157820179172
Ni 2.034193593983035 0.25021064369846086 6.208898037568484 -2.0653378588849205 -0.7841491831963592 0.8309635724467367
Ni 2.777638923773183 1.419515119758192 8.14730992975734 -0.16138300322759302 0.6297516101476638 1.3546348085938542
Ni 9.091649995597866 5.214075647522123 8.475855818578651 -0.961537303602957 0.8196044386801756 1.507058288635314
Ni 7.26652619632215 1.9905520954230211 5.649189594574441 0.8713550888899058 -0.8623135475129278 -0.20702445521579185
Ni 6.106139966069993 5.47258675118334 5.854562816965533 -0.10887259203370282 -1.1777915049471328 -0.7325193748352095
Ni 8.524153762685422 1.3063773239983427 12.059290339047287 1.1036781707714862 0.34068171039334233 -0.3608124197049463
Ni 0.07726195747603325 8.58560040253413 0.13187053788419384 -0.8410227564549516 1.274144110136954 0.049191888343618505
Ni 5.131071047894563 1.0327258567969735 9.382800477370795 -1.9786705993036635 -1.4154249432980333 2.0616778935348297
Ni 4.053560327690452 1.123789334459913 6.171272113413827 1.2053617012559175 0.364918728563836 0.1116540114335819
Ni 8.790465565222991 1.9551723299519097 2.9309853573463958 -0.7509750104372357 0.505373209168878 -1.3688836052033844
Ni 7.672918634001009 7.917202221862923 11.564588642091264 1.640688033009039 0.5185609115037456 0.5661492028056702
Ni 2.556296398327773 2.906470324128245 5.220318972828479 0.05654678604679293 -0.47899086252060724 -0.0404640215523174
Ni 2.194154024369495 4.487614818122329 3.5052016249409728 0.3869733943710303 1.0859874383599426 -0.43564643409670134
Ni 0.7817434418267033 9.340921973639574 2.1805470606202846 1.039874960272596 -0.165087962883006 -0.5637004841548614
Ni 9.013467813833582 4.480588656723063 1.6097719523881837 2.365387140468881 -1.5467509792392458 1.9256696216265998
Ni 8.517201366760164 3.5695020665653656 10.056167684784867 1.3628271145966593 -1.1344041391004334 0.41839510321542134
Ni 1.4799474843392884 6.617122625208018 1.4726585334388678 1.9682002958999585 1.2579597870676076 0.839419930744206
Ni 6.05791578743723 7.018167066021292 3.616579192077304 0.22728397679577628 -0.877471743310605 1.4525154203924275
Ni 3.1786280404809513 7.110539880847875 12.7300250411077 1.3311035582411335 -0.8354226366593547 -0.15013108446285758
Ni 1.3226702730698712 5.039140825912028 6.968580992324655 1.8379500095214283 -1.6672295309429932 -2.5444724460722434
Ni 5.203997439635772 0.1769938004033441 2.343234047339767 -3.986552272953644 -0.09033853778525733 -2.0817119293675694
P 5.0012622550088945 1.1607089542009428 0.06865813700141912 0.3095351095872088 -0.6452486773419984 0.5196448885965438
Ni 4.004921218266392 2.159189189689678 3.3785739681219007 0.7821606920114207 1.1916068135636704 -0.06069526099752773
P 3.3227657766926844 7.780468695104748 2.422343829939702 0.23191761891304571 0.6774836261163042 -0.14397380661221013
Ni 0.5001004075849866 0.9386748774367076 9.597566810808388 0.27896495010983574 1.2930620300873796 -0.30513852318141
P 3.137540671458467 3.3930550527381063 7.218947465586958 0.022784859104999472 -0.5697903991026833 2.03567607015443
P 4.873426688552941 7.001496068895473 6.699779605039314 1.4428935810319472 0.670537019595142 -1.2311272402557958
P 1.5596326376364857 5.062791881015861 13.617537107840848 0.863991706546299 -0.06799513709305063 -0.6211173315114336
Ni 5.444472884902021 6.461136309733741 8.662497220913822 -0.8053024202352066 -0.7522667326654657 -0.13282396064297772
Ni 3.7427126202205216 5.3856725814333535 1.696507240863701 0.5173105840364124 2.0175567348458996 -0.2111135376835009
Ni 0.2201668882034065 4.1905612542919055 4.583808684502529 -1.1407858742570611 0.361665511733861 0.7043395699668837
Ni 3.743809881646392 4.930152338065133 5.937559117977267 0.1938408666459823 0.3460092932538428 -0.8229916099848537
Ni 8.584835085741297 6.5943936385292865 2.0222325223726294 -3.5657663009085425 3.0110477085373177 0.7336691721689365
Ni 8.197861409095058 6.346338790808711 4.895889197456818 -1.2713457214562105 0.3547417880308342 0.9120674790076034
Ni 2.504448490784364 0.5105363780202757 4.006191828556181 -0.35263116944573464 -0.45614044028499506 -1.0949405337881724
Ni 2.64284174070772 3.5422088411823864 1.3316493753935013 -2.0286649289439187 -0.9411391995625792 -0.24797184416243098
Ni 2.0038206600602195 7.039337757061603 5.476772019764872 -2.1998281514867277 0.5877626673103878 -1.0264869690014644
Ni 3.6419120999885193 2.6337962494574825 12.878852417329494 -0.09129833059536534 0.10374658366104712 -0.48344966962290925
Ni 0.4507420847893491 1.8710612482142286 4.965188172013682 0.26998408676746405 -1.3776675220436014 -0.01206310181212116
Ni 3.0067452653579405 6.602692254355192 7.414941407957926 -1.042693660668314 -0.5580808239752388 2.633167020496175
Ni 0.9624919048570573 6.9575134050181715 12.53156179949431 -0.45423988082817257 -1.6987034331815585 -0.7211193605283838
Ni 3.0420697067235456 8.022566980799173 9.99727333033684 1.7721840188692122 -0.20029227869828087 2.7088986070015344
Ni 7.421636546792581 6.742367179389438 7.179176810275517 1.1940701875024984 1.0297165316823556 0.2693518525001039
Ni 7.008190285661703 4.420239278300225 3.761587360882332 0.46067123827581313 -0.6927775761608973 1.8893684732027205
Ni 5.676290107656575 7.404006598504656 12.267645530725154 -1.2846581222944005 -0.4144086077638476 1.9447824311966506
Ni 1.5963125195869896 8.409651305656425 8.572037698069325 -1.2424976868762667 0.7332652518622984 -4.026768440161214
Ni 8.734237832660353 0.14676286501799435 6.879241782616653 0.7824455702416913 -0.7553831668072604 0.25236637368570086
Ni 3.5572108944587746 6.36931673596222 4.005354590426189 0.47452768454293115 0.37282409945384176 -0.6896544571508832
Ni 6.174889387845497 0.19295480484183625 7.58569833753389 0.940163208802555 -0.387676591085642 -1.2723132275758022
Ni 1.6274138875656343 3.44970693677629 9.151381588175886 0.4260711317034404 0.3804121962137449 0.6506181691840279
Ni 0.8742960599961805 2.5889007378393316 6.991064708802309 0.09751782914251593 0.24638753039444664 1.0368366876669046
Ni 6.9874160840441855 4.3909728264875305 8.332818109998064 -0.9518558146491348 0.07273727976372635 -0.3274014483446684
Ni 7.282394993918133 0.7324487417523977 0.6629100294050074 -0.6120040563562557 0.5730739549499614 -0.22052943168076214
P 5.717174621625537 0.8035254642328558 4.281753821534359 0.2153419739425517 0.6612864475311514 1.6222185134499416
Ni 8.010321912113838 5.7647164696237265 13.451867229766165 -0.5064862397273987 0.9681093003935198 -1.837273552279694
P 5.082182979995727 3.8890633206524963 11.442536288797541 -0.9945551532898744 0.7335483303203559 -0.8444490085276811
Ni 7.524271983190534 0.3165248827632741 9.488699113925179 0.022999289108650716 -0.5848046131233283 1.1373858474365768
P 8.090265244570062 2.749202333543079 0.8513605299902272 -0.41658813191366967 -0.4744865468923506 0.5938006459743517
P 1.885528501804058 8.947964072914433 11.981515711526898 -0.17058600988309977 0.38792058877564806 0.01870143306424521
P 8.106521310904588 4.007143403170885 6.41412188487471 0.0820773262177296 -0.1619571305635082 -0.04704990229995123
Ni 0.232860082143342 8.854032962449429 4.286976417094129 -0.9619599929626724 -1.5377490328509518 1.4908773080000777
