# total energy = -340877.2190406345 ev
CRYSTAL
PRIMVEC
9.17688194081349 0.00000000000000 0.00000000000000

0.00000000000000 9.17688194081349 0.00000000000000

0.00000000000000 0.00000000000000 13.43129433382253

PRIMCOORD
 96 1
Ni 9.009459099059104 1.0882497450700814 1.891636220980073 -0.4671851281349309 0.46301582724858964 -2.212973173509118
Ni 7.214984035390215 3.7116542183884267 12.397178554901961 0.2756096604843576 -0.8007441114405628 -0.5207234663727033
Ni 8.410603301460414 3.75007782389505 1.5997884268256934 0.6424598017429516 -0.9228419439152882 -0.4211839788144681
Ni 1.7429101629424228 4.902969526736484 5.749171663943754 1.0576286847115914 -0.07741488774505377 0.4675178288840013
Ni 1.5135890552268725 6.97085143990593 3.9963477152289864 0.026213682280890337 -0.2621283381684711 0.78255124258162
Ni 4.291238563499916 0.3895577290173414 2.0443101737129585 1.4439109665528682 0.3264686521177539 0.04040000108360139
Ni 5.5295853927988805 1.7256117401146263 11.115779300746592 0.7252179560777898 -0.044880662562774315 0.5438122298713667
Ni 3.9689372859746914 7.432072359217461 6.8580592992512 0.08414629293161638 -2.1054961762713607 -0.7158609403429219
Ni 4.350750644156819 5.001299818831891 0.6499783726061653 -0.22208546331397236 -0.4540781584393276 -0.020198586435061987
Ni 3.8388733354503612 0.31775596780288673 7.6833720996505575 -1.0371315931995042 0.826407577644938 1.1796509267533748
Ni 0.7550279778021095 0.30086316316553485 13.09316155534793 -0.007411976193354978 0.4031739153902927 0.03373467324828384
Ni 6.088246446638553 0.7244607010927683 4.1582214923039755 1.3727664851975585 -1.5739882176886442 -0.642226602686223
Ni 6.585293913812003 6.610264210106132 6.6972601350744245 1.8252479885737274 -0.21517973733307458 0.5904839228962928
Ni 7.785987995703832 0.5399310373985404 11.859752806326759 0.07198523208905022 2.38724691665645 -1.190306606695008
Ni 6.806337473840194 2.0715618429062874 2.229084860160238 -0.8716700490271633 0.11658692995882503 -0.7141935799428282
Ni 0.35678341215410897 2.2665155270196635 11.363291741921847 -0.1036995324731956 -0.35420005659475134 1.432007530247063
Ni 1.4877010707190663 8.200333401060782 1.9931775041351332 0.15233529120302797 -0.24448337139319828 -0.8977070965208733
Ni 2.793855882126566 1.2010336265308887 11.75514919760266 0.25894762644764435 1.4246140659964692 -0.5549451065597346
Ni 3.284103279636676 8.764821775057298 13.425747364683826 -0.2051768604840918 -0.9825308751354884 -0.17223100168569047
Ni 8.197708812769667 5.625557226185139 0.20038272758548456 -0.5458241180950729 -0.2746871486700882 -1.7408893225209892
Ni 1.3225171922573467 2.496497370249061 2.7918957001021534 0.11262794531107699 2.7059408099247912 0.10477168249145181
Ni 2.6566339635355614 5.0893061185234405 2.802157289707481 -0.11865563956239567 -0.4017410395985081 -0.010204451336827586
Ni 4.648155040445009 4.330176074406198 11.120306256704657 0.5710399552390683 -0.4661597721942101 0.03669092766313036
Ni 5.33484277697465 7.3472779682737785 0.6603546732382023 -0.7983221322626315 0.29705548906295937 0.476812881032682
P 8.654937788351706 7.63563395877512 0.9649601689391087 -0.4947165007859803 1.045986986707605 0.6062532699154075
P 5.204714588275362 8.595398177048395 12.159566134175847 -0.3441835528990137 0.5947655809907821 -0.3908935553610429
P 2.1709199458010113 0.9809995235377417 1.4784498558369963 0.3534788621580106 0.7429886497976494 -1.0491710408625412
P 5.836258440045199 8.066525282624653 2.7669942304240496 0.14268748370061876 0.5145199086651526 -1.8306272506077699
P 3.259674419388615 5.798605692638064 10.083289209227692 0.8220582995373068 0.5579682096567745 -0.329897989514277
P 5.626685982687961 8.135480375000283 8.41782183694919 -0.013192330320557924 -0.09571651426771903 0.44835025481661495
P 3.5833705829986275 6.082409949599572 5.038024783455 -0.7852976949785057 0.15562141815346747 -0.7989263415055338
P 6.6536616857308815 5.165813784897627 10.428903438133146 -0.7950892271476306 -2.30162583895152 0.9062341601552779
Ni 8.28029157511839 8.587891487460523 3.202893378855612 -2.1295604163094164 -1.302860247124724 -1.5134454231085805
Ni 7.305725045958519 4.678860888074615 8.034573214400872 -0.1952871121742056 -0.4866239535858329 0.7296469383834208
Ni 7.199080498647205 7.682647125961752 12.244734024222495 0.2240083913682981 -1.9544466937592917 0.7167520846986237
Ni 0.16076888046572319 0.5282571256323653 9.822506996482678 0.9301767870138045 -0.3465209427829387 -0.1457758928179554
Ni 7.797046138678629 6.589120673663033 9.538690809574394 1.8869729763873504 0.7733834600394228 -0.35394166072704203
Ni 5.12640825300237 5.80139546480764 8.248802939442518 -0.8553093482809528 -0.8833695968522786 1.2246691433352779
Ni 4.242188128478922 8.886938545651192 10.099930567294496 0.34691997799357027 1.051029691337835 0.15844680341740452
Ni 0.7879160880038378 5.90382782321818 1.534391211654485 1.2230107817962486 -0.7093604202202429 1.403817440966092
Ni 8.65753484599641 8.085539782412024 5.319423779608462 -0.0823722317503291 1.4412128508954147 1.3185812574044065
Ni 1.2963539012854377 2.797517458099134 9.103087156747634 -0.03086326523775975 -0.6182963171228706 0.031077952351727126
Ni 1.070446593724763 0.28948382931594974 7.5160316538866985 -0.2898278609662686 1.2184727847165788 0.7664383961801574
Ni 7.901231281577291 8.592048615068476 8.357125938496646 -0.8033748641951906 0.08293915999739265 -1.612638068850358
Ni 5.231933220692999 4.815981860962116 3.0875858548071955 0.3890048229787623 -0.18008623606405114 0.2721422707610474
Ni 5.532237511736405 1.7646960811350962 0.23297625987062284 -0.7586163290325774 -0.26788658080848704 -0.6088811944565579
Ni 1.5349987212519385 7.423776457765828 6.550496094437615 1.2951829330851243 -0.6688786580561125 -1.278324980987521
Ni 8.499169390962306 3.9909985106314676 10.195427038186072 0.14675111224703113 1.1482490154033258 -0.2839454340435626
Ni 7.646912346921201 6.345483629814133 2.514042651206336 -0.7940499872498389 -1.0227899797658515 0.3698099952178663
Ni 5.920300326653668 8.803612455849391 6.36519832570854 1.656599819143289 1.7790406367797296 0.8081712571425694
Ni 4.452788396635478 1.654922217015147 5.899723003838406 1.073227824701429 -0.7174005169159 -1.0046834999731278
Ni 2.285759448860454 3.6824074950185657 11.131534171998984 1.0133512029504548 0.3452901556996311 0.3575342631743068
Ni 0.6103948091974553 5.4893539415113155 8.458102843400296 -0.7364665324084155 0.04869129455811615 -0.9324025910205297
Ni 6.074297585790673 5.7334590063491895 12.58113374577443 -0.9383174138430678 -0.625737089671632 -0.7454096005343163
Ni 1.4876093018976986 2.811172658718636 13.451575699457742 0.8104963057313203 -0.7207699476087651 1.005851809249616
Ni 6.453651539560149 7.289399372637219 4.525674865318498 0.4447070016370728 -1.3169956580848416 0.03128312638399774
P 0.6654276536834045 3.6378812628909953 7.278055828627967 0.801332122733549 -0.1384017118410713 -0.31744922222796296
P 8.797500652346308 6.883882127895835 7.127854127942726 -1.16522909490109 -0.019136720829450917 1.735751229963475
P 2.5218989800036185 0.9335366891264076 9.44652462921025 -1.745202605184362 -1.6865547136341663 -0.13300985140153868
P 2.841392131594994 6.547732935226235 0.8000185601657998 -0.30835651589807533 0.5382532477263504 0.7011259481255925
P 3.9812434849200895 2.9708045234876144 12.8387728763876 -1.2149539729300431 0.6226404530241793 -0.9801577469176217
P 7.743765160992589 1.9290540402045073 0.050651800953858926 0.8597493863301774 -0.2505234069396911 1.4876444028850766
P 6.951378096011721 4.924388369643687 4.638054046277074 0.1670188613571317 1.0168797849290037 -0.4544543108318238
P 4.924406723407961 2.2836946503796822 3.3073217091308984 -2.002572088511609 0.8423275913093041 -1.0736790533062348
Ni 0.9039926347753154 7.0559394910779885 12.88864372467162 0.6935252529601991 -0.28606068061435247 -1.0561068487504264
Ni 3.8899059770128956 2.4751152348704046 9.533384736322917 0.4353042202659342 1.0349402419751401 -0.6125319038352677
Ni 3.772882376004904 7.26099692242394 2.8769158423464005 -0.22949281152163703 -0.9624603296378585 -0.7072624000406335
Ni 5.262703306497563 4.712934651448412 5.922798273971294 -1.7951154308544053 1.4711368921483565 1.0025528267833703
Ni 0.9118700704015121 0.416510231853012 3.9153571419309916 -0.42312413325997456 -0.5977550026364092 1.9743105225627546
Ni 4.34734602088408 8.56196679542417 4.7424153853127615 -2.206845463344825 -0.2805762604610136 -0.015057151443438584
Ni 2.944512756165791 1.2004187754277258 3.7318314291425256 1.8190454593074417 0.2657520509639875 0.9065223808196582
Ni 2.2318911507176598 7.808214404239069 8.843017070056433 0.2774981357563221 -1.183646163955697 -1.2369453895994698
Ni 2.8045653035801674 4.773933387011471 8.341801463016466 0.7982925645762767 -0.307967765100089 -0.5090077205976717
Ni 5.593548261292113 7.019131016827435 10.379906229028547 -0.5461434491077046 0.07492246034050322 0.5979609479996282
Ni 8.053897892804468 3.5897118085551303 6.16129718151182 -0.053096108494031145 -0.2585367641624709 -1.3513342834657116
Ni 1.2501115921982933 5.946693039678996 10.643293758612186 -1.2709546566653789 -0.07525181865546395 0.9906702164131713
Ni 6.108784308860626 2.9191937383504643 4.878770088541843 1.196138639995753 0.23216341637526466 -0.18038396981012805
Ni 8.883313677207171 5.734808008023293 5.188509132110053 -1.191549477963174 -0.04226199399300463 -1.2236674415436408
Ni 5.926843443617179 1.5559862506987139 8.342808166986869 -0.157174107352568 0.01900816567138662 0.34311525953549943
Ni 3.3777441849601972 3.4866554221592914 4.591797054178511 0.5546432590485997 0.23348624895174624 -0.2845866671719873
Ni 2.9234151041333747 2.7061799501919404 7.07227525896964 -1.5165919391573623 0.514458716409914 0.5107532425338688
Ni 6.972962122797385 9.120655379910252 0.8009325776266213 0.5862680850427323 -0.4195163613040581 0.7531807598393028
Ni 3.5487278529323505 3.0484501232467593 1.6939817804538477 0.14121886957489227 -1.3859217916325937 0.21246336684317602
Ni 1.1300871507315804 2.4133364643257216 5.321841888051499 0.06598196331776378 0.5180484906437014 0.507272740184436
Ni 8.308115881757054 2.501774077477699 3.8734509096534673 0.9893198730328638 -0.21611099089809235 0.4719432116452066
Ni 2.143462714447819 8.195029163185733 11.001197668075195 -1.0285901313873962 0.5825952641768354 1.9703281408762388
Ni 8.23185599120056 1.8555655680533154 7.7546654615946355 0.7826556293699682 0.001298921317081634 0.09484825273015278
Ni 3.669743397669834 6.40342646362565 12.06745409741631 -0.3631888903569229 1.1740456647514554 0.8478197247721271
P 7.743260432475067 1.148165608541002 5.606531714139203 0.06702403142903296 0.26480485655936975 0.4816529827338028
P 8.995143162925755 7.906939302266357 11.017798647860596 0.8034802794248033 -0.3848836017215371 -0.4559121263242729
P 2.326770935129644 0.624170226972949 5.841753557068693 1.0448243338580716 -0.2793544722387705 -0.6054950515931443
P 0.5748894522103224 4.371334390789577 12.318498720526005 -1.604781806030733 1.4094712968177598 -0.5230109768552993
P 6.446530279022022 4.543611999143014 1.1028896251428582 -0.0013385163057654365 0.8681399243867177 0.2672219506412946
P 0.45162465366111887 4.506913647478101 3.223443171024464 0.6800393026586223 0.8171354083143927 1.1625461487522883
P 4.913054920204786 3.5228306915424072 7.748231549528551 -0.041235609611019304 -0.388042459065493 0.518447525854333
P 7.636771892160079 1.9817752280802061 9.948264236220227 -0.8529076808179956 -0.3892958718566199 0.031034243597985258
