# total energy = -340890.0400158496 ev
CRYSTAL
PRIMVEC
9.06569440981883 0.00000000000000 0.00000000000000
0.00000000000000 9.06569440981883 0.00000000000000
0.00000000000000 0.00000000000000 13.26856014320295
PRIMCOORD
 96 1
Ni 6.491372762013318 2.158469357942781 11.462908115386409 -0.10578623979889523 -0.022456015010671 -0.5114662094404934
Ni 4.822169875765571 0.34982249025425904 5.91824226931161 -0.4697490322073652 0.1325182564771008 -0.11000516297624927
Ni 2.9029079354541185 1.545111658606664 4.668529923155658 0.17446554744316406 -0.6350781645668999 0.6244438247815053
Ni 3.615099837284616 4.293712406328544 4.6175779998132285 -0.41224502445362554 0.5983887795656662 1.0260493672434137
Ni 3.7691259884843538 2.769660356270261 2.773566764072025 -0.30612119880965344 -0.518687666889597 -1.0589512601777569
Ni 5.206228961664668 4.603786358623107 2.6554371371978016 -0.4246138304316236 -0.023708656470849493 -1.3230120394822507
Ni 4.994291153380533 4.688740982689778 11.126656063374108 -0.42998717892839494 -0.3165105124637775 -0.2839048106136143
Ni 5.857435935942451 7.973949259291213 12.269849217725966 -0.45792889964398553 -0.05090064350460911 0.4205823406747273
Ni 1.8749125623438767 6.286805363436386 0.2020852113963263 -0.047654111542853414 1.4919124341328112 0.07601235097057232
Ni 2.752217959866006 1.6863189176465174 0.23420315421389126 0.16286730108260336 -1.3019251369049643 0.05761636496188787
Ni 7.702712742649369 -0.03871867505349959 6.793065479653134 1.6500987847999775 0.726420203916007 -0.22846539869838717
Ni 8.401170117165705 2.5026393876159316 1.4210630397301858 1.7426559275031086 -0.5734292814068511 0.19947723899615324
Ni 6.877226855442584 0.8686431263348808 4.782878248813553 0.8008173878806595 -0.4301357886911173 -1.191596014930393
Ni 0.7558667921200715 7.523293580883977 2.3039266146096167 0.8176357449895789 -0.30603249575058905 -0.10108626322006463
Ni 7.802671091273754 3.8705892424118087 3.5393623049145186 0.9322218424682912 0.03102627317818528 0.5928285118690693
Ni 7.8048559236715835 3.785725275291106 12.689945346216827 0.2005103082463579 0.7536872671620762 -0.9885829948668393
Ni 8.19138994419561 7.558559132865553 8.680875805699886 -0.29042281423779015 -0.16246312366564925 1.2425959030170277
Ni 6.838779244657529 1.0340784541846988 0.38728375346718164 -1.3940557335936379 -0.3096068433654087 -1.6378204816532567
Ni 1.75752994870443 6.782136784816684 9.153488596420585 -0.7115499716723939 -0.24934404191960927 -0.18465688615386908
Ni 0.19143120710615963 4.7983542960597605 1.1637269526136242 -0.005463594217732526 0.3474557958923823 0.7561606684032333
Ni 6.45361414401762 2.2651907147363834 7.072275274692869 -0.3319546149329896 -0.9656191869818143 -0.8833451713722463
Ni 3.757231797173344 4.9940282482372265 0.3088945054275179 -0.0097827904183767 -1.6882914938196147 -0.43523017249488916
Ni 6.139950176662723 5.508723993276301 4.536136332402819 0.7196106371933414 1.3657347751617577 1.1275920012746063
Ni 5.245900441220293 2.695838405168468 9.154125914750743 0.9193377874167715 1.4936852097625177 0.8023482227028891
P 0.3186020512017779 5.593760208594343 12.042293030790454 0.2450577558394296 -0.8685646706289621 1.1382456243337107
P 4.103305622711823 6.484636950927891 12.028825941466899 0.10807966381876224 -0.7556837287668147 1.0136731050662477
P 2.4568848269858505 8.612582115163224 1.0122174382339604 -0.09957779699533818 -0.568918280910375 1.254843352925813
P 6.674372873144447 7.640803114247778 5.473572669046645 -1.4626733347620358 0.49135375496133443 -0.7101415213606415
P 4.751022304569836 1.2888426037441463 12.531027346212657 0.8030311077025267 -0.20587234388921963 0.4961059249343391
P 4.20658201555864 6.06913803616707 7.900007641020743 -0.6770825340231437 0.8335033081494548 -0.32886620581565296
P 4.869801035177191 1.0315581910867866 3.6624943820672593 -0.29059404970833175 -0.5287823321214377 -0.2806909316620069
P 0.4649459328001816 5.5243985792341785 3.384039759387438 -0.3477689562574269 1.1367677542366035 -0.5171704589141222
Ni 0.86518275070728 -0.20933686050431155 4.526649083007261 0.3867407095349339 1.8324023402303216 0.459797320311292
Ni 2.0050959367540138 6.708314833714891 4.54371253337737 0.6936414668230894 -0.4576311658979086 0.11910044040929811
Ni 6.024299110691266 5.614158021437158 8.963045550025479 0.8530984566725631 0.2015865720296722 0.7251457080789575
Ni 8.722150100060226 2.144190888952811 10.18241229665754 -0.20626726533479317 2.313792556221041 -0.10134311642587708
Ni 2.2840201624139502 5.731123613125151 6.703303317741776 0.9291486028596062 0.29266353064285083 1.022518985492652
Ni 0.7322633496678269 0.3207832573217695 9.153064321913455 0.04205656285041789 -1.03422367552409 -0.086135041226871
Ni 1.4285086947025427 1.214902798612595 11.44220932148298 1.0109307664344203 -0.06923338037552593 -0.3995242344528474
Ni 4.240016297231661 7.0535727467396585 1.486569935747788 -0.4625404302740679 0.009014801904100603 0.1958758947981401
Ni 5.897334057862995 7.951765504612828 7.6052864425258715 -1.6058349298855956 -0.9910247715391125 1.4452790505449882
Ni 5.4298161875057 2.7816542702218356 4.8711137477548085 -0.15832621867914023 0.6052873064577123 -0.03837165779966295
Ni 0.8687437555449055 7.99689453231573 7.030890378858449 0.26371522303961675 -0.5901154838132805 -0.706165567432029
Ni 5.374823684081474 4.601538066363098 6.698420534631936 -0.867470409123519 -0.34108665914124486 0.6050898457349256
Ni 1.0404969659592376 7.579002274181351 11.619769109286567 0.20091062900857012 0.9288639817396519 -1.2637393698638624
Ni 4.91822997571333 0.5426144581193993 10.50685537488804 0.5087727217687303 -1.0965395028441762 -1.0567298270464058
Ni 8.612663706414597 7.136333472713901 4.739158030050995 -0.8905992818314984 -1.1551894512769008 -0.014309988864768903
Ni 7.38286597157945 6.154029200371563 6.830906595469662 0.5170136216212837 -1.0735962637844414 -0.33818465500310146
Ni 2.579335163904912 5.364071770289661 2.369923964704906 -0.400816985122342 0.12715673505487132 0.47755207319155174
Ni 2.345694082756022 5.40951809730345 11.089305401635267 -0.1622705480388689 -0.40312352176833155 0.36172644687878347
Ni 1.3996616544955054 3.5656555389536355 3.566349971159751 -0.5685722104248659 -1.0243537247085455 -0.15735974100081287
Ni 1.4606556477428176 1.2250201137826309 2.6193991880365775 0.3316710222542998 0.35197039593328416 -1.6065214144296591
Ni 1.3108178474468046 3.823982506489628 7.735968430138833 -0.29402235866359044 -0.6168166472535507 1.188602736630024
Ni 3.892709537228016 2.6160784241057673 7.033743352948064 0.06233665325569264 0.5361827383505668 -0.24511457721929403
Ni 4.291609165182085 6.948845842757353 5.808179297489624 0.22313678739662215 0.22795734871371706 0.008920185307765283
Ni 0.5313467063050289 0.017613738032134757 0.1482059752685877 0.7816899230225892 1.5373595107220168 1.0625572323614605
P 0.2596043239046825 5.862811892838358 7.857508571320375 0.26920838494370414 -0.549341387219712 -0.733252396346492
P 8.693429979577544 1.6252614645370276 7.926094177223052 0.5628054831444178 1.4090650625182766 -0.8489296700068542
P 1.727178003194323 3.3112177543996726 10.239082860151637 0.3122324539137139 -0.1956133851653728 -0.8133255476499993
P 4.18384525350985 6.199448330301562 3.7377668443045415 -0.7658403575848423 1.1477525353828815 -0.9700142307257165
P 6.910824319618348 4.021406137724276 10.464674511068022 0.7595784358355305 0.5641162315360413 -1.195134881321587
P 6.639923233676585 8.09967231195972 10.177131529554902 -0.9088957661478411 -0.7920298714960166 -1.2348113739756026
P 2.6703275405730555 8.652842864867642 5.8979677499153125 -0.5296881317651587 -0.05546512294683996 -0.8377530845647443
P 6.901722362243154 4.245999655665553 1.4908289990693675 1.0065804598855244 -0.1051267518380254 -1.065149932789301
Ni 5.120920775508723 2.942588480704339 0.5077840594784699 0.1480320358419838 1.0359350017882416 0.11194763141460075
Ni 1.7626883289300128 1.4885870527955776 6.967532959029749 -0.42231989219112426 -1.4876706281373218 0.5017631232201165
Ni 7.065811434445346 0.9371661789448404 9.053815817176002 -1.5918167612296328 -1.2352929415977112 0.7146859461982144
Ni 3.1291786068958043 1.5588733830046158 9.276634272115222 -2.06733226360713 0.4443884419553895 -0.7238365023492307
Ni 6.372793476687094 2.202075348953419 2.5116588471702936 -0.7094334395500234 -0.6141056760802908 0.7479148834546732
Ni 4.006338953304384 7.112771732456802 9.897284416185009 1.2181976766783214 -0.09225863762610563 0.632821250211923
Ni 8.444930224984489 7.187527450102065 0.18702255982373278 -1.5523086758326814 -1.249680834888267 0.5656344679527807
Ni 7.734270425540851 3.971300043687729 8.016810956775453 0.422429164075479 -0.14003976166512655 0.3559298948016644
Ni 3.4663499203402206 8.622690364638665 12.191923226680201 -1.2664128029309674 -0.8034717947843711 0.7726090437672436
Ni -0.02161080277986661 4.844244842108794 9.889018315851644 0.17019108843752626 -0.03417124656507019 0.6354514887459185
Ni 8.736510160301567 2.379418466656141 5.915920544925367 0.23368036724042335 0.0325949032168858 -1.1585102881200178
Ni 3.5882744469726666 2.6397036242250445 11.266188888621933 0.4764750380772891 1.239553002425646 0.7327669720696413
Ni 1.45150836189464 3.4576287221380926 12.584181326772649 -0.9384500827661902 1.0146460105024784 -0.4715369773457234
Ni 3.180979985821955 8.53352019258448 8.080792096392413 0.5144373762536754 -0.7773031068088033 -1.0582328939544938
Ni 5.8638272506332 7.968011229330306 3.3527794312787305 -1.0251409964965312 0.179422120117491 0.8762898071873618
Ni 2.9278476612899325 8.521716658219438 3.290257868491857 1.692672653606446 -0.35221542206455464 -0.5953659335789424
Ni 3.550751537036486 4.476549334956932 9.196598693936778 -0.6429987049655572 -0.6671051110954574 -0.8068085724670879
Ni 7.5440993499836475 6.4346577766156985 11.318201498232188 -0.3721957218412235 -0.9956375877207756 -1.083283152054902
Ni 7.912828346319547 9.038452184542793 2.014750901499612 0.9632784546637796 -0.5309487436451372 1.8961330456200631
Ni 4.552583315540345 0.4933333422911609 1.4452113304276986 0.21128194494056518 -0.4122630221757545 0.26209054295200024
Ni 6.0282336221462804 5.466369068120023 -0.20403614887355898 0.8290499003637916 1.1300571749856474 1.4594993079094283
Ni 8.009160417105209 -0.047835137540047895 11.480210900093873 0.733234398624363 -0.5263392698975838 -0.16414462513313022
Ni 0.4085428072966922 4.885203650297164 5.505324357802499 -1.0948276623593918 -0.5230788539787572 0.3710790917382771
Ni 7.548450883390115 6.384751127860281 2.517443666892516 0.018243519591220194 -0.7632497140395307 -0.7656387830969975
P 8.68711119044357 1.436395849001764 3.6298007676427972 -0.8709755940632999 0.9794900314266357 -0.30137648503581643
P 2.1547614888526874 3.3257591285329497 1.3916330753605737 -0.5103112699004436 0.9557687765502958 0.7893011597109438
P 4.906154470510384 0.8088603098857021 8.131822891277835 0.582954447288467 1.1710665275184735 -0.441902185198426
P 8.62520156204198 1.7364975372398397 12.403556427625881 -0.17345176146666902 1.2610407399857766 1.4371975590884345
P 6.212212828293865 7.868533362519551 1.1647622549365793 1.5981786988919187 0.058885975702930846 -0.08037242771148094
P 2.012937762580251 3.237268883573525 5.722464968215741 -0.16397801764827888 0.8773904964507082 0.5497679332341693
P 7.200835889770177 3.940739587201895 5.741942613056979 0.1973977307593052 0.568328469845176 -0.061341636332275
P 2.431228911276889 8.678525977660394 10.200192843470258 0.4967163048248285 -0.19883883408120595 0.28558991162552105
