# total energy = -381172.50220071495 ev
CRYSTAL
PRIMVEC
9.19029818986657 0.00000000000000 0.00000000000000
0.00000000000000 9.19029818986657 0.00000000000000
0.00000000000000 0.00000000000000 13.45093037044682
PRIMCOORD
 96 1
Ni 2.4490858505019357 7.971223668802695 1.479723506785427 0.7080121337224645 -0.39136792389430014 -2.238912519082699
Ni 3.469392775153606 1.8570468297303577 0.9174022348118464 -2.034291788212393 0.19151041874059277 -1.855040903565444
Ni 8.173345900777692 4.1085412653519935 2.311178990303363 -0.8764145056906842 0.4249552729314423 0.8827419905706088
Ni 1.9354768359902872 4.0386582365729335 2.4237233840998353 0.8262646243091705 0.3874163954457199 1.9849104095657877
Ni 3.1827473691016728 7.658578908671861 8.130496134643767 0.3883926433160601 -0.4986034945452123 -0.27822370106843697
Ni 3.1565917799505407 8.886283296560913 12.858444210273015 1.5279050501773364 0.0002504254479092461 -0.27355354928627723
Ni 2.874293385025975 8.378510121512008 5.300554210504807 0.9991335166891762 -0.8347736902214463 0.33037878580543745
Ni 5.805382813957078 7.764212198096706 4.135690325756547 -0.6187256913508054 -0.5351010752506139 0.8539512915911616
Ni 0.8573647726728447 3.760780375162666 5.045914937544136 0.9664902767328579 -0.07861507870074202 1.4347660668288065
Ni 6.45290366596737 5.036963586935141 12.515714089409522 1.2841752691207111 0.4224165656699886 1.415944049026297
Ni 0.646763571424891 1.932012093506107 7.0871472939275435 -0.5451880271729708 0.4000477110564852 -0.6954011298266732
Ni 3.5227608377680197 5.249709803821841 8.729640175082505 0.4701722357877129 0.031258958014281656 -1.0026893523612344
Ni 3.838815198592834 9.08930617777583 3.0754074412701637 0.16371885044962126 -0.9141714127244838 0.1486493577110085
Ni 6.52127948581432 7.572860995807277 13.551274152260115 -0.8059531664453281 0.32985402365021904 0.2539607147560143
Ni 5.597608548486667 8.331676361036195 8.905470801490546 -1.1474704853660884 -0.2686933929804985 -0.5939816516369061
Ni 9.074610890687756 9.00532523130252 3.2867751134018857 -1.559891887496578 -0.7147335116066982 0.49398502193659444
Ni 7.742716090217403 3.747564726111602 4.860130298975313 0.6156753345602558 -1.6966406371152587 -1.4192707994066847
Ni 5.092105377134294 2.7850831587821108 10.737905093165512 0.7833886508812509 0.10869030081956765 -0.7342993495537676
Ni 1.5821925764826774 9.137408199426226 10.985912646824898 -1.760376484711323 -1.0596138334624203 0.2528587399410871
Ni 1.5328222936577018 7.535686238914682 3.347896111718301 0.48333911218697406 -1.0406617178399495 2.4775751700290622
Ni 0.5832429862049763 8.797229305389282 8.421211004812397 1.7658920152129138 2.7155467084456717 0.8349778358124523
Ni 0.785511343924001 2.2654728794371213 11.159215022152308 -0.39857601160696515 -0.08485103230812485 0.1357820148300371
Ni 2.721982570197546 2.6404554333880976 5.848074506959099 0.06166636666154541 -1.0292958992051693 -0.4533860174683095
Ni 5.56786874297259 1.0429977713186216 4.6566451457525595 0.3498070697333782 -1.0701990651774342 -0.8066260241426365
P 7.940463740169934 7.500717153630051 4.683156399450476 0.8139953200235143 -0.019346265737095712 -0.9827630457509525
Ni 2.1329579672901886 6.32413839555398 10.421687145029772 0.05894819639943396 0.5732215362714193 0.4773548695790811
P 1.458665776138207 1.7413317829974344 9.148475156719195 0.408189109216697 -0.5796888891633177 -0.27978487490796977
Ni 0.7573173465951739 6.657387804622564 8.487685351927313 0.1064920076166682 -2.106333070350359 0.45879921806408086
P 2.46161222717551 3.2905863301344835 12.797349863821863 -2.046887622599533 0.8394898647501929 0.6639794209822824
P 7.636025916480408 5.6172298354992 10.138302456838284 -0.31337813748238286 1.5949933591854015 0.3617210475621448
P 4.816074765695698 8.531831869160754 6.517688836242519 -0.6820190520928124 0.8093943309163931 0.1182800013905318
Ni 1.004848842799174 3.981163729991949 9.727915197460103 0.37035121243331703 0.501538151693504 -1.7235600872139218
Ni 2.861013403886345 5.407957551395046 0.7810053406348936 0.7599736143914202 -0.32561684564041987 -0.9161318788849642
Ni 3.0867087511714804 4.172551693474844 10.736385017815689 0.022272181134639062 0.1329172916877324 0.9085039300260612
Ni 8.368125084357835 6.488993967652716 12.852579880885335 0.4737167586058616 0.8064753574973853 -0.05496350072007308
Ni 0.13382544869399887 8.686182930226552 6.183392652189988 -0.5340875463844351 -0.6891816312795228 -0.9583758751558399
Ni 8.253117690599133 9.00728276485459 12.415652877884302 0.30749648189062523 0.022757091190857583 1.3372839760202324
Ni 2.5990623295452666 0.5525685273470238 7.234260075999865 0.02402233105652637 0.6069667510426643 0.05137115538312444
Ni 4.557836571894696 6.257324926429339 6.071777397558371 -0.86892411085091 -0.2945399217299573 -0.21388364422947034
Ni 6.716839844755619 2.7881527184365305 0.9324936237595179 -0.7727072599080047 2.0356542157775586 -0.5623205730881993
Ni 3.326566348239431 0.3487185192791199 9.726691049717683 0.05026635235471987 -0.4178150623422353 -3.2385746545818352
Ni 5.470561863867817 1.1545220419964095 13.162327858971038 0.28458435317914216 0.33804015900543716 0.6491467268448239
Ni 7.323666055598936 3.5382005390237823 10.80376093320036 1.120334805491561 0.846792054838561 0.3079132577130697
Ni 4.910615364992147 3.298039662109736 4.596424796676064 -0.8863561902844284 -0.03478008379366268 -0.10207228128241774
Ni 3.100742336777165 1.8709241802638115 11.36061581570553 -0.37620381455935203 -0.44358960020317795 1.0907833170866892
Ni 8.252299754044513 0.3931719924780041 10.148673708544907 -0.22867751470919329 -1.1202509875285027 0.28179573469041147
Ni 8.276745947699471 2.3014988490339015 9.0781675361556 0.6225255247128698 0.8772495999974698 -1.516169249797647
Ni 5.97151583752876 1.3940947398149983 9.005182781677838 0.16455265920482626 0.6872329921935841 0.32956117500014853
Ni 4.987446259336301 0.4236828640250324 11.137451476590538 0.7184667533968851 -2.140914407869655 -0.46065015522989045
Ni 5.8048773475469195 6.001007504986941 8.336725510958765 0.44995256630672836 2.5690977008200915 -0.18718376634078088
Ni 1.1367847661490151 0.9124045505601297 13.069838534269998 0.3935577324567674 -0.7545503864933198 1.2828344388221002
Ni 5.075930452009209 6.731093997522099 2.0143571668701763 0.9027055781767293 0.22688519869546084 -1.018164822289014
Ni 0.6799828239005344 4.8579825262470555 11.872705673897194 0.9446230443461215 -0.27240066662875667 -0.11839235859867996
Ni 8.35763895392163 2.35932420635608 12.762310013239809 -0.716588819647882 -1.5757180558955572 -0.6492919941734365
Ni 6.135590234266341 5.206883013433832 3.9961099122254296 -0.1799733646352707 1.6431611771398797 -1.290805372842719
Ni 4.882539003482412 1.6366450943043414 6.785039210873932 -0.5418851880519829 -0.08915068812474324 0.02545057886262068
P 6.246140333317278 5.053248795640624 1.146688231668783 0.09760061866430933 -0.1602558316016853 1.1391611941694446
Ni 0.8724414571431299 5.98958396411735 1.553689785128735 -1.3301177972890963 0.19771757599256917 -0.18288153942100116
P 4.919456432020745 8.70988470971382 1.04093087321599 -1.316080859580056 0.14411264618291955 0.002595785751634239
Ni 5.264993270005373 1.5814481623149887 2.11421711086117 1.0494908860958054 -0.5571012336707889 2.4870910799392973
P 3.2225689319238278 1.9150468027215009 3.6163906784963453 0.81423468972783 0.8587574547305533 0.455492522288351
P 3.956524540071294 4.105260328835144 6.603358040525761 1.127721070653303 0.9292781864589351 1.2974524458455914
P 4.026003195722227 7.295304794839838 10.172777104070795 1.1625543762824042 0.20504547711255008 0.23001063169831998
Ni 6.0832514850689785 3.9370686784293594 8.631879295238425 0.29978728617182565 -3.1186236932467835 -0.013595479296247551
Ni 0.980981637941307 2.8303086170437832 0.8904810938067829 -0.4149359410222273 0.4145109376696668 -1.0911805525251077
Ni 6.678167069229279 7.402307438721296 6.396468800788046 -0.5809127342680898 0.36744303764758657 0.8764394453913485
Ni 9.139374923276662 7.3724205884333545 10.69234694610297 -0.28220633986526883 -0.9241421507839503 -0.21620046528810508
Ni 8.491054515308482 4.354299033971254 0.15685909349002194 -0.21842061286787542 0.9210465425777622 -0.0028436400963821992
Ni 1.7595745252549875 6.54910770926816 6.432114292032453 0.4730688406092176 1.5636017322479974 -1.0769099015387067
Ni 4.380087011187725 6.371165152295492 12.856198101352234 0.2041877570979451 0.8082555893262596 -1.029353491915982
Ni 3.9299921486871345 2.790229725867365 8.549155581581656 -1.3147210031180518 0.2564605983597325 0.3501287147388551
Ni 7.807544454894875 6.524882082773999 2.2663744477068772 -1.374239727308975 0.7140339144365122 -0.4667377561848671
Ni 1.4597042798536244 0.8713101314142107 4.62792730141684 0.20591425287074858 1.0030446788181242 1.1837184119545292
Ni 1.43503751903787 7.052294925432169 12.750729318268151 0.7964945921355896 0.5636845433152614 0.10866433267763867
Ni 8.044727675138166 1.3224931252413974 4.859323390778731 0.9563480460925338 -0.6608789276800876 1.77660194543125
Ni 6.781640638537991 8.807301872398993 2.3140573917517586 -0.5979599195583638 -0.3587614507131886 0.13775945027138212
Ni 4.342737638626165 3.8478125006936628 1.85212634398492 1.07055799117875 0.6579514696206475 0.40745454504351764
Ni 8.441665851886773 4.6917300287966075 8.326503142085677 -0.25733040255919554 0.8346569621379237 0.14197297413209742
Ni 8.234047821488593 1.2017877464954505 1.5677059091675232 1.6910659712409586 -0.1113444506129631 -1.7209082514133716
Ni 0.3146078078619236 2.547587468394357 3.1933318357304 -0.4541236669652824 -1.173372807054147 1.0491386449627094
Ni 1.57507009524862 4.61966889930468 7.397783054835455 -0.08797055177371302 -2.0363113897455833 0.06924237923659042
Ni 5.426292196636264 5.247632796391007 10.649720504219353 -1.793949178460446 0.9384030315783387 -1.8033612158029653
Ni 7.828195055324457 7.784274619430832 8.490563753375708 -0.8185276606762291 -1.1786425400935183 0.0895882898827941
Ni 6.942185960702826 0.6060431974224895 6.957198313084545 1.0197090268476825 -0.09716790200226492 0.22427115811138149
Ni 6.744236124186231 7.651713755792067 11.125480193938301 -0.5546795116031736 -0.964376829934281 -0.8047779151903044
Ni 3.520426501982922 5.742723359694106 3.198819362885053 -0.26141871369595626 0.06771565817941885 0.7883578219610681
Ni 1.7488034955694196 1.0227423537187992 2.274040994604233 -0.1810462859844753 -0.7729481722742172 -0.6694425009793825
Ni 8.466066094049898 5.960515050384029 6.285673320770724 1.0337215390766907 -0.20041440609844194 0.1288865732617845
P 1.9558517274688745 5.626631510728155 4.533582455475599 -0.39762856009203135 -0.15281994414893038 0.15231909325311185
Ni 6.360063271868729 4.610745119590783 6.260668356975081 -2.047289743133958 0.7558217970065757 1.9363201593619104
P 6.845228312935982 1.4810809138541627 11.373313131928725 0.37590325259979773 -0.4387019330935735 0.2822852727323203
Ni 9.036756051716036 5.53208172113334 3.9942406055376787 0.14641918282890912 1.6981987256309978 -0.4800244459914443
P 7.224190266079662 2.198153943902321 3.212176542530961 -1.5430696737329166 0.5573776272606272 -1.053236983401799
P -0.02668954548622694 8.059763003265802 1.2512490132742544 0.08965565278561978 0.2323485358028773 -1.0223824599147875
P 7.82824100681629 3.106081900128116 7.0208346960638774 -0.23827852813406702 -1.2152190536659717 -0.35018527900840335
Ni 4.47032655084864 3.707228506580921 12.731992137958478 0.95398931605237 0.38900045210338813 1.4482810705961056
