# total energy = -340898.5852943455 ev
CRYSTAL
PRIMVEC
9.01480169789063 0.00000000000000 0.00000000000000

0.00000000000000 9.01480169789063 0.00000000000000

0.00000000000000 0.00000000000000 13.19407351498693

PRIMCOORD
 96 1
Ni 6.378900591444099 1.9184399089110966 11.501326262028696 -0.2850301824673091 0.6465846225446026 -0.5549047402401024
Ni 4.515991859822098 0.36546456053385795 6.088325592957551 0.22859832473182562 -0.21995401879326634 -0.3659867648170342
Ni 2.748126180498624 1.530893592083466 4.762058078823345 0.31724481952664074 0.21240731679426 0.050883417113428496
Ni 3.422496436905336 4.348091181736156 4.9320105257325 -0.2930481676757792 0.46806547385735525 -0.20564634392134257
Ni 5.336654315100146 4.654603447808644 2.4941548820550374 -1.131590066690406 -0.6091686437899896 0.9899647057057144
Ni 7.284076810859367 6.083584708844509 2.4919119994398544 -0.13937693127014705 0.6151135485195148 0.005187714848526549
Ni 4.863683739182992 4.597774139102401 11.428323497937004 0.6462871459088418 -0.16784264281000771 -0.601027502740094
Ni 5.631546502028862 7.794837434697931 12.248177325519789 -0.160279228640453 0.2467593119115686 0.7257704861471501
Ni 2.036759178703203 6.445033175306567 0.35071273934621583 -0.64278067541748 0.07975407740119168 0.42880524280515186
Ni 2.7766399976683327 1.5085098399391768 0.37069675132908375 -0.1370418553790672 -0.09006240130573522 0.681356221697833
Ni 0.46423613473608205 -0.07625169855516428 4.772982215290702 -0.1701916026581585 0.3215478177773688 0.0024322635905764563
Ni 8.844899543949294 2.1975832376053877 1.4235218972426387 -0.5163839584570848 0.9400287401072197 0.16224406567630767
Ni 6.831822248807527 0.6512472905387691 4.895357244281246 -1.0026219894584087 -0.24200817037982839 -0.9591096679980707
Ni 0.9742656581723502 7.340166905841957 2.5868432681996834 -0.3870908937855011 -0.009417693769474104 -0.5423906669334917
Ni 7.554025042015528 3.867602261361355 3.7490170549247637 0.33105035795116533 -0.0027703636562855516 0.09416099685514107
Ni 7.709836871279282 3.809943590916379 12.506081781861303 0.6247896381566982 -0.00668409688839494 0.5454690487484993
Ni 7.825848351885348 8.853157102130593 6.933392918877976 0.39000009701249605 -0.13884779823955443 0.049414288767069735
Ni 6.938368187830226 0.6219446782371125 0.31993530551785543 -0.9791892123567651 -0.11227184752323892 0.3893328957421424
Ni 1.7985700932596194 6.468570822043876 9.209212012850433 0.5863472750200999 0.49645868028806756 -0.025184212575111466
Ni 0.04206486679648963 4.9001756556872555 1.3471412870259103 0.45776897702735364 -0.5182498080212301 -0.15507351606979744
Ni 6.193060458357298 2.0796786486826484 6.900790889224403 0.7999678953961707 -0.5290453559748372 1.0562204915101552
Ni 3.452272326286161 4.264551016161798 0.4978721621226198 0.04079697941170393 0.6193975206068495 -0.45102163100119097
Ni 5.806631976916655 5.46968574095326 4.8830078676954765 0.597048720598004 0.9991242607177955 -0.3566420903773406
Ni 5.330641442494331 2.9435490475883976 9.294248635475114 0.6067011560861035 -0.47564842841093574 0.3912501673695133
P 0.3152142539681315 5.614733897216498 12.36342705539843 -0.49792626597252965 -0.33938973105479614 0.4210963041966683
P 3.9597335327728085 6.274572293592362 12.485076392867581 0.09640145614988559 -0.765351847984198 0.0865441037398316
P 2.4413795295869285 8.414145283493964 1.3051232971972622 0.6212985942843041 0.265927143089271 0.5120051126630989
P 6.287229074909551 7.690761551288418 5.915088152378892 -0.5066014251490244 -0.4183321111879698 -0.7711594558049106
P 4.7571558297633105 0.9373680756002291 12.6636974729068 0.21149328962042285 -0.20371775944006207 -0.31539748190525685
P 3.8253318570904837 6.180701165489871 8.16959896002696 0.07112494097128395 -0.8174709372769405 -0.20183365504347175
P 4.858211754667655 1.1262552115967246 3.7715783986587597 -0.4607285738763098 -1.1208544254404569 1.0746087642093558
P 0.13840334607171267 5.496522805042487 3.538703538704125 1.0267173398447156 -0.3702861635233365 0.3268301492222307
Ni 1.4932387661846755 0.9287048513510698 2.653974692069234 -0.2805400079064394 0.6638174414831213 -0.34361353932815664
Ni 1.7106126749463562 6.667112810455407 4.7663058532939 0.7624033068788353 -0.46452146525983873 0.22372659846182116
Ni 5.9082828787205255 5.577313456156914 9.169353067982943 -0.21045919192895368 0.21847820557868824 0.5461331646950595
Ni 8.43835904034437 2.254331413098059 10.200047777674584 0.5175908342809924 1.1121766951608008 0.23907299901090437
Ni 2.1200018558277978 5.28277284648701 6.87453437835229 0.586403582179332 -0.3999389533927628 0.8163028851107683
Ni 0.28251486445827195 9.288761325797212 9.200280147516336 1.9241480427757505 -0.9613400999904863 -0.24848323658121074
Ni 1.5093482164794179 1.141742640587417 11.426357369728116 -0.7537793126552502 0.49000058336754965 -0.3522254493668837
Ni 4.229131861036984 6.596644107067606 1.582061605442704 -0.076213668348101 1.3469870622406093 0.22472650048124523
Ni 5.502752032884494 7.815589507769278 8.014330723294135 -0.38349752000728793 0.14211541324723265 0.09791017948492815
Ni 5.288064534972188 2.9907505482841286 4.882862729391198 0.16941230128997276 -0.6112473806958892 -0.7461999576460955
Ni 0.8046557737204978 7.511898874568786 6.96987491910058 -0.5084001689206599 -0.5332100288754882 0.2468449296468394
Ni 5.112050535529074 4.498935855369018 7.056704585745196 -0.25284099932927423 0.8993086366800384 0.5803126387902457
Ni 8.076558996623502 7.278478619122917 8.900062015856713 -0.02128924839607946 -0.1565920095968529 1.1218301590901647
Ni 4.68171095594311 0.3269857817772388 10.4401398877165 -0.17767608396066176 0.1838081650003286 -0.24243985860060824
Ni 8.126780455824402 6.926955449121135 4.810730795125177 -0.46107464436181883 0.6161476462109841 0.1924452718500363
Ni 7.301583555387844 6.025015543447228 7.053894672115163 -0.2489727746231196 -0.5263536680752872 -0.8393271139200835
Ni 2.4364484331620693 5.1247433760522965 2.6357404530590633 -0.6956638965697568 0.0506234785838225 0.30359740394653517
Ni 2.2643648871764293 5.19324685271136 11.381233780779972 0.9134257928077107 0.5773684685602573 0.034022636802347864
Ni 1.0370357210723453 3.155063335369898 3.842879168225747 -0.24035135150269574 0.39748843496974123 -0.8976916699019055
Ni 3.8419821954757043 2.743447498515988 2.7664676956467398 -0.7849752786420804 0.41707329908020435 -0.6954450956907313
Ni 1.1105243829653169 3.1868134662809684 8.344525774408211 -0.271823453969048 1.130288574270163 -0.05471950303006705
Ni 3.6777234971989827 2.7337475720934115 7.0713500322750455 -0.9899155976353339 -0.5990351549004136 -0.04719851206267356
Ni 4.010477850461172 6.885343125360345 6.024862291821592 0.160807076119465 0.21225639303869248 -0.06595830916867995
Ni 0.5684039691209771 7.4465686080405264 11.252406858350176 1.032166792995061 -0.1097691357060432 -0.17767788373287466
P 0.23200042420836206 5.523657357581477 8.049294630942796 -0.36034345048832783 -0.38177025290353606 -0.4768218798937465
P 8.466043495775347 1.6993712174659177 7.867546316260464 -0.7184500412263368 0.796175518233274 0.6308759535600942
P 1.8649100175567708 3.2342583666174143 10.559229923037536 -0.5685596120193757 -0.35440343085480897 -0.9502491322836474
P 3.9681172981752204 6.234798989339198 3.8408346112437397 -0.8738999667989465 -0.5662998694509215 -0.2295915418830304
P 6.9681801364170814 3.952323365933257 10.493945631996969 -1.2907338961748351 0.4837713146283862 -0.8278265694796518
P 6.2776102817005475 7.704617301206167 10.154646532839994 0.6023369655801368 -0.27952776459184114 -0.33934962184548007
P 2.3445876057958546 8.649756135706266 5.850239276251158 0.45396348723833435 -0.910335069697529 -1.0150617578836585
P 6.985813088166672 3.8979911572447214 1.4110796682013385 0.49547009112255325 -0.11201859386185224 0.4872034802383868
Ni 5.292698142947285 2.8880178702993025 0.37467318027424934 0.49910408833071457 -0.34803969342031027 0.22450358583716173
Ni 1.4767416794250903 1.2107509461309274 7.062787773802775 -0.18716139774327767 0.24972019431210543 -0.4489230966009494
Ni 6.818218913332001 0.712819286318355 9.038203932684695 -0.7404987934962602 0.14205216410946503 0.20083606701689283
Ni 2.8621093307653966 1.670082127366523 9.341575441911806 -0.17193146816740068 -0.697495807572173 -0.8434419074194055
Ni 6.469120724935863 1.9894855595954082 2.564954428658181 0.3417841994289017 -0.09364986154667743 -0.4327611421291063
Ni 4.108667068485981 6.968432550859305 10.27714055721044 -0.4112875456363626 -0.3930753935037101 -0.12396445336981876
Ni 8.011165626484688 7.21442845440879 0.09629791266843717 0.08659861112685086 0.16240553095483642 0.6041624488246498
Ni 7.483826782672966 3.8483466453403308 8.324840152355257 1.1487449812031378 -0.3758970819522107 -0.44205902249126455
Ni 2.96512146759697 8.303263224945931 12.146648123536277 0.44217060836846434 0.07044591262638836 0.5214796278124374
Ni 0.16405135784203811 4.759526722559907 10.195799101723876 -0.37815322497623904 -0.32353836584483636 -0.10357483396987321
Ni 8.467612071237733 2.294816886670352 5.7638702659635985 0.5849514231138377 -0.09971766500731213 -0.27029878979440547
Ni 3.6924717124660216 2.508620934034877 11.509744283676838 0.47538437611627166 0.4902242693425815 0.03061926754775372
Ni 1.184391666521623 3.4008158392786685 12.749815871712437 -0.305688482147609 -0.21841675621313353 -0.30114508575130067
Ni 2.94344988477181 8.444426001759235 7.947700522388428 1.1101684064815203 -0.40943712269118515 0.7500075043176438
Ni 5.567000523231796 7.747671993208232 3.660207737868997 0.3724219789194167 0.36916464832438356 0.09715993158246493
Ni 3.122528916727634 8.445525807543206 3.5280426344407996 0.7097936511029195 -0.771436363615381 0.3924130773293629
Ni 3.446214379672805 4.187510522474686 9.240311275092628 -0.8418920464337822 1.3040295848424768 -0.22059859435580073
Ni 7.3418075997164065 6.029928610269073 11.294311261679823 -0.4333992899337375 0.1028371844729003 -0.40958136157853325
Ni 0.6159507367144633 9.052753822318559 0.3024069254657586 -0.09968192667337027 -0.6152991821677597 -0.14756049552220393
Ni 4.606806970213388 0.41210353761549157 1.6717282301218783 0.05404587400181014 -0.769134712065398 -0.3160070904647977
Ni 5.9743253145679125 5.536124828066999 0.2507899749914239 0.23926634596863308 0.49162449212421777 -0.07053795811956239
Ni 7.913129660085514 9.01424259027651 11.10907962769481 -0.6518908652488643 -0.3932335163481292 0.9146324115213023
Ni 0.08539631320484904 4.664862291924714 5.717334959099308 -0.32256751729113475 0.47202728671858063 0.04573941101864381
Ni 8.040319494561462 8.70898338161363 2.292126869900374 0.09800531030189574 0.17765294403221019 0.8609171813860336
P 8.387551619045452 1.48642357624465 3.5937352959896787 0.7810168082149647 0.3771764628852666 -0.24736197849257402
P 1.9206485352805491 3.2016247851585633 1.650630890152776 -0.23220635379805815 -0.6783050935763351 0.5086408241765562
P 4.734582766787354 1.0937568521604928 8.267023722883893 -0.14024313592518428 -0.41067305198081533 -0.5450093355032614
P 8.520294571250309 1.6624916644968122 12.460535398722435 0.35843903437676333 0.18669422829887203 -0.51343490313109
P 6.255316677571338 7.759941138060579 1.4271368326473344 0.044160753677614274 -0.5033404950095653 -0.13726939800884103
P 1.8143730403030909 3.165502475516127 5.907620290809689 -0.3043625642473339 0.40164513745059216 0.8749248085190351
P 6.943524654292784 3.9441739853700524 6.048413460761164 0.3665035565524527 0.658518140757395 -0.6707568489154319
P 2.269259924395257 8.566684739810324 10.045954169578248 -0.2840205102558721 -0.08084473936220916 0.5349267544562787
