# total energy = -381166.1841145315 ev
CRYSTAL
PRIMVEC
9.27751881704205 0.00000000000000 0.00000000000000

0.00000000000000 9.27751881704205 0.00000000000000

0.00000000000000 0.00000000000000 13.57858657472309

PRIMCOORD
 96 1
Ni 6.311087925094898 6.785568076321978 8.61543715204222 -0.10445903634703946 0.7688218088106694 -1.2198061588160216
Ni 6.909794054949172 5.091789998203261 10.083281666881451 0.5298251715636553 -1.9611881262481838 -0.16162880068981197
Ni 2.938570627061699 4.758884786024052 4.107902620189894 -1.5006734681548928 -0.4295099821816603 0.2705229899900696
Ni 1.6179529158095256 5.212685347530444 7.908576489623179 0.21423228581814074 0.011592075712973585 -1.0972182740787555
Ni 3.6997446686201867 1.2178877440125226 9.817209845653293 -1.2146045600104243 -0.7071978653512853 0.38194714480103253
Ni 7.144552394245851 -0.04715670102794368 1.5605594003814889 -0.23121030843337598 0.5878804238351746 -1.6475096839165628
Ni 4.062634822018447 0.8094125012950152 1.4903721863330712 -0.6483257736054253 -1.258002210269769 0.8727049180495808
Ni 8.846837957233957 8.806694132773922 8.570586842223143 -1.2143374223919667 1.538479226148757 3.8960389001534192
Ni 1.4567374691624193 7.5869601624920335 7.854221361648496 0.28672633922280943 -0.6338080396052246 1.476054126944316
Ni 8.448080915607711 7.551844753298312 2.432006032079098 0.44691017993597876 -0.3207577177759056 -0.7275149796420826
Ni 6.826101556577557 8.799466945518464 3.799342545465174 -1.0596251463163298 -1.6729625767720286 0.36795108763225665
Ni 7.878849463430703 7.171735524744557 10.574433519646474 -2.3132066018105837 0.6772658536785433 0.3415435441730053
Ni 7.98583781186452 1.6039160296509787 3.0924141571578594 0.19461296892531643 0.2808673093388711 0.4782465281554151
Ni 2.2319112868036886 4.042901539229796 13.154106109710456 1.2294704213786634 0.8481061456642942 -0.017206593686273593
Ni 8.59066710422021 6.292801935261127 8.348074827929295 0.9367667815264963 -0.48954575521831817 0.8069083312697458
Ni 2.2124284970264583 2.1302018466476067 1.8080019635750382 -1.3010900425981786 0.4257649133169312 0.07378140475752455
Ni 2.6711832536476314 6.5445195791829365 11.40386783456922 1.4066453973331905 0.5539261783769169 1.0395116633959065
Ni 3.3034647245513313 6.895311847881431 2.4871219166069873 0.45593603758367285 -1.1417991460129238 3.1501762712420844
Ni 9.370943557279324 3.4069276157873634 13.311129045547881 -1.881396253630521 0.27771590819408304 0.4003575289874202
Ni 5.718801838348169 5.302797889009604 0.7911200171979845 -0.24735400807277402 -0.4332910464906473 0.1370189725609318
Ni 4.086505878255024 3.087094427796781 11.39056016139948 -0.2041826148916225 1.033370326384859 0.29280391287545704
Ni 5.1628465157765016 4.863535199684602 3.32416008605422 0.4825076174246142 2.4377043019760536 0.8849500539655211
Ni 5.283407874421789 4.687856101007637 7.913138245686733 1.1205834311672571 0.18282754625461417 0.3958087332744732
Ni 3.327057455219663 4.365350987561892 1.9600011229056207 -1.2855641790484376 0.5058936004487223 -0.48699187844821296
P 2.9308888413781053 1.9437886585552833 7.467449018990928 0.8093467655079094 -0.48969282231914374 -0.032270687108247646
Ni 0.470361860568931 5.559877938879621 12.523733952204923 3.310852735320956 1.3862331522254254 -0.352282013636432
P 3.3582484739011136 6.524851239026876 7.831830069683094 1.5432995303555357 0.1741927533977516 0.9910098591407771
Ni 5.276264184836804 2.88416725598852 2.3754512043633764 0.7160144352016506 -0.9862471476448113 -1.0979955185644121
P 2.1789830412422138 9.18368611496332 0.7451304280528864 0.19064909918156198 -0.3888754964897497 0.011825274769702214
P 8.082871382474066 5.939411961259002 6.286396736183889 -0.19616797211726217 -0.9052530271889313 -0.960607592699836
P 2.3330269657475116 8.586427278063926 5.219200949083086 0.49775271650914277 1.0848553816380284 -0.9206727041781112
Ni 1.4112590713109998 2.5740476303297277 11.240055610370378 0.6813760191921749 0.69058776759843 -0.4368219424620412
Ni 1.3090672001699584 1.0488513488976996 3.946046096983927 -0.10862602324053551 1.1015451835888834 0.8305018023189696
Ni 8.771059182519474 4.0174161946973905 7.345757658538563 0.02670244899185079 1.2982898541452224 0.4440945648640546
Ni 3.677692006096151 3.6662899353170006 8.981066956783918 -1.1556525069562484 -1.7757164575025028 0.0857203222869556
Ni 1.114851618647801 7.19835272658783 0.7857668887687171 0.09523854619003598 2.414919957091686 -0.37087494614727096
Ni 0.8699241908393028 5.960110106017573 3.325708503965563 0.15346477682178086 0.6615206750291446 -0.46159992073766953
Ni 0.7153922688376805 7.278668208064725 10.302359143663141 1.1028428193543847 1.6277013909413838 -0.24636413335567894
Ni 8.4776947560691 0.48738239681907675 11.110787300198458 0.4741178506990221 -0.30769959904036687 -0.13252956933101048
Ni 5.741040051251035 8.195491184905396 6.416004603549069 1.1577276443177222 0.07062460429609772 -0.786828015580103
Ni 3.7915549960656474 8.793009792335154 7.409549878780578 -1.4027560895811133 -0.4617685851050499 1.2273973408997185
Ni 8.376291474038089 8.037188879205932 6.770907740890559 -1.4380894747750848 -1.1685615017084328 -3.631525349582223
Ni 9.219191179952587 8.36199481734918 4.492787915494753 -1.2084002309719253 1.1407449937167966 -0.24211949914671205
Ni 7.625619583921422 0.748831230358666 5.519342603120253 1.530860019040602 0.6445683634455222 -2.3120424062991534
Ni 7.537102775700208 5.97686530522599 3.947987881698391 -0.28022016267317545 1.4577018496893734 1.109812051583366
Ni 4.318583014577599 9.034587108053863 3.677732827179494 -0.5116413015657768 -1.0624831845904155 -0.1470961542912757
Ni 7.496606405520394 1.9723726944141617 9.47088748558083 0.31251167571702954 0.2555923368221663 -0.8871406338589366
Ni 5.127554833722891 1.6470101051344228 7.944274527006429 -0.018190554866097705 1.0929690118840985 0.12583313114744135
Ni 3.85774081619458 1.0054047276944769 12.52486117075632 -1.7292625369153378 2.4983201158858974 -0.037240886629329416
Ni 8.972706056713804 1.7780086725889401 7.275080591490031 -1.1722762315558586 0.22371759960075668 0.2864682004654163
Ni 1.1299275869278005 6.868861641379106 5.5863253621262645 0.9165512258105698 -1.5077604569086613 0.9702065492421807
Ni 4.157497453195674 8.262215101132938 12.595401858276412 0.3044620659396756 -2.5822540356963914 0.5022066385154383
Ni 3.958207068812495 0.9934831158546006 5.549432380303345 -0.7125403606101213 -0.8271951065432399 0.8400580785488371
Ni 1.728986262501853 2.764171825998667 5.827385920039929 0.056624947582896025 0.17131337496742755 -0.06772928502617367
Ni 0.966364927988485 1.0171036790797565 9.58372623745918 0.9824730253143596 -1.1440619739051714 0.2394686917874263
Ni 0.3533129705949105 4.621419787867283 5.113383423539691 -0.44077244246935704 0.40976802366804266 0.6356610336535633
P 6.935659777758181 0.755557431591281 7.3730502637607795 0.25667914212844184 -0.6680047400915915 1.9273670639336808
Ni 3.35919478083315 2.3851202346042473 3.634512577438445 0.955556917649806 0.2164290363591434 1.5605745153858994
P 9.014222953977187 3.6337258438322024 10.482465474379007 -0.9243570950082339 0.27403203158459255 0.09031539785680574
Ni 6.756464499402373 8.694027942747883 12.425792112491001 -0.954201689173492 -0.48276935572643304 1.7885418914019455
P 2.5121480239517866 8.536402895931152 9.802721144322291 0.07329032405371894 0.20524550893849813 0.3550410644388079
P 5.726372293804463 3.158512768608741 9.869283631720252 -0.912716425445512 0.45012534443916674 -0.058989076939698404
P 5.478282159788795 6.931577669423904 4.4641908911093555 0.17920974699636877 0.3092147501333126 -0.7017782369976107
Ni 5.29855806285332 7.725445687732371 1.8791679558717882 0.7602723765787617 -0.26532319095668494 -0.29692616257394666
Ni 7.728497991464137 5.365745855027938 12.3062327258914 -2.105199728076865 0.07647463531897152 -0.18303863382415575
Ni 0.03793763045573734 3.6967480300020705 2.757105139820897 2.083504502491618 -0.15604127929970546 -1.4299149093840922
Ni 1.578968781217183 1.687933241185547 13.297468826658362 -0.4016405094649018 -1.0951379945109592 -0.6381902278333202
Ni 5.5996599401009375 5.015677232806883 5.775529227916202 3.811123333155946 1.4617464520723922 -2.18016589717111
Ni 4.247489386928593 3.2031654672743635 5.848174984484128 -0.13131703708014802 -0.5265012493967448 0.25132764800854135
Ni 7.026356802930656 3.201606844092185 12.170636220049458 -0.18470290890045607 -0.2528343144610549 -0.8033833488356228
Ni 5.896364273370264 1.7089560991070725 4.158836199178938 -1.0367294726650789 0.08603528242421311 1.0351706128183915
Ni 8.292394870249762 5.4410236437195785 0.9987499633577117 0.7266634302750646 -0.18490474049861702 1.1898435510156606
Ni 5.752210184056647 1.3213506352485547 13.81621202075552 1.9284731525136656 0.6174555663891301 -0.7729533144805397
Ni 5.792270510846207 1.2829788169063534 11.258291501601867 -0.043783572843853626 1.553162024971912 0.08810990556505471
Ni 8.068166514951727 1.4181615454035041 13.273462318645237 0.6369252450779677 -0.8482182457621263 0.5976691277908223
Ni 1.3385047677714588 5.159024177972587 10.199963167105386 -0.3708762316988516 -2.4942901687908976 0.031187995567030155
Ni 4.170291151816055 3.0238959687670244 0.39445412834116095 0.628820356582646 -0.008349657516275942 -1.7944464298118386
Ni 1.7399615674096924 -0.5012309493431105 12.004204024501522 0.1717815728530977 0.5814565225867018 0.023128101377031137
Ni 1.2404321150404598 0.2748604149214766 6.909287502414965 1.5998105780683867 0.7283786131939585 -1.3714709063145862
Ni 4.7951227750097 7.774449542781575 10.039138304005718 -2.3145775140161815 1.2824426027003204 0.38444934239759593
Ni 5.713597150221966 6.428095993985576 12.118046603929349 0.43933982378788855 1.1651689310871158 -0.4540182517356697
Ni 3.529604248751321 5.359882463056887 6.110106249008678 -2.045582016414232 1.0297229594402588 1.2279740393387948
Ni 1.67401696277324 8.23237860021695 2.9745933776079028 0.052230160949310045 0.9536442740081256 -0.14276873056051542
Ni 4.509839067557405 5.560174819485751 10.038744009450703 -0.4219128865606927 -0.762586626534235 0.48391735328794727
Ni 1.4306490858988143 3.000006357492564 8.567192198042434 -1.0022088131803901 0.23244186684763193 0.3049161227579587
Ni 7.2612450274925155 3.3493606107551197 1.1378283220584142 -0.015592712231934435 -0.9335364475146568 -0.03920880898897764
Ni 6.807611461327071 2.9709306131297835 6.411061541457018 -0.17831114644149937 -0.378571029239948 -0.39102571006353304
Ni 8.91381236647292 7.926712183650098 12.699875999077072 -0.31169380780142447 -0.32179310101895553 0.22799385837860733
P 1.2400146266880907 5.295125380844951 1.3175654075204073 0.9233800758069453 -3.572346011008589 -0.014902371033129174
Ni 0.20868016130390918 0.5085555505474548 1.8044987724227133 0.8443402508639587 -0.25093555477644525 -1.3063548905415436
P 4.235567775088716 5.056015885164691 12.464015490530137 -1.0935634509349876 -1.0583753330696288 -0.04267285627817812
Ni 7.327022636788021 3.828117698214249 3.625550494140919 -1.7044033117798132 -1.3265043689062253 0.9026569843269809
P 7.040876120074163 7.11299955232568 0.5892579045642118 -0.3580312574153834 0.8809643298448957 -0.662809054823265
P 8.949781307409264 2.6178282422148462 4.85886675215322 -0.440902283179002 -1.1113164040430343 0.15557848073067398
P 6.483167346422546 8.914202022268464 10.31434848139129 2.1568737594123886 -0.8703410458030946 -1.2294686216064503
Ni 3.404413408154207 6.280425724993115 0.5129336117359666 0.13756970285807918 -0.4152097635089043 -3.1962483830097987
