# total energy = -381173.4912483945 ev
CRYSTAL
PRIMVEC
9.17913041655165 0.00000000000000 0.00000000000000

0.00000000000000 9.17913041655165 0.00000000000000

0.00000000000000 0.00000000000000 13.43458520534532

PRIMCOORD
 96 1
Ni 5.422286855234196 3.3763504334107064 3.2467365196220275 1.5961058755232898 -2.208837554074189 -0.32855073145776315
Ni 8.978649219051743 5.343484018941161 12.577176837242693 -2.1809361996782313 -0.8885642536793407 0.2714043641537584
Ni 0.15218723178656246 0.20537753993650448 10.95633421521922 -1.526396841062926 0.18258894788124683 -1.3956822134534674
Ni 3.257875394618137 2.292414436982556 7.266337478405499 0.6100849849566718 -0.13585991925582408 0.35612221331812866
Ni 5.596451679442007 2.964492022038289 6.919738096109999 -0.20387074007815859 0.28600385923448807 -0.8017902933168901
Ni 3.419942124681018 1.0394539294885987 2.8897794063453905 1.2234730661446478 1.2001906985779394 1.6592241441400133
Ni 4.09595755676875 7.283135287423117 9.773163555671632 0.6934602040502186 -0.771532265763297 -0.9965937809864578
Ni 6.431495549360471 4.6290814626393955 5.022008835040264 -0.3239258310912421 0.1423918068370709 -0.004095253115296173
Ni 2.7183352764505972 8.271957132462983 4.6410583922602635 0.9826347477032045 0.8729363173340966 0.9017779241561372
Ni 8.34494039994882 4.561009030030293 9.331837381299618 0.6188797004301664 -0.42672367768577474 -0.23929925608909752
Ni 5.571163174609471 1.6441475167310324 4.887529064114841 -0.7404399152338667 2.773442295210875 -0.5645034396721311
Ni 7.040806239300097 6.861684684562497 2.9858362544473973 -1.1796797231087812 0.2796627475078087 1.4229053108354786
Ni 3.6515132317282744 3.585065505237269 4.842845974214916 1.0590019109100344 -2.03641320543077 0.7899009980784719
Ni 4.003431920212687 4.27495978280841 8.74275841313908 2.418172145480397 0.03082906956571465 0.6786005133295667
Ni 2.964317618556685 4.731401231557097 6.859269655298816 -0.1357115666034179 0.24559588773108673 -1.707355966650234
Ni 1.1134744387334488 2.5996858341764244 6.553941480055237 -0.6867907624498429 -0.17144630100086602 0.00954419204500937
Ni 1.9307107952671152 9.15418173372055 7.497049418827592 -2.0628731993945117 -0.636594086990794 -0.934760549729745
Ni 1.6464514785143232 6.197932570970688 13.413399307531574 0.961077590357719 1.4569487735734328 -1.714315942907835
Ni 2.8858911266186893 8.592226178601631 11.252096818453367 -1.331594896055255 0.16900838098333476 0.6953826178839121
Ni 5.14243352117455 5.36845125420232 10.65596368841849 -0.03605689362355726 -1.2721473914218995 -0.6674329267485215
Ni 8.407266696795613 2.1451903611172103 12.17017602178947 1.6272745878166106 -1.2519935421818438 0.8337879292694091
Ni 0.9293227204211744 7.200917814542894 3.747281855129105 -0.3342871197209082 -1.946278813236519 0.059246187255827
Ni 7.11398226852876 1.353361838114018 10.339471854526153 0.8198957446683491 0.826557730069557 -0.1515765586601325
Ni 5.918795209098678 0.9790368918088366 8.20976760466229 0.4065181492721773 0.49933137385017234 0.3748730115630705
P 1.3623206695900811 7.502305389015291 1.6493373971783336 0.18922162270641607 0.14191178187685882 -0.43577627480634623
Ni 4.442818544286656 7.906453330674703 2.7268984873973388 -0.05771689509549415 -0.4214590868527258 0.16181983365469552
P 1.2990948179434385 8.145083189161603 9.519975596036128 0.42936574329431215 0.6090228622407446 -2.0597341395448976
Ni 1.7847901559484918 3.6992814274264636 8.66600619462448 -1.8365243328184953 -0.9924609897650069 0.058278166915602864
P 5.783421390851772 9.132574060262915 3.732597999891135 0.7724470642680825 -0.7363462047804673 -0.5172043974758511
P 0.6746725252793834 4.811865490490672 6.944404255887127 -0.5064934388162503 0.6473770365389109 0.9349513255843124
P 3.0014839183994924 6.057106349141014 11.179522940192767 -1.000437065991948 -0.41951070487710335 0.1962538469628491
Ni 8.800454756505825 3.498515482708785 0.5998919840199658 1.1212022956981789 0.47846430059317596 0.9182342699399476
Ni 7.238790907442727 6.694073759610741 6.630169570211967 -0.3268885132639919 -0.09074451497442436 -0.44311394611834004
Ni 6.455205243727962 3.4793953536466544 9.067888726849167 -1.5691283184931815 -0.9488139424990174 0.42541575750762867
Ni 6.410493698523142 5.9348036128837744 8.726004663948393 -0.7989811060028692 0.19075142908738116 -0.608491415217307
Ni 8.178945001984552 8.009911311788134 4.713940689309384 0.2442141768922117 -1.3134513923770088 3.0694325762341137
Ni 4.093497549765076 0.29316949883661847 6.557044944114723 -0.3124558827784296 -0.7796749494750894 -1.1726410710944448
Ni 8.836547098067179 6.611020985844942 8.402970863669795 0.559482846529088 0.6228317430993789 0.16423512796440748
Ni 4.00410199674727 4.766483868751271 12.68564754158264 -0.8342527847209696 -1.3868412181230696 1.027629824356656
Ni 3.0471317349266056 3.609114827437357 10.824312615471348 -0.6109820428496445 0.25128085393100597 0.08619469082021285
Ni 5.0635664309672395 6.861390952382955 5.415467679103492 0.26209054295200024 0.34553286783805653 -1.1940581033176403
Ni 5.929498075390778 0.9109415113732066 1.6875317596495416 -0.31412067207536226 -0.49517055760426326 0.3518732082337876
Ni 7.900890777524607 8.98995790796415 2.9087627663614217 -0.0708608886766199 2.0173371626359256 -3.1385075766549044
Ni 7.815662549804067 8.314566656757947 12.329577132322997 -0.841459586882054 -1.1549595946542819 0.5391456776336327
Ni 4.050667726335455 2.3167666704927976 0.720953701818636 -0.06326610704849749 -0.8781219753000941 -1.2165747963629177
Ni 7.142024512544512 4.878680382206107 1.8762611103973825 -0.7295937165479822 -1.0103579246500858 -0.5630785343001463
Ni 8.3952695730874 6.698929519703812 1.1757034367957673 1.533527024349804 0.816244263958691 -1.0190040303608578
Ni 6.00850285255725 5.544093918438457 12.7168161974844 3.0874773495509666 -0.48124109200736476 2.2214475295287164
Ni 5.03708463915531 5.525854985914956 3.1316421546333872 1.4726803253760765 0.9230095798414039 -0.5001117036596225
Ni 7.081561579211695 3.7182087947457694 11.495947766431645 -0.05728546398503038 1.965291864003912 -0.8862438330762801
Ni 6.252373994622871 9.048814493440089 5.92109182757748 2.124807475005463 -2.3660047194482217 1.2986330964172539
Ni 2.0489930723168595 6.076446777337803 8.726125828472455 -0.5479923293909853 0.5902170423881512 1.1252268434765396
Ni 0.5737580812581834 6.997976415870475 11.125072337409973 0.3580741948381769 0.009277568647184023 -0.13572545056048882
Ni 0.791163036033915 8.567727079001617 12.885795730810214 1.5783524081946108 0.18474121833755924 3.1847702071668698
Ni 8.677022987183467 8.726920741183344 7.1272626346963515 -0.42847408471797827 -0.3873454329984684 -0.0007235084295858508
Ni 3.0178686665396284 9.062812667621438 1.044744780372618 -0.07106169183351632 -1.0620173006975904 -1.7670852641900663
P 3.8740245368627497 2.1640259371304085 9.473317157228776 0.9034761377941666 0.9531537075249519 0.1381307175678718
Ni 1.3335716325173046 2.559866765587119 3.3775886981300927 -0.6131654236542086 -0.21325758060969727 -0.012311984598133636
P 8.076432471324026 0.7157390377186859 0.7424640764917985 0.16118682805638693 0.3936191818223221 -0.17727884852224304
Ni 0.4883829874478721 0.6790619855374299 5.22914326057566 0.5982057170205826 -1.0765221791819848 -0.9684764539249514
P 5.449383648797043 8.07522082608341 8.048821646446978 0.16761638573181456 -0.5387672112482915 -0.516522283807162
P 2.51668813519429 1.4480629286248214 4.983626300391536 0.7669425895100855 0.09473203886726266 0.4034330825889504
P 5.081851259143795 4.175604873077972 1.2302577637544623 -0.25944462068872093 1.260138025665849 -0.40734784426232423
Ni 5.088386800138628 0.4078737507743038 10.728483409808488 -0.4303605031074137 -0.3027669376254399 -0.35297389749713404
Ni 5.623777951270122 7.564191087592769 11.761334790648796 1.0324393299301573 1.278581062862385 -1.3439742435562143
Ni 3.918864589896119 7.088225628035079 13.022157223510836 -1.1358365006715858 1.0751435536669032 -0.10413096358365939
Ni 7.90017480533697 3.7944965492514675 7.001004611058952 -0.014135925180749848 0.2658083581232196 0.5501003768729236
Ni 1.3404468013447344 1.6496825324892967 1.014728105362501 -0.5073925535917521 0.5636290074869776 -0.2068215951763664
Ni 8.467344106642779 2.9377164980468176 4.8694461768117225 -0.004759111951540191 0.6270133852808943 -1.019236200976322
Ni 1.2574674606238212 5.150373469152823 1.948377867953569 0.3820836703788968 -0.4875076417423669 0.6637040558337086
Ni 7.473014783236482 6.293441424975235 10.860693181733877 0.1283247872210435 -0.4409002262964729 0.11412509868189377
Ni 7.146017434360175 8.288810016264264 9.485502453114506 -0.09260265122908569 -0.08322249556576636 -0.2588375832323413
Ni 3.469830699550284 6.050001702048317 1.5223936924843136 -0.27287889181675584 -0.7292463605108924 0.7040431217723875
Ni 5.005967386384968 2.6727884303602027 11.541437701912255 0.036815369056136596 -0.18935711984301584 0.18035980144041197
Ni 7.777697665598127 2.3445977945045025 2.661256688573954 -0.033347208001878056 -0.20660253718702484 -0.6011519441331001
Ni 8.552113377832782 1.6169405736008569 8.409257650225078 0.010723042844458953 0.17537134708688507 -0.31505886761891544
Ni 0.992814766855528 4.681007804504242 10.707485230623403 0.7035296724710788 0.32522372396705923 1.0389938432192236
Ni 1.5883567608790732 6.711229554722178 6.203433623945693 -1.6030177721517747 0.3430728363333382 -0.5390304922120072
Ni 1.698478790815887 1.9045410938959513 12.036797746537333 0.4884679487731071 -1.114886895003112 0.16400012913546594
Ni 1.2440751090627797 0.1176718648641313 2.890679879058302 -0.3895722654464581 0.5528529999173962 -0.2322852866651096
Ni 6.396275225207137 0.940759917162132 12.601359256836638 -0.8085659214778267 -1.3192703130516312 0.5472006867276255
Ni 8.665493999136402 5.445923116556801 4.878098425325387 -1.184083765713748 1.1518017657515907 -0.03964486808513172
Ni 3.61692626758708 0.19364661101600372 8.924232579052207 0.9741277386734578 -0.939121654911918 -0.5081931951161764
Ni 3.578493247719993 6.999637838511015 7.242450626817221 1.487400919415703 1.2600428948488815 0.44695234602782374
Ni 3.226941724460009 5.725904958444998 4.2718627441403525 -1.7001311667670205 1.952994020473166 0.07487875158676136
Ni 3.2677796765471046 3.455575509711835 2.4541094122557032 -1.281323658604529 1.899447454705277 0.17166433054894306
Ni 1.9636730532902127 3.8786967143436066 13.118537177010339 -0.9916438931803502 -0.30601089848403423 0.814600814817997
Ni 1.4799420492358537 4.417640189021449 4.956045766645504 -0.07952884876426303 -0.4007149123268389 -0.9372228952273085
P 0.06858554601024242 2.708798159746059 10.178270716479863 -0.07036826531091751 -0.2384235383523636 0.6862120071282375
Ni 6.037802637466669 7.473014783236482 0.6998756641972387 0.3157844329310303 0.39645819393301396 0.8690606364287742
P 7.9089775915926515 1.4537080939504146 6.199980435009939 -1.4204198254094635 -0.27378366301921236 1.5564921177864097
Ni 1.6920625785189933 1.2107824023376967 9.705170981498842 0.6245212149866599 1.6058765817568084 -1.3248213247768474
P 8.894696890486092 4.2412264778140125 2.9731277481168545 -0.5042691774714219 -0.7808779686442552 1.0641608294031544
P 5.1654364224850156 5.076114302512094 6.745519115031585 0.2847702439377031 0.5792924250558474 0.6405487007631677
P 3.8642028671092787 0.899199567495973 12.573616252478795 -0.23699271944310796 -0.3827169330875216 -0.42781716786026963
Ni 6.587834501922263 2.8623650148634128 0.2925205343024405 -0.46155826886645673 1.1818381642126807 0.8121950335899818
