# total energy = -381161.90613246436 ev
CRYSTAL
PRIMVEC
9.28511663426157 0.00000000000000 0.00000000000000
0.00000000000000 9.28511663426157 0.00000000000000
0.00000000000000 0.00000000000000 13.58970674821931
PRIMCOORD
 96 1
Ni 5.372201181488351 0.7828439432151214 5.996485050010446 -0.6046956956203006 -1.2326660454978253 -0.6175884924225686
Ni 0.8088682672892812 8.783292941075993 2.6743317057848497 2.3158214137256117 1.3713829745864703 1.121596960033436
Ni 2.0730972100619884 5.8603847432291465 3.669519760085023 -0.43652960803260304 -0.9322043589667945 -0.254588063927368
Ni 6.5929711372376865 8.88446356870267 1.26573313161958 -0.9638955194224883 -3.25284839089203 -2.6069631084072977
Ni 8.990991708456786 6.271260426333773 13.434729538678262 0.02202098435578143 1.1634210951580737 -0.6411202569959217
Ni 8.14267562440246 7.009000059910302 10.982833936927017 -0.7526166598057168 0.2740178905172055 0.721917173839331
Ni 3.233848173797849 3.537666465517053 3.595333537561931 1.4653367405268118 1.3972865818261095 0.3345300889696497
Ni 2.272086538317062 3.1013031380626446 0.10876863832664857 1.7617911056706625 -2.589029149636696 -1.203127155498444
Ni 3.707119838698663 2.1569046701352605 1.8809101580366603 1.125231985682862 0.589608719380191 -2.864248773771487
Ni 4.839319069692964 7.2741458420787435 1.1672208328006797 -0.2246362547602841 1.3804911075353257 0.6631926634149288
Ni 8.652688494655582 4.890006519786028 1.6761139180233524 0.2721486985189507 0.02551717043449799 0.3357390216760863
Ni 7.684993669834354 7.860175959796954 8.491935275483351 -0.5403846922470564 -1.5608881899715763 0.9100882437940455
Ni 1.7230111836269515 2.036959537271697 3.0117231211615914 -1.7862705788692654 -1.4472312891753527 0.3213009918738854
Ni 8.155693357509342 0.7328705185685053 2.025423708732473 2.0173009100813517 1.75867055776381 2.0469536999507776
Ni 3.9903715977276053 1.110759897368201 3.8283565312449426 -0.15474415775483671 -0.4945768898843224 2.4321221799025854
Ni 4.2508098259123175 5.240853925760841 1.7788658009625116 -3.636206042887344 -2.4596065013657835 -0.11818461346324806
Ni 1.230203633949474 5.004454863777071 6.151326435609815 -0.5494383178088924 -1.2126026990890473 0.7939435435789617
Ni 0.1714914562179589 2.6873076558682083 1.2086946619508327 -0.2697166920386903 -0.1897895793947441 -0.6584152966309436
Ni 6.557158443519249 5.954275839646266 6.475182936899606 0.7021739297741326 -0.739564711717765 0.6892554219402517
Ni 0.35638876340575937 4.1410133252069725 10.291661018812427 -0.8557063266090553 -0.5980869320545312 0.07619541351565587
Ni 5.182496969571995 5.438032656329863 11.645209995228704 0.42280017426165245 -0.25062573684551026 0.24783608991551512
Ni 6.999919216131035 2.052419255975663 6.925627143281682 -0.647798954567678 -0.8366346546895849 0.2452390186123002
Ni 3.273709178239967 8.901306769741105 2.1784164276688034 0.38891843391254305 0.5331498650615141 1.0474190911684413
Ni 1.8768655613595147 0.9367382469479413 0.6763826562986444 1.1115074370079179 1.0767198970150875 0.6196068084041781
P 5.639333978553278 3.54913358419537 3.201857233964429 -3.424927697491205 0.5088732519023365 1.2037678744062366
Ni 5.766020105878751 1.183016672716107 2.4155703696109105 -0.5431815382659033 0.8503895423818323 1.6166019385941128
P 3.0426861986163156 2.6438904518683617 9.768281295078086 0.884034227019471 -0.96293109862669 -0.5477282770963212
Ni 7.603191794890245 4.7433202518669555 11.869942308532874 0.9035830956856761 3.2463764100144417 -0.4923253748459844
P 3.2828643029499434 4.810869473231132 5.254555043430253 -0.6191594364541144 -0.23662556591167636 1.8963269067984245
P 2.758338795859404 6.867402035744846 1.94455127393387 0.12036285206148947 -1.2828809757893196 0.46440525139694855
P 2.3891068595339298 9.388181130078143 4.95592156067459 1.984534771393924 -0.5613422683353301 0.22284959517350653
Ni 7.599765586961258 2.4681046293437454 9.840184307493487 -0.9150239905327661 0.38570404074030346 1.6706758376203805
Ni 8.809467684034841 7.191211182941311 2.120374236923841 -1.646870764780983 -1.3581289377900416 -0.705211688159192
Ni 1.6790647279957973 2.117693623836853 11.584096287998893 -1.558976317660844 -0.5830891730941185 -0.43602515759235877
Ni 5.033164443496388 6.887671444712269 8.168038848193303 0.09333721540226506 0.7704979109615118 0.5641118606606671
Ni 3.1140237474466885 3.7347709151553663 11.492869091459351 1.5096887842796258 2.59933875909282 0.09879515319304275
Ni 6.081444793021353 2.000719728201679 0.3133336789431223 0.8756138641662599 0.3350803050461649 -0.6641881945589787
Ni 8.786041335512255 0.7651817949156112 11.937320683756417 -0.48547338492115744 2.881433255970573 -0.3749370320317865
Ni 9.387809725424594 8.832494772554863 10.179056698926255 1.3614649441418103 -0.08433963988934508 -1.9128228475709186
Ni 4.992644195794221 1.4394344455261536 10.161716744163698 -0.9384205150798356 1.0404190057015241 -1.0940632733895415
Ni 0.20502929643340964 4.32418081522087 4.179120371172706 -0.7301966402393036 -0.12270281304857576 -0.6734130555913563
Ni 4.261868399471731 7.517332324106116 12.494620794499363 -0.7944752477127156 -0.4527039037996203 -1.314173615255014
Ni 6.215354740858349 5.498813027883115 2.3086466839007658 4.253086710609611 1.3439104801978143 2.2800483698910603
Ni 0.007544157025208673 7.185342989415241 7.110691582563579 0.3261534348701802 -1.0836598186680306 0.7648666808176633
Ni 6.986195814182409 5.3970110123454065 9.67701231551502 0.20505164776013718 0.16459405396572296 -1.3144921749366973
Ni 4.2768731474751 0.2672720738100082 0.15542727644034227 -0.6437060154452269 -0.4268676594628068 1.6570443628798752
Ni 7.761549454047087 4.061941274466447 6.055545818017766 0.23082232896633798 0.4220478694766603 -2.4438001304611463
Ni 9.52801498213924 2.0843414859481766 6.233421720230227 -0.5222393887965974 1.0349428130783016 -0.57469452127252
Ni 2.761690722857681 6.687892881568404 6.335072388371615 0.8791285621877376 0.4997394079218684 0.1432289580263856
Ni 6.155112906052744 3.1169949846750784 11.612689803763976 -1.6069983540660775 -1.5542678564415813 0.6345145787539459
Ni 1.1498966627358986 6.239505328455356 11.182928194026397 0.1654988251681795 -0.1167100858002506 0.2927074965069088
Ni 0.7178806267512783 7.191053335963553 5.038940714370704 -0.0768682712129644 -0.6384329399717457 -1.3584667807454345
Ni 1.7823152216823457 2.5712901272159225 8.182117870097702 -1.1630050906665776 -1.3674497009703355 -1.5004765216527385
Ni 3.7472965370962976 5.801322118198558 9.773485602785938 -1.0833978232558954 1.620044131506442 1.040172179798041
Ni 2.5607422350551383 0.3002110240216116 9.783528384617895 0.015241242429786656 0.633450913376122 -1.1383194149944396
Ni 6.487510785862523 6.772870266300355 13.26129749314551 0.959222025206219 1.6632098682606389 -1.2652933446145436
P 7.966954797692215 6.072596077150554 4.774457889508847 0.7112661218833879 0.34105426324141264 -0.10402631968499504
Ni 5.934572822775506 8.01596164172797 3.8314410468926647 -0.5487605750155774 0.47053733243661544 -1.0591250667514598
P 4.2457401523913765 1.8025846306497677 12.412905271137205 0.31757006407654337 2.0037488824285297 -0.7887841108652093
Ni 4.498425308433259 3.826656426443323 13.438588433028633 -0.22215951108501739 -0.7631622965320469 0.0503429712289262
P 7.632737035080047 8.626300194020946 12.833860876539145 -1.4324924403032813 -1.7447953424436144 0.13087532155703913
P 9.067853901508697 5.4676521774503755 8.584807794638115 0.08051435260598393 0.4802077656468439 0.016813986233545235
P 5.921657225948349 3.7074633880031955 7.659579377903648 0.10621458558556546 1.1267036851323822 -0.12518469893016504
Ni 1.6874677582823374 -0.0480950456112934 12.116799197048943 -0.15901218900257133 -0.0383163790816953 -0.3600305472335993
Ni 1.9497258692694377 4.746467906305781 8.713176385044163 -0.7392520655733527 1.3647842383230302 -0.14564630921862656
Ni 8.125600295455557 8.359399524864486 4.071204106525952 -0.9508839376541688 -2.7716216970623684 -0.9718484557209779
Ni 3.594472807277332 8.883971457536719 7.224723024831014 0.6492901944012237 0.2522555591394494 -0.16789792152797536
Ni 0.6416201092381166 4.216612742436817 12.698507093111479 -0.5725797889223624 0.36866122632540377 -0.38162935645029755
Ni 1.3123861986634702 0.0852215832916588 7.467408110576096 -1.387015796027721 1.2365630665593865 -0.18424859497185686
Ni 7.219020106375773 1.065819934288804 4.433302287968389 -0.2510556252940773 1.4728942411590957 0.18064467967068246
Ni 7.421853472795076 3.013985904013337 2.537361383602612 0.9941741158013716 0.003013847125659326 -1.567221845499088
Ni 3.9516526625951505 4.792224959622985 7.514849483997144 0.496623488000706 -0.3794092088705272 -1.2285219414224648
Ni 8.522631870099154 3.327117167420275 7.944976927318468 2.1226726880506477 2.3721514557759082 1.7388272977856376
Ni 6.504771817136201 4.719476073109126 0.36593850556013124 1.0179640191321178 -2.338895521936256 -1.2103797232957991
Ni 1.8676640110678446 4.7393276518413066 1.2301442092049062 -1.5254658446082243 2.7295101126042995 3.281720850952006
Ni 4.930721754931309 5.72002163953674 4.217674031234333 1.581206332703638 -1.9449156143404056 0.610970987106051
Ni 5.166637990865465 3.408194803289964 5.463822995472288 -0.2546330582326905 -0.1895746351704606 -0.0883796142866736
Ni 2.135381770462111 7.421379931861801 8.370552806610554 0.01897448421997377 -0.8763818526805358 2.377345598382338
Ni 2.1115840172859763 7.934958286788992 0.28454981829309534 0.5579247580133488 -1.730920641344051 0.02685697229184407
Ni 5.140249690230827 7.486747150886377 5.996892666617716 0.17552304217340095 1.843434172564451 0.03593630888529294
Ni 7.959322432061788 9.296815585305152 6.561083262195626 -0.3319309607839057 -0.8700561675728242 0.9202590136794602
Ni 2.9191755810786835 5.608005996026442 12.990835053361518 -0.06074745439170183 0.5960074238176832 -0.3061358540976728
Ni 7.002825457545054 0.10506016286096445 10.125758274118743 1.7295911238993502 1.256606615473823 -0.9203721422185569
Ni 5.06814147674434 3.9602971059064966 9.651300899861475 -0.04558360216706989 -1.224079075159763 -0.4263171862759755
Ni 4.2083489888953585 2.0709523481877445 7.6252931573112965 -0.15557128164182238 0.5639727639796417 0.8126087240886327
Ni 0.3602439437095952 0.15059344487440546 5.083134154096469 1.2186301362300498 1.7039487407408977 -0.4092584310214758
Ni 2.6028688078839037 2.1828194298366235 5.672220932113384 0.2821024672975529 0.04695734258614494 0.4400772161745453
Ni 9.391430920796692 8.981650881420036 0.41579215220597787 -1.8904604207153182 -1.1045346052345106 -0.39068863843908846
P 6.163070250755026 -0.034294577197056295 8.010099019271705 -1.579736690136647 0.11738654304198494 -0.5618348917010324
Ni 5.671488336434259 7.681632457719737 10.333884156851116 -0.8201996490620133 -2.5564075069469325 -0.05383581487353308
P 8.890740307347643 1.3198514321997998 8.682558713917238 1.659761761811038 -1.686757573673592 -0.7230268619637419
Ni 5.534180036017292 0.06180173435050945 11.82460772800908 1.2755571884343968 0.07892901039673503 2.1011540972525813
P 8.160512332889137 2.9388693128331056 12.541423351916308 0.4983325002720128 -2.46955667059996 1.0580467460856164
P 2.5698323639507437 7.8052544966534345 10.951985066403259 1.3085655250396173 -1.647896120721704 -1.0747663728331425
P -0.3345102437768373 2.249068734913379 3.7520904426619777 1.071058327853936 -0.5616428302948844 0.8344669576143048
Ni 3.7071384089313404 7.432633492864327 4.368723375320969 -3.142293268949582 3.52776591040537 -1.75017306181576
