# total energy = -381162.80959884496 ev
CRYSTAL
PRIMVEC
9.24534886154443 0.00000000000000 0.00000000000000
0.00000000000000 9.24534886154443 0.00000000000000
0.00000000000000 0.00000000000000 13.53150259306315
PRIMCOORD
 96 1
Ni 7.2078772219804375 6.8187682324425705 13.105801330461613 1.2839063317300405 1.1793899597825044 -1.129900594803125
Ni 5.730276351950942 7.543954891538518 7.3482142185350305 -2.0696724817045324 -0.13696446517391248 1.6108742920817158
Ni 6.904232235562014 3.096211797996871 6.715102911393523 -2.2337708269807592 0.39527368670660956 -0.47942615028581304
Ni 7.2578390862012805 8.249116125411975 9.080247084004498 -2.514943069154559 2.077994371306666 0.38158487636560734
Ni 3.2186387051050143 2.350537446244855 4.675797184686933 0.09139320430201679 -1.9341925714959463 0.8680900449853889
Ni 3.769374880118229 6.342586549116417 4.0441327746125175 -1.7759236884173026 1.7607390102570644 -0.3104745906823427
Ni 3.44824693936198 1.7590570196362927 12.755836222664056 -0.7159496434019863 0.43157509224080515 -0.3469372043847509
Ni 1.3458361607631266 5.513204810492544 10.438119764203066 1.4923868026660687 -0.2894380817270176 -0.7629216412761506
Ni 8.880305324564675 6.834402117046095 5.755137094528633 0.3743929866028584 -1.919035918360166 -1.0786970753461165
Ni 2.2480989829645175 4.319602560954511 13.122783186901444 -0.08583936436332314 -0.021080474819383053 -1.2836983294842925
Ni 7.839796803678186 5.6043639483936385 8.825056045438595 -0.06988001282058934 1.111447787414576 1.2874336281570085
Ni 1.6477430216313051 7.862716023034861 5.672378280430474 0.6011763696131324 0.3760400352879782 0.03825930059151476
Ni 1.2399861638230016 3.5278216553776716 4.166322076259802 -0.2226716748347455 -0.4831452510086131 -0.5458577995464858
Ni 0.8722089672749115 6.453660168055945 8.220536903598601 1.2416715914305454 -1.593594421955346 -0.8281052770623352
Ni 6.25018853449334 4.980598764224162 5.720402319569768 2.3709304388846135 3.724315948452399 -0.40205034330881084
Ni 5.738116407624382 5.662249076425966 3.482765373161932 1.7492196967635552 0.07517468556062537 -0.935438549633376
Ni 5.396574737001438 1.4017520295284227 3.339628885029605 -1.2868520446219256 -1.022031761443588 0.16399087316408534
Ni 6.50050634977449 7.38642339552465 5.2571511808955895 -0.04473308124131651 -0.7170531608788102 -0.5526730226961063
Ni 0.22435225353721197 8.546150687530268 7.606842677737001 1.6567962514248111 1.1274356782024002 1.0962942196025895
Ni 0.2841289799077309 8.395109426283799 3.7281859272517823 1.12558345548501 0.8241946291540193 -0.8398192230651537
Ni 3.3864325381442604 4.1904265493161645 3.363714867388624 -0.2894457950365015 -0.09946055469118355 -3.7394126948845217
Ni 8.084132878368868 6.635303533405113 3.456392091541581 -0.44087348682359556 -1.642533313747894 -0.5868671520793118
Ni 7.5397205218469665 0.725422415487072 13.068467687991188 -0.21814190528519206 0.4810024936339974 -2.6358116572078734
Ni 1.5745475961989557 1.1667537569959663 6.398249095328113 0.2540956976719817 -0.6477326201061167 -0.4428491224927277
P 8.02795813984077 2.7302808975784814 9.048773143522075 -2.927884605454577 -2.011277072484775 -0.5246963349775221
Ni 3.5416157155955656 1.655509114515374 7.994682280902269 -0.19165260074541185 -0.8339223979647444 -1.1586871800175143
P 2.5790639747072537 5.098116391187733 7.601645867248744 -0.13015618400282747 2.6871473313673726 -0.8403732957964106
Ni 6.17374799167729 6.528492020203152 10.256256359555513 -0.18700841710518115 -0.006745289143633545 1.3725569402899136
P 0.24479279491505476 1.2975661953491697 4.534108518156564 0.5191268113095447 0.5370114048994493 0.2090520271687819
P 3.034905890956084 6.67187813274961 2.047032064591372 0.4485577428417307 -2.623866569030855 1.3240911314790422
P 7.718895379100843 7.566069765560772 7.212831804333499 0.2777932983992377 -1.095001726043411 0.15178044714082248
Ni 5.551184702835109 6.167230020863875 1.0546982820275235 -0.5344878671466473 -0.9379368905751976 0.9002846274400624
Ni 0.5748637614412562 1.2125459689659581 8.842742397447195 0.6727594811677574 0.510763526946514 1.4596471463412022
Ni 5.888029736332927 2.6539328082491465 11.9859751142525 -0.39253931849458207 0.7017723234603398 0.3265990070480311
Ni 1.644497904247605 4.6399631377710255 1.7429793582965358 0.14955618579599406 0.7968049242871568 1.3965664158306335
Ni 4.046855529796277 6.4644587353042695 6.326964683466166 -0.271099688429146 1.414684979808215 1.5371903321340041
Ni 0.7419318346097885 6.479750542006948 12.273221625732265 -0.06497743331264938 -0.07214206938188866 1.5904219377646351
Ni 1.262082547147912 7.0579916293179075 1.272663848702456 -1.9212167280615686 1.3361112958683699 -0.7168513292806492
Ni -0.2543719006736069 7.459406177937554 9.950011581090662 2.895533699927697 -1.2116601326701197 2.0643238157981094
Ni 2.8161609413881434 8.13690532858585 7.889448024183666 -1.590477730703235 0.02165434504498206 -0.5741666737935078
Ni 2.840217338631414 3.688089774598308 8.976135212614617 0.9277630353659893 -0.5984270890027694 1.2349509848772602
Ni 8.970373511322531 0.5263219827763569 1.0434790514146453 2.8513804024492506 -2.7101149959071393 2.1488076945748023
Ni 5.707246188410209 4.949146088043682 12.476640560807443 -0.7432599011811651 0.7524886188682847 -0.6942976123498494
Ni 4.38710285160521 8.569809534780664 10.729764288045866 0.6351488699038351 0.12519575467375857 -1.3642355649084117
Ni 3.6002682075676287 1.892615326544935 1.8252509425197072 0.33868010658228126 -0.031261272007126806 -0.04229181878967555
Ni 2.028161383417952 2.885519547121816 10.987160342269924 -0.9224220827690501 -0.19705551692853807 0.20025731169528738
Ni 3.693109998926938 8.86484710158591 5.814148306029152 -0.2563868076990036 -0.44963220685283206 -0.8334277177165131
Ni 8.362325419894622 -0.08449601511353683 5.729670781612957 -0.9135749167910654 0.85484397860876 -0.4924418458191906
Ni 4.360069452089713 1.8537941074732618 10.365847949103 -3.1781892115152424 1.0571471170894824 0.08958314767647152
Ni 0.9813475347374927 1.6365653950874488 12.803385975416502 0.49443907875487747 -0.27460153093481743 -1.001616688122346
Ni 0.38573813541223384 3.785156690300498 9.402147935909685 1.2640077930339004 0.7408412644373434 -0.6135947978821432
Ni 8.715488493797656 2.11781352948559 6.973202536651483 2.302985438303208 -1.110791641887816 0.025935488918839202
Ni 7.437152623685229 1.7753103426008083 2.069914302553361 -0.14999121645088362 0.4114495251355237 0.3304896003516889
Ni 7.917115654618029 5.024773040176639 11.564819897149446 1.054040710250017 1.927603091203887 0.10844656023987775
Ni 7.097755873954075 8.922149772651933 3.6895126337588535 -0.3671687009402773 0.25618523321115877 -1.6103181624679297
Ni 4.075432902539916 6.429723960345405 9.09888015971706 -0.3689013673606679 -0.38221273975759334 -1.4231109990883812
P 5.203578083483654 7.542623561329822 12.823683213889938 -1.6597381076619546 -0.7974579844901234 -0.22376979299493077
Ni 5.399533248576321 0.9302484926300535 5.755895213119698 0.9670044973651153 1.5536528485654015 -0.6160067497577455
P 4.921456268772508 8.128787912452264 3.9141903235693025 0.47719674673466206 1.9576762564401835 -0.03801658845308937
Ni 6.213281102596669 8.729670858659754 1.2858098099784767 0.3467212317192029 1.7303958791888325 -0.042312387614965835
P 4.670546751176382 3.0692431159220748 6.608095396799725 -0.6401488942215878 -0.7905378603315224 0.05340386954243705
P 3.793708637821645 3.9350237922656848 11.60080094510923 1.4849141484381072 0.06575442068798998 0.23111517761640843
P 9.441997237753629 4.410373394211402 12.748177375824577 -0.09017604406546405 -1.3977275260182702 1.526337191469584
Ni 8.437249725528545 3.8295898360157774 5.191198561612501 -0.1136648712160236 0.5196088931522858 -2.7823005169324535
Ni 2.8830787750725366 8.81233352113173 3.100595017802034 -0.2110091508951527 0.040470449310220626 1.1154291406598273
Ni 3.8629932807659455 6.258102552956154 11.354513177313992 -0.19814180801418135 -0.9511683016638072 0.9327877422740903
Ni 5.610410406424807 3.514249483527894 2.2514254594165273 1.0819510635070397 0.47861239613526596 0.3559648618046579
Ni 0.4406601291953426 2.74814291121184 1.0783469593943804 -0.6923150347021819 1.5129474004262395 0.3285435323689116
Ni 6.618403036033593 4.056553900552691 10.198192796293824 -1.205018458983886 -0.9056600328193628 -1.443248650378521
Ni 7.367544393537425 1.932342589786416 4.492851149709948 0.3363604573101691 0.16696435397011244 0.2576222227680015
Ni 5.777104042972143 4.981495563045298 7.791831010235523 -1.2572347359761251 0.5679276348623316 2.1567516320122273
Ni 1.2628591564363187 3.756930640806376 6.49466144034436 1.397668904866193 -0.8913035069873746 0.5895603826407588
Ni 5.331875786998207 0.44535676632047 12.610196094111483 -1.1555661178900292 -1.0821459531266653 0.4674975171690271
Ni 4.113274114652409 8.16516835947466 1.2571039268883035 -0.3440076894427817 0.9060544400443041 -1.7493541654588907
Ni 8.598349926129616 5.582128884838656 1.158434792261341 -0.18964971138277018 -0.1638324932093501 -0.25653721723393885
Ni 5.649222380147807 2.724687461632217 8.558553322773099 -0.6174169998417108 -0.24991302704920187 1.2082714187035448
Ni 6.327396441249125 1.0835733549983853 10.395725217869852 3.2675039360216758 -1.8894661751228494 -0.7804856183018429
Ni 2.192414247916009 7.75652394819389 10.149574281234953 -0.6744109007282514 0.9588543574541551 0.4032939859079248
Ni 7.360823025053237 3.516385159071013 0.17071351414970892 0.9967130801731415 1.0498035322402177 0.382401972950264
Ni 1.4808922141565535 1.6551762819631997 2.8297756418418096 0.15226124343198294 -0.9671862743586183 -0.31617986859723607
Ni 4.307981157674422 3.640235849874569 0.4332194725845108 0.008090490317618325 0.6328976119758133 -0.4888762399551194
Ni 0.3032086059611273 8.694547779056684 12.321082022200073 0.27079732669737877 0.4631466963994991 -0.40444326902101957
Ni 8.422531130443499 3.862910072627902 2.8343086362954515 -0.38525178369423324 0.39546934765718345 -0.08128465511310516
Ni 8.642117406740548 4.741671218506313 7.035650244253201 -0.25363958397116965 1.304396224153276 1.616890930589441
Ni 2.295694037925454 0.2827847062108933 0.6572222519419397 -1.5736776284267608 0.3868664364795208 1.532940812829031
Ni 5.19449915108823 3.6691553005190545 4.6021718505413585 0.07050144845467214 -2.877148769662606 -1.5769786677755357
Ni 3.2096799622423204 4.7142402689979415 5.482559253251088 -1.2191356151115584 -2.909129436334261 1.5148063080118492
Ni 6.689582975455553 0.884722546701801 7.631347474390839 0.45389920965930214 -1.5816264509601923 0.8117435478748599
P 4.60933329762231 8.991831965589107 8.42898900649055 1.0433122680889193 1.3355813915068289 1.4200141053306126
Ni 1.292009740797592 5.834055390788648 4.350148268430315 -0.08491633832842149 0.22187334730316627 -0.663185207215761
P 1.620580187234407 0.7323407098979633 10.810912562405449 0.04251936141944935 -1.0525579550569033 0.2907295468449315
Ni 8.417779021226343 2.5449116567146937 11.626537222206114 -0.13691175755910615 0.696520073922465 -1.2121774386261703
P 5.930197771623686 1.9751762901815246 0.5528080576505005 -1.4275788050517477 -0.3473645217301566 0.8053867524188968
P 7.954291201626174 7.7656860887273575 1.583172581974608 2.5442580160685924 -1.1953441691189155 0.9207169271524852
P 7.620238263427153 8.309867311532471 11.314947707674262 -0.6499769360556031 0.673334379834621 0.6565093378574822
Ni 2.880508568141857 8.158114158438297 12.5196305075951 -0.1553203419732809 -0.21261454770905963 -0.030024571386548293
