# total energy = -340857.4919843608 ev
CRYSTAL
PRIMVEC
9.37379249639392 0.00000000000000 0.00000000000000
0.00000000000000 9.37379249639392 0.00000000000000
0.00000000000000 0.00000000000000 13.71949283593756
PRIMCOORD
 96 1
Ni 5.84171010314924 3.2207789221712915 4.208619190950611 2.16364244559479 1.1310815024851038 1.6151958022752053
Ni 8.968563622664618 6.953273186756394 10.132366852878697 -1.3546821168920218 -0.04570187291248903 0.17374178190326206
Ni 2.543616138951404 4.049459690274433 9.612439130697737 0.9339560515505786 0.03791862942264437 1.1338166420280795
Ni 1.824243167292436 3.28524249443324 0.3654710532924545 0.33497566114750055 -0.2277604022115626 -0.6499285993161711
Ni 6.095027476539803 1.8678594246335507 8.201540850674231 -2.215186379110353 1.4650883719614316 -0.9345828865013001
Ni 1.7368700457200028 2.8694397987235534 5.275488031058424 -1.1750468523224602 -0.32535279334575584 -1.2846601791769294
Ni 4.190075954270578 5.003552430646385 5.347597806009636 -0.4118645011857552 0.47753458969005497 -1.2669527345948373
Ni 2.9791319206676166 7.567190990762763 5.632427995632598 1.1703916129386358 -4.076424926846077 -0.8640721820752474
Ni 9.306207635006539 4.971090986594745 4.721563437584801 -0.016881863357003184 -0.6893685504793482 0.5461118245388209
Ni 7.548612133670545 4.300846062372869 7.389950381385686 0.3962777024910917 -0.9518846110045414 0.30284252805838163
Ni 7.115955358721802 1.9182623078751528 0.6322323201450045 0.5143658995857916 -0.047647940895266326 -1.0847332542378672
Ni 8.926119089408532 2.1414804329694936 7.829385345821504 1.6713283836027153 0.5320849141321095 -0.478512380222292
Ni 6.706470599278592 8.971038303932199 9.258558772054387 0.5317383294259681 -3.3341281609091293 -2.4948336999991936
Ni 1.6645793565700613 8.456848280250806 2.706828867582514 0.7223989985717559 1.3007665978204888 -0.5146901156944297
Ni 9.305626459860365 1.3423271118090796 3.712522461900602 -0.06073537020684378 1.0722461775144503 2.2316481242108015
Ni 0.575080306173636 1.502581471470309 1.576149808562566 -0.9706606060604637 -1.3033888659346842 -2.278546588534553
Ni 9.339756439009085 9.181020633762053 6.79953173824939 0.1162254328543482 1.6292677069872394 0.2837109494352533
Ni 8.092451463599508 8.6894776931961 1.9404575741834038 0.8470622777808121 -0.4101896845864936 -0.0956326963046611
Ni 3.6912402029994054 5.682018171048826 11.612810238176106 -1.189178920848468 -0.2276094784559951 -1.135166728298071
Ni 3.095048240951353 1.4116556824720683 9.307688694250015 -0.3904551822720437 0.2519115455364694 -0.707265228254111
Ni 4.160295414925485 4.084330199044892 2.860459705335892 -2.956599714001082 2.3287676894736347 0.6246469419312468
Ni 1.5008566936171466 6.464851719152957 3.8362312160394145 0.4421451544471676 -0.4244508224911981 0.09015907478459956
Ni 1.7180755913961396 8.026366225203878 12.541715597616276 0.8209558105017475 -1.6083615529621913 0.5659980219397865
Ni 7.518428521240201 0.3114939429018803 10.837604145175877 2.8430855094303102 1.99140475904088 6.2384869153276234
P 5.973018191013916 3.243594733554974 6.475298811095074 -1.3688064721085458 0.0987650712860557 -1.246181563485757
P 4.994853551039132 7.225169417239174 6.484395139511971 0.42966090593722783 -1.3919800820115316 -0.18660218280569799
P 8.001347572540341 6.327347554326649 1.990574556748259 -0.36861288958597166 1.7126223572554957 1.6210404339814404
P 2.2883583904760334 4.097744096370303 12.167063851772804 0.23984818661403204 0.08134996113340183 -1.4758232418804325
P 3.95926505710525 8.005387677185523 13.56974506513282 -1.7049923515140637 2.56135610920146 0.6572169054474681
P 6.240246272741942 6.959937953352037 10.461264179270694 1.106980752782158 -1.7836118010901796 -0.8699844337946243
P 1.7971529064465683 5.248480259588142 5.891658357445852 0.9377427722865205 -0.3091517581058611 -0.006948920514007388
P 0.05258697693609594 3.556791894586852 9.424290238778678 -0.5571997069218662 -0.68814444826426 -1.7550244763707903
Ni 1.7859137290229712 9.34275605266676 5.248446513934493 -2.3958264307953447 1.5536909008921886 0.35085145183749256
Ni 7.575083724199517 2.321251028990964 9.749085593493804 0.8290594134454884 1.1053511875985351 1.8276771668405105
Ni 1.4084310977900687 3.2778278244231775 2.592517340605633 1.360449358393102 -0.04736691931973778 3.358605834335519
Ni 3.909049649717253 9.31481277668699 1.809601303125915 -0.8297451266586032 -1.2551899376319544 -1.028983253060757
Ni 5.71507016403932 6.366576876693416 1.8718873433482461 1.261235886715718 -1.0521396365725622 -1.2997944637152066
Ni 5.910776207617183 7.121439027439738 4.088340307553495 -0.950764124246853 0.8598118641369967 0.7786542215200589
Ni 2.2802969287710346 1.0031926664310022 13.418500794995827 -0.6635513323059282 0.07884493532336098 1.06711117028073
Ni 3.8622931718282607 2.2679422700184904 4.472677993373451 -2.3454652047339737 -0.12205515216224787 0.6494534594519654
Ni 7.16331175934233 5.223367868997803 3.7576732091034706 -0.08609544623818721 -0.12141674724730059 -0.8032079996000232
Ni 4.715345800900003 8.680178890857311 9.385011235310705 -4.590325970980307 0.5380102784776088 -0.8773465305866502
Ni 3.2558181592099946 0.12178993877716934 11.495275063896493 1.9818613383268189 -0.5063903375794827 -1.6360711030623178
Ni 3.8616651277186853 6.953479410195359 2.936808309337106 -1.9274945906504806 -0.013671841060137744 0.33761901230761854
Ni 1.5026002190556693 5.686161387413487 13.413699538385012 0.5807121882215095 0.48985223071514344 -0.8238349318217554
Ni 6.219370836443067 4.466377867313067 12.555380712585517 -0.9639443703825528 -0.5721229038906018 -1.474446416137564
Ni 0.5506409538977377 5.082929707062582 1.7154987357883442 -2.0541993257695976 3.5282515917925363 1.5080502202349384
Ni 3.7741420254633686 9.154661528745244 4.155374173768363 -0.18577891557345425 0.004402499943069837 -0.3469834842416541
Ni 4.143338223966946 4.596861061421883 7.552334466743864 1.346187192047133 0.6041256820494435 1.4210492314633463
Ni 3.8947921110506214 2.2967104397541194 6.77753894586303 1.9779216369527808 -1.392434395940131 0.40776796251887837
Ni 7.7560916608547785 1.9066856739150677 5.795374508551591 -0.43968563716308146 0.1158852759061101 -0.05787836037402291
Ni 4.929836925009049 1.8963276330034124 2.5813503413856735 -0.3854939816120264 -1.100674350948156 -2.0744866152637242
Ni 7.177081860789588 1.4650581793713442 2.962957441397878 0.06665533523570456 0.0745427084035813 0.0597336684152068
Ni 2.1692643544736985 3.5189498935367594 7.350795111981094 -2.5430004895124076 1.1953020030270705 1.6149057818386123
Ni 5.943790705436957 3.7572598248462725 1.7677013872245504 2.4751891862953888 0.7167685397588559 -1.7504078035343853
Ni 0.5036557554673479 4.776950366394481 10.979998617643464 -0.25617289191598464 1.3334586887368711 1.6724244448803713
P 4.126146688191403 2.442979100736444 0.5801880858050938 -0.6779628797455678 0.007208087712665006 1.0200031610493336
P 8.040473783187625 5.659239854835864 11.966086924570849 0.7853522023655249 0.4569547086561743 -0.42259062935400765
P 4.560368886517744 3.249650203626403 9.26462267853923 -0.3111801013897995 -0.7415187501203423 0.27992397158899535
P 1.25995959552789 0.484021409319336 11.423700532507322 -0.3591769409840524 -0.8642501024140083 -2.2631958171100957
P 2.016921475834584 1.3203080728032173 3.55987962189572 2.087984906860475 0.5901828467161061 -0.8752130291834153
P 8.167441805041355 3.2164669775383854 4.157349231886088 -0.0005700135708570828 0.5038439170085453 -0.6536736681809
P 9.225771120017477 8.65948155661936 3.863478019223042 -0.06800747838822481 -2.390380062968793 1.4355247993717017
P 8.542281026738433 6.100286174233413 7.874302685586636 -0.296466963549341 1.8258763661863457 -0.09766103958859955
Ni 5.6064185330827625 9.227008460651266 7.067281002850435 -1.363020204444072 -1.498270515140355 -0.1345499421951489
Ni 3.8063222557346013 6.896617983797078 8.44422459364834 -0.856295623453622 -1.740225720795061 -0.8544102335054512
Ni 5.451882186956475 8.464572285419317 11.482969148865886 -2.7230124206950976 1.2573216392629765 2.184103027441987
Ni 4.43768468791888 3.3164853454364502 11.483325352987734 -1.4885082935472689 0.4934345487497631 0.08889512047051142
Ni 7.382414789450049 8.790320954850024 4.939154474933199 1.4963519579614035 -0.23403363681478404 0.4951656725082568
Ni 1.1111787581072634 5.533162343286757 8.457065752240988 0.35359379046932005 -0.3359732491740795 -0.47441815554826033
Ni 0.15252004332077065 0.5022571855994574 9.45883547694313 0.19495029766007715 0.2063138023020124 0.6899861294586891
Ni 3.996441518875047 4.552476153080989 0.4130777341775437 0.14447002952233828 0.3858418518697484 -0.9140827096654193
Ni 9.198662111586248 0.05880648837942921 12.710822567084717 -3.492857785674275 0.7701027324056221 0.7818058797751631
Ni 8.537781606251922 2.714097306426765 12.371237242278719 -0.2510623101622967 0.23381920681113283 0.25613201137572017
Ni 7.241357957197932 7.775870363410065 12.42258969071883 2.767305329075202 -1.4499743991381286 0.7288246995924416
Ni 7.198191641905469 6.497566255606963 6.012266260966045 0.1130066688067344 -0.06158126314690685 0.6831464808290364
Ni 4.72780357137203 0.7030044548807486 13.333646411516572 0.6788545383219018 1.4273029256825418 -1.6261618143684058
Ni 0.5670704003283786 7.092127177728655 6.270302401591835 -0.25330894010462823 -1.4279652418568891 -0.3238728663661196
Ni 1.2398340626434339 2.421128789998825 10.920305368476484 0.325231180166227 1.5518093675987596 0.18440003294805662
Ni 5.203326700247469 1.3057693203561789 10.521369875315605 0.9300243205963402 0.6009645107126425 0.12233437396556351
Ni 5.687155009437592 0.8589862398383284 5.068625299432549 -1.114438494611784 1.7872321714515864 0.1536144150257677
Ni 6.0806574523610095 8.692627287536657 0.6690244564149112 0.6227168147880695 -1.2362792167703804 0.8294772177091971
Ni 1.016822160988058 7.94323005792291 8.62801092245402 1.582989906966622 -0.46786261381792976 -0.37208156486086247
Ni 7.340551431340138 4.839623544254506 9.93912799153427 1.123459981384104 -0.5709769632116166 1.3071100235400133
Ni 5.040906994477106 6.441089154708572 13.127894474323305 3.0080356611838712 -0.39524463324088704 0.5855602603424302
Ni 3.1057812335702177 8.941960799038123 7.325798019040723 0.29547606039098145 1.0537684304252368 1.3224692796049031
Ni 7.557620348436247 5.168193725281963 0.33932848288655826 1.3947237061949398 0.11189826623390406 0.9044770682548552
Ni 6.349179117478906 6.2052913998373604 8.466518284779733 -1.0768170847145841 1.644707181470761 -1.4335730749619697
P 5.66639205865088 9.243225121988067 3.1996878886407716 1.393138621096007 -1.6005855085611984 -1.3394753272445965
P 1.9017081900018649 1.3072878747703762 7.272895145291302 -1.46058637032602 0.18483480649263007 -0.18606610779656987
P 7.5209594452638635 0.4145484822490719 7.673052043638416 3.0898270807300654 0.4267434751801166 -2.1970575307201257
P 9.022500425746667 3.5943058128931367 0.766528773116138 -1.2454801665433584 -3.93699348818891 -1.470088139168868
P 0.6954744872207189 8.828828495180414 0.7491094541784646 0.5558784170072814 -0.7426451504153017 0.8438193453634821
P 6.3234105614009515 2.3390987302541237 12.146059057134941 0.8017846368899353 -1.3070287766801167 0.23823610493190583
P 2.5671912275421844 5.570601271251599 1.7574398963775015 0.9660159081996009 0.39535056269113206 0.9851593138972712
P 2.964818139244904 7.460845312805542 10.42014697505813 -0.41602686009356094 0.2444337491021855 -0.1169330004443341
