# total energy = -340869.4905357713 ev
CRYSTAL
PRIMVEC
9.22232584080400 0.00000000000000 0.00000000000000

0.00000000000000 9.22232584080400 0.00000000000000

0.00000000000000 0.00000000000000 13.49780607499693

PRIMCOORD
 96 1
Ni 5.70237613010084 7.311607418714859 5.381669751841812 -0.41239363421634784 -1.474270552681332 -0.36707254168204523
Ni 7.7747618406428725 4.551780323793068 10.926946329340812 -0.37899834658535375 0.7915040808995336 -0.3641522827114568
Ni 6.509403412593752 7.9518581621873174 2.2496932233463514 -0.08284685739390248 0.7512634882119319 -0.003497214519981073
Ni 3.144324300453794 3.772881134864212 2.220186392081369 0.14642098260112205 0.7557927435408531 -0.1603180522981884
Ni 6.108416688605182 1.1105432455377096 11.61788574188085 4.655999659029034 -1.823541547405582 0.295295311838743
Ni 3.7843537081080436 6.694643047783136 9.207689927727694 0.44730304449902325 -0.43845716407261903 0.05775983251828762
Ni 9.211009965000828 3.9371399789525383 2.2311877044789306 0.8688963429367681 0.4093391636607402 0.010886822115832863
Ni 2.2184857952114636 5.7294897678314385 3.6215962586532346 0.597478609046571 0.35617414960198657 -0.14713806327280465
Ni 0.4460645300645527 3.0829405002038417 11.065784754707838 -0.9033118443021605 2.4420702922542326 1.3729081529817453
Ni 3.0212431408780933 8.889538133703827 7.601397794332974 -0.08575657484152972 0.47154417643457497 0.18676004853980094
Ni 0.7848356000197352 2.9673847584472464 6.379035693436097 0.24530278197070016 1.6869087545394754 -0.4946537658688449
Ni 5.0300593599653585 6.467819945747743 0.155702370249398 1.5570922132642537 -0.03709664774198127 -1.8456316944364022
Ni 6.535843820543965 2.1697550259024574 7.2594846779918 1.1203481752279996 0.9689819328064602 -3.2013790193681446
Ni 8.34627859023569 1.3755744431914245 10.328453354671202 0.15360593038533546 0.2491920897227773 -0.32527257492712364
Ni 3.5694089616498648 6.703201366087216 1.7054210685099063 -2.6962595780812855 -0.3348131674277073 0.9446251012286506
Ni 8.733219712093748 7.734718502198566 11.736410150299173 -0.1749345166597826 1.329291701843375 0.3018426260389576
Ni 6.98727666643266 2.9601267880751436 1.4580469357538115 0.3372395174810127 1.2626854746780511 -1.1006998048694527
Ni 2.4653766780978024 8.574909268119788 11.986294600126788 -0.005684966199919241 -0.3643278890573725 0.13078738982892313
Ni 4.137181446984647 1.5875496007552992 9.140971012026329 -1.8926553714841081 0.6333154162395221 -0.8841527548752063
Ni 8.725094843100328 6.960485810103617 9.456387464230161 -0.11662318251339913 -0.1954894579929988 -1.129956644852041
Ni 9.21785293071379 4.594544248336191 7.757161954164956 -0.8101083262642822 1.3124558612329589 0.03392262088937384
Ni 5.403535886215707 5.514452798115673 2.621934880177608 0.4992480701077466 -0.09801353783201185 0.12998777674576323
Ni 4.0364459827222925 1.1367623176697128 11.703974308373226 -2.576516876102298 0.6438692804959685 0.025763996337981432
Ni 9.353651677510745 1.9880936531074511 3.4556543401139446 -1.915226829026721 -0.6340777483268435 1.0065264667191376
P 2.451921304815849 5.335558123048279 6.062539306885919 -0.9076274409583789 -0.7835660569993795 -0.4102238802585387
P 4.108527680852345 7.0620789506615305 3.7468557315731417 -0.1201929021425285 0.024789034019221827 -0.1494134895705427
P 7.013624851125285 8.842697941175356 6.348504261779322 1.7728581621181017 0.6150641833388181 0.6739234195688717
P 7.260976850299559 6.2924297544686585 3.6107849261663025 0.12081665176945644 0.35057120159291233 0.024654308213570446
P 7.434863802479976 1.0262327434516123 2.144652777419833 -0.001968950800912738 -1.581740350830237 0.14313177032688898
P 3.039448011925781 8.717311200159978 9.70952555058545 0.014891058179219518 0.3433834255952215 2.1671771982209256
P 0.747340390182561 5.071071042614329 9.786664772161577 -0.9069550974817024 -1.9335641938833281 -0.019675109831424183
P 7.6249359363669225 6.236413347810273 12.740943683473125 -0.25187992096758555 0.22955914598319818 0.3007889879634626
Ni 0.3375869233277645 6.994949641463904 3.3106065228135804 -1.8695192996872771 -0.0927288923943048 -1.9000228675927728
Ni 5.234822658785926 1.8233460257539138 2.7118710009765166 0.40412033846396206 0.1421123279234391 -2.92070120033226
Ni 1.3322018451482265 2.3959510097862577 0.7912008492583946 -2.410811077129635 1.7384786561969674 -0.5129667052454198
Ni 5.496727488007439 8.203111205157525 7.613815655967073 -0.990105859269269 -1.1211359612366176 0.8339427096797186
Ni 6.926778209455543 4.423165768762144 8.238115464807272 -0.7597411866656398 -0.43580018606574616 0.9179010549702449
Ni 0.1802955463501413 5.045875648641541 4.821956656987565 -0.38835356254800857 -0.3172039389863763 1.161392237653503
Ni 7.860999808812539 6.171285283302286 1.5168162066511703 0.7141557847263571 -0.39195850629044754 -0.6739257335617167
Ni 1.1773774403110573 7.458629735960162 5.341149619155783 0.6631697805967933 -0.4091183058991857 2.8148871926192234
Ni 5.600736877914134 1.194743079714702 0.44439067793934744 1.483121832424375 0.21691291797409737 -0.4488292513355625
Ni 5.184477982469145 8.89180682584047 9.7401381387089 0.3392845729354996 -0.8568406973238147 1.1623836550324949
Ni 9.226844698328529 8.534275700826926 1.377046326382514 0.4238139602381475 -0.2255803638411083 1.2842218060879302
Ni 6.342064311702018 4.455434686591858 13.008132905354378 1.1628521100284812 -1.3564800893327091 0.35618803355905754
Ni 6.297787925734466 7.675815507577707 11.727015367048779 -0.5076825740283449 -0.5587377408329475 0.9881993862751755
Ni 5.16632844537601 5.221228950617591 11.347322071004486 -1.7554055138592928 0.7511958681987901 -1.045524702359206
Ni 1.0618862548347725 6.912732607325034 13.471040168952056 0.24821635607306927 -0.05119297793404732 0.2889426301478379
Ni 3.521830983060697 2.1056045279248927 0.5224936325572591 1.2227824678355264 0.1585974700626559 0.1233684716570327
Ni 4.69096366414347 3.949184336393409 9.326551873268786 0.5252504077087793 0.11457581306606719 -0.4222185907265696
Ni 5.070333256553631 9.074021538180997 3.8418263200037277 -1.4402759409034422 -0.5272815792061951 -0.6783480309991285
Ni 1.9260458454028722 3.458510494401416 4.331999389707024 0.9894877660692959 0.04114870632416784 0.0821824843370262
Ni 8.104072648834773 7.280399068347396 5.275442392590149 0.7180240094325119 0.2984389996740473 -1.5755766452216864
Ni 2.1955959826783533 8.567208626111269 2.9387291478497923 1.079821932979179 -2.6882061116491895 -0.41032903837783524
Ni 8.673034814192428 4.48166298104962 -0.035588955102849394 1.0372040983086523 0.3783748540687419 0.03881568731561702
Ni 4.252100848263892 4.874229721620491 4.66211530693766 0.03559100973073225 -0.25923867532550193 0.4156378521852584
Ni 2.2005207046335027 3.8253285014539773 8.392436330658015 0.9635209096918891 -0.4365576330570611 -1.2315437589679241
P 3.94454550653678 2.23362885410726 4.220075399834206 -2.197692593200964 0.6014069975666997 1.5405983293742886
P 5.57858485144172 3.0107942457934787 11.178099771192823 -0.6111977584048763 1.744656245762589 -1.2080320489992293
P 4.771963351282191 8.579354429135485 12.9233935651205 -0.7826628284588198 0.9169572029997369 0.37750479275896276
P 8.544097477759948 2.6776930617147494 8.385160837866971 -0.3684563094034493 -1.4606347070654522 0.39859709465288773
P 3.262167178998549 6.138582916161912 12.145257984764466 -0.4159592400804191 0.037794702250270394 -0.1692778325946375
P 8.271264192514368 2.5156567981342715 12.974266680703254 -0.3936760032021865 -0.8508492556270701 -0.31961383397944954
P 5.412914991512312 5.996863436227865 7.530358219013656 0.2172769861817355 -0.9219497711183218 0.31559545684867585
P 1.7491985266539114 0.38280029759240025 0.921741025907737 1.3319749051024932 -1.2220005953641793 -0.3640540665706956
Ni 1.343287080710192 6.673542366447214 10.928053008431856 2.4370211598661 0.238778350588621 0.45906147058653196
Ni 4.132173724097669 9.023427859068732 1.493235641918733 -0.9756549739512617 -0.37859108384460605 0.18305046089869767
Ni 8.183910322927897 0.07803655387244901 8.225833171361826 -0.6459145930607715 -0.29044595416624175 -0.706417535541835
Ni 6.283059871497812 6.463697566133601 9.676523457857916 0.320746404921996 -0.028081331617248413 -1.5656835544776908
Ni 7.607164514629894 6.595088041217897 7.287263245409601 -0.06618148092307957 1.058157560631868 2.609717274113667
Ni 5.956866209412354 2.627735723079835 4.715377927124495 0.6254578678683164 0.7699181271986418 1.6921723169312597
Ni 1.8407024428317997 4.632309672318095 13.136726249036055 1.4011231819633805 -0.40817753925247124 -1.5051016791295757
Ni 5.256587347576473 0.6478573177582395 5.945054254580603 -2.0588746197580803 1.1974339617684089 0.5883681621048705
Ni 2.055370519517217 1.9098053297417896 10.30498069115014 1.3924115131219954 -1.8059320618539347 -0.9603270853449396
Ni 2.7138538010146385 4.306346568376604 10.58439871698744 0.01774318291603396 1.174162649945294 1.835308201023207
Ni 1.3013439431595937 1.420588615219672 8.056584126805463 0.20044088846100316 0.7542151146410881 -0.835219005288981
Ni 3.318524811710006 8.13575133781593 5.484806709731735 1.1629567539271455 -0.4121676342484708 -0.8555422902273653
Ni 7.364543568569837 4.1543441952216 3.5231700647608606 -0.42663240352354914 -0.048133879392749365 0.15842520615084973
Ni 1.5949735729910581 6.281372185883968 8.092352917260609 0.9851048065102519 0.11363658908124945 -0.8781073200120748
Ni 6.384671456707243 1.738989412039023 9.247832867290192 -0.024660993081789786 0.3449091182111286 2.9675754962862957
Ni 4.677351511323619 3.7764225079555556 6.8237888087777625 0.021456627211879176 0.262925894369102 0.5275158067041883
Ni 2.294293312948033 1.5283607140359194 2.929496677532751 1.2830380701924742 1.1115133505451888 -0.8042220426868344
Ni 0.917605735037533 9.142368194378774 9.67001710703515 0.08805462684708706 -2.0568519329010964 2.06228621654279
Ni 7.553232353592977 9.05167584286765 0.07197564138382692 -1.1712002248828604 0.10751016446853742 -0.5524153981593455
Ni 0.2790518995046768 0.9198237043825019 12.278630337654306 1.1143312796099583 -0.6884190420818853 1.064807718958534
Ni 2.188743794639634 1.1338849520329963 5.394978490144203 1.5407852485741143 0.06408551762599932 -0.522482615155655
Ni 6.921115701439698 5.023686732866092 5.857021621818291 -0.9443024277819092 -0.801904193186935 -1.1346653631816201
Ni 7.427965502812462 0.30574499918067766 4.388069285854809 0.4741137369339641 0.6541099843873702 -1.4909444137925871
Ni 9.236159247344823 0.9071937292559531 6.0690318242200485 -2.1199432049346267 -2.065381567638662 -0.3149624512503672
P 0.8326330699619606 8.197817590172027 7.673529293022123 -0.5664448796692181 0.876306262247594 -1.0475347908106991
P 7.315646797397173 8.637270634900162 10.162970707954695 0.6514946582517103 0.2753535786094935 -0.4311742572579606
P 2.4742393331519197 2.694025800633419 12.215001823314685 -0.4338029531300593 0.1491800334034979 0.4367931461066349
P 3.424600002586651 1.910829007901006 7.090357368135454 -0.22035613932769146 0.46043572522623927 0.29857603947254385
P 1.390016605329559 5.344522223685742 1.5233493022186382 -0.02332273388634048 1.150597203920528 1.5397022999225805
P 7.993911967647021 3.150318812196953 5.440452856227809 0.8007633947142725 -0.4164451785779021 -0.4651146187591474
P 0.5919783237536594 -0.08949898255794564 4.125334447315012 -1.2810516358900648 0.5880192634058841 0.38420688736948666
P 4.938758334954162 4.127424226331935 0.9968790027942245 -0.5243890881497485 -0.8366691074719461 0.8394489842099284
