# total energy = -340864.25403175515 ev
CRYSTAL
PRIMVEC
9.32182630269446 0.00000000000000 0.00000000000000

0.00000000000000 9.32182630269446 0.00000000000000

0.00000000000000 0.00000000000000 13.64343505863768

PRIMCOORD
 96 1
Ni 0.5562082135510367 6.825292155513191 8.565526134542225 -0.36308244668604567 0.3182634905991422 -1.0520725307800527
Ni 8.666231689722945 1.5198212576930323 4.7730874082334 -0.8871576031398011 0.4347596606163739 -0.31565870598644347
Ni 8.794061895420628 8.674276425923418 6.475133593150194 -2.196684977872055 -1.0794730342801926 1.9218597609622061
Ni 9.249442437864841 2.2047144884244676 1.7688035126410988 -0.07284372343460357 1.3097544031413961 -0.9780980361751155
Ni 4.396499603604373 3.063515712847727 11.251987019257282 0.5626715286697148 -1.386658155577986 -0.24379740106976722
Ni 4.969167366065232 8.324148625587608 5.091047449959019 1.7757470536301225 1.1452979031948018 1.0723024846736824
Ni 0.5367489008992528 3.6684836038539426 4.466069326359596 1.7740472973301962 -0.9620330122924529 2.3153285332495934
Ni 0.299074953581308 2.540747687213214 9.218691596870492 -1.027648336299417 -0.672590302579745 1.432637707631894
Ni 7.916094995877815 7.316934602731269 4.2028461171896705 -1.09458803554476 0.4694628684255141 2.772841942622715
Ni 7.76362720295203 8.05103775513397 9.224830951750715 0.630274058310037 -0.3116097327280505 0.1724202348783611
Ni 2.585995832655973 2.767007058079849 3.062855727537189 1.0137587228015186 0.28081794415817446 -0.5463591646629364
Ni 7.714892694428184 4.159072684686558 6.277972303453641 0.06004888566278046 -2.166369614717966 0.43001751794569815
Ni 6.994548557821427 0.2808032416154341 3.5591218006595957 -0.4181588188348992 0.11354017271270123 -0.44679113785961116
Ni 2.7580114955845336 4.6335629712918065 7.258840048299087 -0.8105749814880557 2.1206541149587217 0.3069632350949746
Ni 9.421756399238843 9.115012379061787 0.10718236017734706 -1.0511227652722737 0.8812960021527017 0.48337665029312876
Ni 2.1043929924922526 5.016112083916434 2.491864029466649 -0.20347504730163665 0.35945410590483895 0.013692666995744158
Ni 2.533383444341401 2.2165438861514684 5.394845772987349 0.034689066741753156 0.30331586815037437 0.44970445485166427
Ni 3.2033337873215504 4.388865027766379 4.756524387050315 0.18810833503757926 1.128101336810857 0.09916436360700341
Ni 2.1668492295063615 2.4757279479336005 8.044278498796817 1.5283670774154194 -0.792234531307655 -0.8182134718699199
Ni 8.518499384618528 6.9018523159007845 2.2015870156605524 -2.331721629895636 -0.8651846984131357 -4.378052094440117
Ni 7.3499152246052875 8.901990001711576 12.550282529539762 -0.8287938184889274 1.7596396065452984 -1.6414436802281407
Ni 1.869706690541923 0.7633084345766121 1.3512947543934841 1.6105369633469553 -0.37616010580561027 0.8566476074764021
Ni 2.111962315545306 9.35603752297773 11.808761999854655 -0.7065100952556412 -1.2205998583619109 1.3665698694685433
Ni 1.9398813998318056 3.4593577499472974 10.981205673226007 -0.5577465805642717 -0.7403530119470153 0.09247101074722784
P 0.5502646170256343 5.292839823021037 0.7320066736408395 -0.9375548246454304 1.1084879334553037 0.8750813887015576
P 4.575618498264985 6.510708479316903 7.799406237117336 0.035068561568358955 -0.7411294851017236 -0.03625743967013755
P 7.449537583556001 8.672850186481156 1.1147412906112255 0.5755478704117507 1.0148401287911555 0.5099649423046185
P 0.6689603650143435 6.573901140618193 3.506075947416493 2.5706671021897405 -0.6209478958131048 2.2682223237904098
P 1.110462572284438 8.203216571440736 10.265566262413433 -1.0405200500557628 -0.26770891758004217 -0.10421966664272374
P 5.076871748522101 6.532540196792581 4.140823345104093 -0.07924062809988289 -1.356920005083605 -0.282454708430649
P 6.915406251515489 0.43196877539034384 5.8208485794688825 -0.9987797328941832 -0.3716370211242761 0.01357259647811211
P 3.943580023335042 8.821244341261396 2.086272294114383 0.47589602564536754 0.010677534318504192 -1.1880082975791346
Ni 6.866709030297324 6.41159882081929 7.673067523646855 0.1036645654702021 0.8909589791637624 4.002519852026494
Ni 3.1597356051551344 6.970479602004945 11.112236994116323 2.5454178407046486 2.4280076435135802 1.3808742019063573
Ni 8.106045852838488 4.4980981897561305 9.50184766747434 0.6556701297856385 0.5050294526762141 -0.007239455171232693
Ni 5.291907640379036 3.390366912612757 0.5418889559872497 1.9848744141215298 -0.5861804104249324 -0.5980398808666797
Ni 3.349276301753325 7.866064753481589 -0.14081084898755575 0.4889847405085256 0.9551409131583098 1.0792048682204705
Ni 0.383352654062033 3.5447177144753863 7.0615687610507765 0.8508034899907992 0.8768227968726963 -0.18299029708472356
Ni 6.012792442918154 7.687393306489136 2.4271808081207977 -0.5369383855696688 0.6465563404098283 -0.4844158901909206
Ni 2.626545777583044 1.271413227252439 10.0778601012547 -0.9489180721770497 1.3080801007627667 -2.121474553977489
Ni 5.599938072602053 8.638117061240175 7.541585958540452 0.22660520556119684 -0.6716896451423464 0.00926162780758405
Ni 2.663609359429029 8.157996391477237 8.85875070986233 1.9855935516757417 0.5133328303355869 -0.34288591713351274
Ni 2.626862719681325 0.2052992441612283 3.6697429826032866 1.5622943262904836 0.07838342230591017 0.7008500687563866
Ni 0.7314753295348986 8.383519338056692 4.74424567728987 2.333654842362607 -0.3791682965043147 1.6421705310918366
Ni 1.6351322505086336 7.343595026292515 1.6030903365551117 0.8163890170666714 -0.4208507638447655 -0.754758645849384
Ni 5.712377942880289 3.704624324884345 4.7913013248754694 -0.9234749495135967 -0.4311040661416575 0.09707405673687798
Ni 5.805316552287852 4.994084608085936 9.369574679304876 -0.6666438551883228 -0.22735005414702134 0.334732691898759
Ni 0.6347884137238479 3.677982544975939 13.066727560313579 -0.048187615448820234 -0.37678591231506725 -0.6572917245494615
Ni 5.310010627286707 5.984696458088225 0.19451482317591146 0.036654675108556224 -0.005969330209557462 -0.04034677924816277
Ni 4.351857376878915 3.1642380473160023 8.671030565963969 0.33460105141690116 -0.523188382973428 1.4713310104370336
Ni 5.436302731625088 0.21133885549875683 0.21005710436600458 0.24944637182542845 -0.5890549037592501 1.2260698803375465
Ni 7.951452683488937 3.1169670655400994 11.86982928473218 0.6443343930578451 -0.6573837700426356 -1.2154555951568098
Ni 4.773884424392311 1.8220348702299598 2.415024214286455 -1.671280046863283 -1.2586452431704065 -0.23882180223204677
Ni 7.732939750377335 1.6520513654609632 7.735364357429182 2.690867460531437 -2.7912451277202512 -1.3098423348695118
Ni 7.810786322810891 6.920868841797619 13.516837542099916 0.8423962397637106 -2.308243601378354 0.26606392577745147
Ni 3.3035900304688255 0.24780677263650247 6.491846695738642 -0.5106241731551722 -0.942764650981144 0.8381629184086533
P 1.0249907458393088 4.7281049348436115 8.860128475807208 0.573366803600032 -1.069336974287455 0.5350925906101817
P 4.160424349517461 3.3103669982761774 6.558412926021336 0.04042288390173683 -0.311027120751703 -2.703278946821912
P 1.8019276906419848 7.993540729775311 6.8716523948478585 -1.0712863847043421 0.025767852992723363 -1.0690569811531911
P 7.7564866839142965 3.739982012495467 4.039780339806968 -1.0138643951414474 -0.6326703264563556 0.14669094843305705
P 3.660308362083588 4.851581847603147 11.899872599101252 0.055700635996413755 0.8071541287319647 0.8646316541231431
P 5.996628395905845 1.7842255422703737 12.232458586479877 0.20667709917870214 0.35142557917340767 0.28607764989521695
P 8.389503950618343 5.275091065517326 11.689121950849596 0.032855613077440185 -0.1622720907007657 -0.135057992179819
P 4.317198826249294 0.7161521112656758 8.879748123873417 -0.4715927702843233 -0.35591498240332897 -0.3369950055703745
Ni 1.1502760929243276 5.902999971343202 5.774529356170464 -0.127985915824386 0.38444934239759593 -0.2969960965799337
Ni 9.152998821723354 4.638969630615416 2.643020241415139 -0.7968697160868212 0.26691007582783066 -0.11957583738381988
Ni 6.324560927535598 5.282184975422958 2.876922577763545 0.27168641417055145 -0.9605690261524166 -0.41832259810627304
Ni 7.6254870572338085 1.9979190911228266 13.887652339627026 -1.4495285698499616 -1.6327158134368396 -1.1762850956049353
Ni 6.810796715430066 6.791565787525573 11.32001304755735 0.43642753523709993 -0.44893389523422683 -1.0879674449044487
Ni 3.055163356375392 3.383011991567364 0.4536345643557457 -1.9019810197604081 0.33841271185350746 0.3097371982956859
Ni 6.445520947161729 5.84451483238402 5.711114835400378 -4.201392881779745 0.6917110825695958 -4.107627577701126
Ni 5.167284142969837 7.3567760888504194 9.65836486179698 -0.501528381501491 0.14315002515933412 0.5780608666415915
Ni 0.03959445771901911 1.2796071126756332 11.468071616586467 0.2753998584663967 -0.1094552040100502 -0.07445760488894274
Ni 0.685923292550847 1.2684209209716137 6.578059607384162 1.389577128996994 -0.41628474174063795 0.9309589165954676
Ni 3.9767004726053603 6.336175923254938 2.2468146530851874 0.10018432023108553 0.9047881717373708 -0.21676687931453636
Ni 7.844055921303929 4.2822792644799135 0.8355115732954902 -1.0903727119118318 0.43199135384261733 -1.7793532829241419
Ni 6.821321057458265 2.563464978198794 2.4184220200165507 1.4343814297958781 0.8861291618752868 0.8270560098622143
Ni 3.0578760078636167 7.192217887057872 4.640746370731072 -1.7872283147968444 -0.8682875057081755 -0.10640690410202965
Ni 6.160384920626271 9.530635331824632 10.017296195003855 -0.8985185366785752 0.14702827716781774 0.3094206954965316
Ni 2.5392002640274915 5.568113357204117 13.62644917024232 0.2656826311786327 1.0928016330682986 -0.6367918048238969
Ni 1.3329186379717062 5.946868486475799 10.79183463386866 -4.147499731305715 -0.7100433052198805 0.7702932511498733
Ni 3.1982533919226417 5.054676479816041 9.802426231657195 1.3994457942609575 -0.15447984834985654 -2.153715159178749
Ni 6.262328414355569 4.475930886529332 12.161922190324898 -1.4949620195924123 1.1439552731239784 -0.09668659149047218
Ni 4.866655240924313 1.2385631109483017 4.951775634513408 -0.10410088167667234 1.0086633105564822 -2.267644854020385
Ni 3.532925604054066 1.3671577064124258 13.334888540938186 0.034583137291508186 -0.30943715055676385 0.028361838972144705
Ni 5.3802412675351095 1.6647104057393451 7.09286679325598 0.7612797347973534 -0.15595206202000883 0.7204182206963012
Ni 4.324339345287027 0.557519794528333 11.320981585322391 1.647814616751491 -1.2351867550371503 0.44167387123770385
Ni 0.32665357704492604 8.845863284836659 2.71058204275949 -1.8982824878628983 2.1618323889692443 -1.349529369046489
P 1.3893343314656448 1.6550902808738885 13.13606330522566 -0.18755786185074796 0.886813332426505 0.4000456541739562
P 6.615355302708005 3.073601929034184 8.376850503435811 -1.8084072628673051 4.193222173043494 1.4314290320357732
P 8.35927326753823 6.2427059697414355 6.2697178261587165 2.7440304177076613 1.1334952541329189 -0.1438010284797717
P 0.9730961381590782 1.5582737916755995 3.3503911921931593 -0.3511203892281631 -1.3006280153600955 1.9627289883727421
P 4.201514960376892 4.152090636697966 2.2250938653439074 0.46284099223362224 -0.23817362712508658 0.6608665863849135
P 1.2104391606391125 7.64413071007384 12.8597559804926 1.008149347034541 -2.157687513562936 -0.31264074509572604
P 5.180306734478601 7.64422392833804 12.351879572564064 -0.16987844229311388 0.6621040583364404 -0.5306268415293441
P 8.09670538276563 0.7640113002886814 9.807679080844876 2.05804312499572 0.7078087594624067 -0.6001253026407987
