# total energy = -340891.89198181836 ev
CRYSTAL
PRIMVEC
9.06261884247857 0.00000000000000 0.00000000000000

0.00000000000000 9.06261884247857 0.00000000000000

0.00000000000000 0.00000000000000 13.26405873951866

PRIMCOORD
 96 1
Ni 6.196457002724987 2.0732553529471747 11.182530547051373 1.349562279166953 -0.7828458910039034 1.954004464015551
Ni 4.5608808352942 0.632554494802979 5.958387438670651 -0.38408218886616435 -1.6305630287598953 0.06481853913728192
Ni 2.7575465272050863 1.7768080222208777 4.825067054837119 -0.31530800751524407 -1.6513537402530012 -0.8473993494052569
Ni 3.2904194628956964 4.32507148842317 4.870190741193981 -0.6482144448385416 0.2759688435959892 -0.07945737209637929
Ni 4.964702076156084 4.7501083204082315 2.6994216076037514 0.4073907816851178 0.002739253308033992 0.08321941024197281
Ni 7.235141893715859 5.9531166194492755 2.577007374944446 -0.109870694280914 0.31102609231043854 -0.16353424524264093
Ni 5.188023134019108 4.212704075208185 11.807943698067483 -0.12665074195273027 0.033646484409851726 -0.5457873513198666
Ni 5.746398279628822 7.702038962949087 12.270222456648693 -1.2226022335039204 1.2482636428257663 1.025581940688692
Ni 1.8098412685446632 6.5122711502946125 0.5534441746015463 0.2960257622468644 -0.512339356074066 -0.018148902994884874
Ni 2.8084059451389916 1.528519448960862 0.35724391041439507 0.5132333286432451 0.0529122746179992 -0.05322723475525672
Ni 0.4742740411145889 0.1796482968110847 4.6723048298693195 1.1731540061751216 -0.4898319190001693 0.9964312872666645
Ni 8.631319917144143 2.1960175901768046 1.2360542330314568 -1.299508814153988 0.7453862034955485 0.19524366053077985
Ni 6.739244443622244 0.7507011401662977 4.744832063615445 -0.2239045188005821 -0.17795761975682256 0.14050898799206124
Ni 1.0443309026396281 7.558287700071752 2.555758252130899 -0.8018615128744577 0.12837543795332085 0.6212942234089299
Ni 7.4055010060326 3.7086502679975855 3.62165818803544 0.7272465564720444 -0.16175067097965692 0.45247533272858204
Ni 7.61249122442362 3.8190057797903805 12.82375816370233 0.0329366028270207 -0.07045414015650447 -0.9539479212914731
Ni 7.852514689138426 -0.2325576791670588 6.880703770149706 -0.17628126049566414 1.1111459399034411 0.4789769785635363
Ni 7.061855555456021 0.5890077041554007 0.18436810879611285 -0.7239941109730176 -0.2827928084963582 -0.3070061725177681
Ni 1.9874595386955207 6.642636924881076 8.921340038462258 -1.0564274653146388 -1.3059103468049573 1.2285864761118133
Ni 0.08584747118006165 4.940169566471999 1.369699769440849 0.08728201034712064 -1.171739899436414 0.8694524725505541
Ni 6.42454499819194 1.9693252380387594 6.969732220605391 0.409564649407985 0.6654513775421185 0.28199165275130145
Ni 3.262778474888139 4.181148035784475 0.44339226054588327 0.2328046495036894 0.06695024076830404 0.08140755384421462
Ni 6.1959132455838555 5.712295644260811 4.714657167330211 -0.7424163222339472 -0.8194545433658725 1.3377778849375153
Ni 5.305574365312888 2.9193324019299753 9.271218758400016 -0.9608531330517387 0.2040211496130938 -1.0292259651991822
P 0.1597993486359529 5.486264863311143 12.50186662381865 -0.600769878203333 0.2896352853394883 0.03591753983221556
P 4.174777014614209 5.866541419961998 12.636509954582019 -1.1848607530890884 1.7898122734739368 -0.019400001793166588
P 2.5780704201553597 8.658689026581134 1.4556505544777258 -0.13988729524766233 -0.27855717314845574 -0.23469775276134422
P 6.112428399182014 7.714083183625167 5.831079391741156 1.04603712321925 0.9544989086989367 -0.37811028755344556
P 4.749283622077514 0.8768609532661025 12.52923029568423 -0.003429337396523126 -0.7963452110419189 -0.5911071583025884
P 4.020929994149851 6.0463165934393475 8.317572952972723 -0.15829099456583062 -0.8953769057257999 0.19454483469154235
P 4.652476725717931 1.184402742195302 3.7792888519401773 0.8266307493993376 -0.7875934329912178 -0.7311584899319408
P 0.06518107476942767 5.81908048416017 3.5593309319950555 0.9763041774994865 -0.6238576132607321 0.36209488596179573
Ni 1.1567708168067636 1.1374402504395114 2.4364615604140853 1.7804102634337469 -0.2915564136216011 0.6026863784997556
Ni 1.8191213904199872 6.5594239570498 4.864725981925602 0.08736042899353987 1.0470591367258613 0.1011641676458516
Ni 6.085032101887966 5.631167078803875 9.270848097282146 -0.913932043020168 1.1633406196291256 -0.8863651891454928
Ni 8.816287971319307 2.6393971630560618 10.075537977729564 -1.274385793834115 -0.7313865467823468 0.28462960459478076
Ni 2.354839988482523 5.197176379228169 6.942076732407405 -0.6655107700251441 -0.21641618084333697 0.57930553768197
Ni 0.6564680276080745 -0.14709899434290674 9.24217125192073 -0.244044998304199 -0.09720852543221323 0.2558918703404561
Ni 1.4668302012994054 1.0725518982643931 11.120162509225404 -0.3147665331894773 -0.05605210579856153 0.9848248133759878
Ni 4.009248278234526 6.882442886739428 1.9277187541231215 0.4843672963411722 0.11425159695742905 -1.2591556071479217
Ni 5.712304706879829 7.9575051304720485 8.04473102600488 -0.9957129210434013 0.20855529003802148 -0.5482394124047849
Ni 5.112531517591911 3.0785988685676187 4.808035674914954 1.516537174660027 -0.7300362034020396 0.2479150227825666
Ni 0.764468164717865 7.534634264432498 6.957091679597871 0.04640995472310717 0.12690322428316855 -0.17900971517042075
Ni 5.383494763637143 4.491642425990023 7.340529277762509 -0.1659881060997722 -0.1707932407978994 -1.217321187610639
Ni 8.209092497054932 7.1733167067691195 9.41309134035474 0.3372014651542257 -0.5609303776088921 -1.4846238708911978
Ni 4.652041720005025 0.18313649887144826 10.380280323643834 -0.6274872395935194 0.40514389463246997 0.02309210593277313
Ni 8.170984184080579 7.3545872123845815 4.881889676085441 -0.31245639699906186 -0.2903171418978613 -0.7038870558104975
Ni 7.350499971207071 6.344766762968816 7.03667597477399 -0.36435154320645635 -0.6407137655861224 0.07669317908768084
Ni 2.3953317702588404 5.285301286567672 2.794618076563681 -1.2553298056439284 -0.7174115726594935 -1.1013448946526194
Ni 2.1301414125286295 5.310232551488588 11.683222122605972 0.4140165145317515 0.1824261970511374 0.2947970320460858
Ni 0.988441731150249 3.3199726635162357 3.8000467808029024 -0.4404420557131317 0.5456569963895893 0.3403693213592461
Ni 3.7496042433438648 2.771077017400261 2.560135497117014 -0.6920862065208274 -0.4674854329841691 -0.11022627784811984
Ni 1.3230155000889376 3.232364325460807 8.232391584290548 -0.9196362924937969 0.8157629534468983 -0.11152262806204019
Ni 3.6434628493948447 2.8263227429392996 7.126646031345737 0.6804452798477894 -0.2460388888057763 0.09515524244761032
Ni 4.238106596318081 6.577929825086335 6.321730491684748 0.32410298009905475 1.0094732080522872 -1.424154095640915
Ni 0.7343739257418993 7.440537091159557 11.445251341098942 0.9995896303899882 -0.8599723009742608 0.03524391080395866
P 0.19344432174351242 5.694170406223068 7.867324821139064 1.1139304446271139 -0.19859329372930312 1.1385695833320328
P 8.447693130583774 1.779934625782388 8.076976730735925 -0.478524207296834 -0.6706686600769999 -0.45097895068871363
P 1.6906315779704308 3.49849719556898 10.46349872904652 0.12652938588351756 -1.32908549936984 0.234539372806609
P 3.869819884629192 6.242785111149457 4.1177205777951995 1.1180084713512295 0.6711335155285604 -1.0667085355256727
P 6.8661392351244785 4.1082573910156945 10.401967170955992 1.2857282154301275 -1.4348223739880388 0.2674862600462748
P 6.26885826606675 7.73355875189672 10.094612071978583 0.5293454037137594 -0.0007829009126115549 1.1013855180825676
P 2.3287940214222873 8.656178681112909 5.945349048688202 0.6442875989803097 0.027166018891830634 -1.1262707113600214
P 6.659275893399723 3.7723242292241745 1.5387638334997942 0.3438688498720723 0.5220432136253912 0.09696015686683301
Ni 5.151056711041133 2.5651471254344496 0.42365297006087976 0.1911455792020063 0.8762507264193101 0.13626975309973305
Ni 1.2536864645945724 0.9303684684773221 7.334812577685405 0.13157800405101855 0.874798824464132 -1.89054398156806
Ni 6.822919605023482 0.8069682228687637 9.2483519580916 0.39978468720308563 -0.3294156505612198 -0.6445945886977673
Ni 2.8069921765720474 1.547315320806001 9.099131404636376 0.3388300018965842 0.17446220500905438 0.6004965699372885
Ni 6.3857569887911705 1.7483423358826031 2.368018849059766 0.4257098917092797 0.3944110815959982 1.2374112734922946
Ni 4.1515948351639365 6.833939749750429 10.321321643092764 -0.02356416047318522 -0.04363007798512486 1.05096361398659
Ni 8.491637770206282 7.187980024341653 0.4710640614581047 -0.707517196363917 0.32180929896887156 -0.34125198107451554
Ni 7.786701949823382 4.140511252103857 8.141837895053987 -0.13800653328518167 -1.2533780812341961 -0.10912198904034756
Ni 3.123685398186503 7.959924849750087 12.598402547869567 1.0480217577494468 0.7155079278788774 -0.9143184798253092
Ni 0.1622489745567538 5.016721509324404 10.155241899476732 -0.5892382234146497 0.6535170879983777 -0.11509440457369856
Ni 8.712765674266741 2.5446565438327813 5.912242395150363 0.09626493057202132 -0.2397494562526387 -0.09455668963166296
Ni 3.4541266128525865 2.551544134287124 11.225479204843706 0.9026343586191616 -0.7571451438036896 1.5837766645339755
Ni 0.9508046743648767 2.991099281940417 12.810733367648409 1.018282321703485 0.8222801857401257 -1.1376419293114408
Ni 3.2137950190911404 8.474355355737293 8.077652802114734 0.2137707728006899 -0.24839427641183023 -0.9106119775079994
Ni 5.7399819453634615 7.787871027676816 3.6452554354367774 -0.4555516576610606 0.7844836837176425 -0.8962256268793404
Ni 3.158757733789535 8.412856423075233 3.6683741765539177 0.04984083478152706 0.8403049044523205 0.9219829383491024
Ni 3.412139498938156 4.507302631654633 9.919287550701402 1.7412042826582463 0.5841188999102134 -2.2108946937135343
Ni 7.183675280307689 6.0578170569742955 11.37102577254868 1.2300571471200685 -0.7600980557844265 1.1260184861398994
Ni 0.8457825138646874 9.145813861464484 0.06070232845030149 -0.5936252967387519 0.20240135462148368 0.3407714418936712
Ni 4.750643014930344 0.23365606859214602 1.6029217385819912 -0.20118085195082128 -0.6845667582153306 -0.41771916019431937
Ni 6.047222855341235 5.626427329057005 0.4058920493076959 0.06768249094863826 0.24585891158448628 0.4310184484063867
Ni 7.9464849857451005 8.665377239417062 11.249500582815127 -0.7899593621202331 1.4916596946920568 0.6699310105800269
Ni 0.07235595024666802 5.093101262415451 5.692708605775324 -0.5301203342065708 -1.0821307836180136 -0.12025152329460581
Ni 8.0688484677379 -0.08622719491695235 2.402519333402707 -0.32298814976832113 -0.9979528661175134 0.14427719678524187
P 8.397776225027831 1.6636793490083077 3.7066012098374186 -0.018796306770896658 1.0138998763650733 -0.896556784966514
P 1.713288125517609 3.3025543097619647 1.7197778669970227 -0.037718340486380196 -0.5157946616125182 -0.5383581487353309
P 4.715933184088067 1.033972329101058 8.089298267553984 0.5680873003686474 0.870965823871287 1.1341030629202467
P 8.407862919995836 1.6745363665929154 12.013510179010638 -0.3088707365303326 -0.8652214651883422 1.1379720589573499
P 6.5474612999448905 7.60710802872641 1.3484370526987735 -1.242616214732002 1.1920300171440181 -0.06935807887884829
P 1.8440979684359966 3.170022569229992 6.0505597116639835 -1.6176517200148655 1.1910684245616971 0.32760970770073256
P 6.933075739197862 3.913637647585434 5.8535755309317 -0.09965698697270578 0.5174694782117798 0.44219092008343847
P 2.460183871957883 8.231567792221734 10.32223696761367 -0.11227570417798084 1.4404235222249 0.4792860251635229
